@<TRIPOS>MOLECULE
mol_data/opt/b3lyp/geoms/mol2/5eh5eh-5eh5eh.out
 46 49 0 0 0
SMALL
GASTEIGER

@<TRIPOS>ATOM
      1 C          -1.6602   -1.5116   -2.0627 C.ar    1  LIG1       -0.0065
      2 C          -0.9770   -1.8224   -0.9108 C.ar    1  LIG1        0.0529
      3 C          -0.4583   -0.6499   -0.2309 C.ar    1  LIG1        0.0556
      4 C          -0.7549    0.5257   -0.9137 C.ar    1  LIG1        0.0490
      5 S          -1.6803    0.1764   -2.3792 S.2     1  LIG1       -0.0930
      6 H          -2.1275   -2.2072   -2.7446 H       1  LIG1        0.0706
      7 C          -0.7841   -3.1372   -0.4070 C.1     1  LIG1       -0.0673
      8 C          -0.5878   -4.2373    0.0609 C.1     1  LIG1       -0.1138
      9 H          -0.4361   -5.2160    0.4538 H       1  LIG1        0.1232
     10 N           0.1498   -0.7617    0.9991 N.pl3   1  LIG1       -0.3561
     11 H           0.4026   -1.7084    1.2504 H       1  LIG1        0.1424
     12 H           0.8599   -0.0775    1.2232 H       1  LIG1        0.1424
     13 C          -0.5039    1.8991   -0.5386 C.ar    1  LIG1        0.0455
     14 C           0.6306    2.4720    0.0306 C.ar    1  LIG1        0.0612
     15 C           0.5065    3.8925    0.2839 C.ar    1  LIG1        0.0563
     16 C          -0.7131    4.4044   -0.1431 C.ar    1  LIG1        0.0496
     17 S          -1.7272    3.1157   -0.8008 S.2     1  LIG1       -0.0840
     18 C           1.8472    1.7910    0.2877 C.1     1  LIG1       -0.0666
     19 C           2.9047    1.2491    0.5369 C.1     1  LIG1       -0.1138
     20 H           3.8411    0.7674    0.7005 H       1  LIG1        0.1232
     21 N           1.4960    4.5758    0.9561 N.pl3   1  LIG1       -0.3561
     22 H           2.3711    4.0733    1.0256 H       1  LIG1        0.1424
     23 H           1.6112    5.5533    0.7232 H       1  LIG1        0.1424
     24 C          -1.2513    5.7387   -0.0190 C.ar    1  LIG1        0.0455
     25 C          -0.6285    6.9732   -0.1951 C.ar    1  LIG1        0.0612
     26 C          -1.4981    8.1075    0.0373 C.ar    1  LIG1        0.0563
     27 C          -2.7985    7.7280    0.3410 C.ar    1  LIG1        0.0496
     28 S          -2.9316    5.9685    0.3972 S.2     1  LIG1       -0.0840
     29 C           0.7042    7.1597   -0.6403 C.1     1  LIG1       -0.0666
     30 C           1.8420    7.3716   -1.0078 C.1     1  LIG1       -0.1138
     31 H           2.8257    7.5361   -1.3831 H       1  LIG1        0.1232
     32 N          -1.0004    9.3942    0.0214 N.pl3   1  LIG1       -0.3561
     33 H          -0.0824    9.4735   -0.3965 H       1  LIG1        0.1424
     34 H          -1.6382   10.1185   -0.2816 H       1  LIG1        0.1424
     35 C          -3.9428    8.5418    0.6859 C.ar    1  LIG1        0.0449
     36 C          -4.3838    9.7425    0.1309 C.ar    1  LIG1        0.0606
     37 C          -5.5753   10.2671    0.7682 C.ar    1  LIG1        0.0479
     38 C          -6.0331    9.4460    1.7637 C.ar    1  LIG1       -0.0018
     39 S          -5.0066    8.0603    1.9891 S.2     1  LIG1       -0.0930
     40 H          -6.9049    9.5820    2.3873 H       1  LIG1        0.0712
     41 C          -3.8176   10.3766   -1.0033 C.1     1  LIG1       -0.0667
     42 C          -3.3628   10.9601   -1.9661 C.1     1  LIG1       -0.1138
     43 H          -2.9771   11.4329   -2.8395 H       1  LIG1        0.1232
     44 N          -6.1216   11.4917    0.3905 N.pl3   1  LIG1       -0.3566
     45 H          -5.8948   11.7618   -0.5586 H       1  LIG1        0.1424
     46 H          -7.1088   11.5902    0.5843 H       1  LIG1        0.1424
@<TRIPOS>BOND
     1    43    42    1
     2     6     1    1
     3     5     1   ar
     4     5     4   ar
     5     1     2   ar
     6    42    41    3
     7    31    30    1
     8    30    29    3
     9    41    36    1
    10     4    13    1
    11     4     3   ar
    12     2     7    1
    13     2     3   ar
    14    17    13   ar
    15    17    16   ar
    16    29    25    1
    17    45    44    1
    18    13    14   ar
    19     7     8    3
    20    33    32    1
    21    34    32    1
    22     3    10    1
    23    25    24   ar
    24    25    26   ar
    25    16    24    1
    26    16    15   ar
    27    24    28   ar
    28    32    26    1
    29    14    15   ar
    30    14    18    1
    31    26    27   ar
    32     8     9    1
    33    36    35   ar
    34    36    37   ar
    35    15    21    1
    36    18    19    3
    37    27    28   ar
    38    27    35    1
    39    44    46    1
    40    44    37    1
    41    19    20    1
    42    35    39   ar
    43    23    21    1
    44    37    38   ar
    45    21    22    1
    46    10    12    1
    47    10    11    1
    48    38    39   ar
    49    38    40    1
