@<TRIPOS>MOLECULE
mol_data/opt/b3lyp/geoms/mol2/5eh5eh-5eh-.out
 35 37 0 0 0
SMALL
GASTEIGER

@<TRIPOS>ATOM
      1 C          -1.8669   -1.7147   -1.4095 C.ar    1  LIG1       -0.0065
      2 C          -0.8696   -1.9174   -0.4850 C.ar    1  LIG1        0.0529
      3 C          -0.2961   -0.6775    0.0044 C.ar    1  LIG1        0.0556
      4 C          -0.8751    0.4387   -0.5904 C.ar    1  LIG1        0.0490
      5 S          -2.1284   -0.0491   -1.7379 S.2     1  LIG1       -0.0930
      6 H          -2.4365   -2.4755   -1.9235 H       1  LIG1        0.0706
      7 C          -0.4254   -3.1887   -0.0308 C.1     1  LIG1       -0.0673
      8 C          -0.0071   -4.2475    0.3838 C.1     1  LIG1       -0.1138
      9 H           0.3364   -5.1921    0.7371 H       1  LIG1        0.1232
     10 N           0.6340   -0.6845    1.0206 N.pl3   1  LIG1       -0.3561
     11 H           1.0351   -1.5947    1.2053 H       1  LIG1        0.1424
     12 H           1.3126    0.0653    1.0228 H       1  LIG1        0.1424
     13 C          -0.6571    1.8432   -0.3246 C.ar    1  LIG1        0.0455
     14 C           0.5334    2.5317   -0.1060 C.ar    1  LIG1        0.0612
     15 C           0.3544    3.9458    0.1515 C.ar    1  LIG1        0.0563
     16 C          -0.9761    4.3352    0.0789 C.ar    1  LIG1        0.0496
     17 S          -2.0103    2.9427   -0.2516 S.2     1  LIG1       -0.0840
     18 C           1.8300    1.9646   -0.1907 C.1     1  LIG1       -0.0666
     19 C           2.9595    1.5221   -0.2404 C.1     1  LIG1       -0.1138
     20 H           3.9439    1.1260   -0.3389 H       1  LIG1        0.1232
     21 N           1.4254    4.7404    0.5045 N.pl3   1  LIG1       -0.3561
     22 H           2.3269    4.3182    0.3235 H       1  LIG1        0.1424
     23 H           1.3775    5.7106    0.2224 H       1  LIG1        0.1424
     24 C          -1.5768    5.6278    0.3225 C.ar    1  LIG1        0.0449
     25 C          -1.1475    6.8981   -0.0595 C.ar    1  LIG1        0.0606
     26 C          -2.0218    7.9613    0.3951 C.ar    1  LIG1        0.0479
     27 C          -3.1068    7.4814    1.0785 C.ar    1  LIG1       -0.0018
     28 S          -3.0642    5.7498    1.2360 S.2     1  LIG1       -0.0930
     29 H          -3.9205    8.0452    1.5115 H       1  LIG1        0.0712
     30 C          -0.0302    7.1699   -0.8883 C.1     1  LIG1       -0.0667
     31 C           0.9205    7.4533   -1.5883 C.1     1  LIG1       -0.1138
     32 H           1.7327    7.6788   -2.2401 H       1  LIG1        0.1232
     33 N          -1.7169    9.3005    0.1638 N.pl3   1  LIG1       -0.3566
     34 H          -1.1162    9.4478   -0.6379 H       1  LIG1        0.1424
     35 H          -2.5158    9.9196    0.1552 H       1  LIG1        0.1424
@<TRIPOS>BOND
     1    32    31    1
     2     6     1    1
     3     5     1   ar
     4     5     4   ar
     5    31    30    3
     6     1     2   ar
     7    30    25    1
     8    34    33    1
     9     4    13    1
    10     4     3   ar
    11     2     7    1
    12     2     3   ar
    13    20    19    1
    14    13    17   ar
    15    13    14   ar
    16    17    16   ar
    17    19    18    3
    18    18    14    1
    19    14    15   ar
    20    25    24   ar
    21    25    26   ar
    22     7     8    3
    23     3    10    1
    24    16    15   ar
    25    16    24    1
    26    15    21    1
    27    35    33    1
    28    33    26    1
    29    23    21    1
    30    24    28   ar
    31    22    21    1
    32     8     9    1
    33    26    27   ar
    34    10    12    1
    35    10    11    1
    36    27    28   ar
    37    27    29    1
