@<TRIPOS>MOLECULE
mol_data/opt/b3lyp/geoms/mol2/5eh5eh5eh-5eh.out
 46 49 0 0 0
SMALL
GASTEIGER

@<TRIPOS>ATOM
      1 C          -1.6193   -1.5155   -2.0764 C.ar    1  LIG1       -0.0065
      2 C          -0.9552   -1.8234   -0.9126 C.ar    1  LIG1        0.0529
      3 C          -0.4493   -0.6491   -0.2263 C.ar    1  LIG1        0.0556
      4 C          -0.7357    0.5249   -0.9161 C.ar    1  LIG1        0.0490
      5 S          -1.6361    0.1719   -2.3962 S.2     1  LIG1       -0.0930
      6 H          -2.0743   -2.2129   -2.7649 H       1  LIG1        0.0706
      7 C          -0.7694   -3.1371   -0.4033 C.1     1  LIG1       -0.0673
      8 C          -0.5795   -4.2361    0.0698 C.1     1  LIG1       -0.1138
      9 H          -0.4334   -5.2139    0.4672 H       1  LIG1        0.1232
     10 N           0.1381   -0.7580    1.0140 N.pl3   1  LIG1       -0.3561
     11 H           0.3878   -1.7040    1.2713 H       1  LIG1        0.1424
     12 H           0.8432   -0.0724    1.2491 H       1  LIG1        0.1424
     13 C          -0.4926    1.8992   -0.5393 C.ar    1  LIG1        0.0455
     14 C           0.6312    2.4743    0.0484 C.ar    1  LIG1        0.0612
     15 C           0.5012    3.8951    0.2972 C.ar    1  LIG1        0.0563
     16 C          -0.7113    4.4050   -0.1516 C.ar    1  LIG1        0.0496
     17 S          -1.7126    3.1141   -0.8245 S.2     1  LIG1       -0.0840
     18 C           1.8440    1.7952    0.3275 C.1     1  LIG1       -0.0666
     19 C           2.8979    1.2553    0.5958 C.1     1  LIG1       -0.1138
     20 H           3.8320    0.7752    0.7762 H       1  LIG1        0.1232
     21 N           1.4783    4.5807    0.9853 N.pl3   1  LIG1       -0.3561
     22 H           2.3527    4.0793    1.0705 H       1  LIG1        0.1424
     23 H           1.5966    5.5579    0.7525 H       1  LIG1        0.1424
     24 C          -1.2529    5.7390   -0.0392 C.ar    1  LIG1        0.0455
     25 C          -0.6284    6.9737   -0.2067 C.ar    1  LIG1        0.0612
     26 C          -1.5030    8.1076    0.0088 C.ar    1  LIG1        0.0563
     27 C          -2.8081    7.7273    0.2907 C.ar    1  LIG1        0.0496
     28 S          -2.9404    5.9678    0.3476 S.2     1  LIG1       -0.0840
     29 C           0.7116    7.1609   -0.6293 C.1     1  LIG1       -0.0666
     30 C           1.8553    7.3735   -0.9777 C.1     1  LIG1       -0.1138
     31 H           2.8450    7.5386   -1.3365 H       1  LIG1        0.1232
     32 N          -1.0065    9.3948   -0.0008 N.pl3   1  LIG1       -0.3561
     33 H          -0.0815    9.4744   -0.4026 H       1  LIG1        0.1424
     34 H          -1.6398   10.1178   -0.3166 H       1  LIG1        0.1424
     35 C          -3.9589    8.5406    0.6146 C.ar    1  LIG1        0.0449
     36 C          -4.3918    9.7395    0.0495 C.ar    1  LIG1        0.0606
     37 C          -5.5944   10.2641    0.6653 C.ar    1  LIG1        0.0479
     38 C          -6.0681    9.4447    1.6547 C.ar    1  LIG1       -0.0018
     39 S          -5.0442    8.0605    1.9004 S.2     1  LIG1       -0.0930
     40 H          -6.9505    9.5810    2.2633 H       1  LIG1        0.0712
     41 C          -3.8070   10.3720   -1.0761 C.1     1  LIG1       -0.0667
     42 C          -3.3366   10.9542   -2.0321 C.1     1  LIG1       -0.1138
     43 H          -2.9365   11.4259   -2.8997 H       1  LIG1        0.1232
     44 N          -6.1357   11.4873    0.2758 N.pl3   1  LIG1       -0.3566
     45 H          -5.8934   11.7555   -0.6700 H       1  LIG1        0.1424
     46 H          -7.1261   11.5850    0.4528 H       1  LIG1        0.1424
@<TRIPOS>BOND
     1    43    42    1
     2     6     1    1
     3     5     1   ar
     4     5     4   ar
     5     1     2   ar
     6    42    41    3
     7    31    30    1
     8    41    36    1
     9    30    29    3
    10     4    13    1
    11     4     3   ar
    12     2     7    1
    13     2     3   ar
    14    17    13   ar
    15    17    16   ar
    16    45    44    1
    17    29    25    1
    18    13    14   ar
    19     7     8    3
    20    33    32    1
    21    34    32    1
    22     3    10    1
    23    25    24   ar
    24    25    26   ar
    25    16    24    1
    26    16    15   ar
    27    24    28   ar
    28    32    26    1
    29    26    27   ar
    30    14    15   ar
    31    14    18    1
    32    36    35   ar
    33    36    37   ar
    34     8     9    1
    35    44    46    1
    36    44    37    1
    37    27    28   ar
    38    27    35    1
    39    15    21    1
    40    18    19    3
    41    19    20    1
    42    35    39   ar
    43    37    38   ar
    44    23    21    1
    45    21    22    1
    46    10    12    1
    47    10    11    1
    48    38    39   ar
    49    38    40    1
