@<TRIPOS>MOLECULE
mol_data/opt/b3lyp/geoms/mol2/5eh5eh.out
 24 25 0 0 0
SMALL
GASTEIGER

@<TRIPOS>ATOM
      1 C          -1.9892   -1.7866    0.7984 C.ar    1  LIG1       -0.0065
      2 C          -0.7701   -1.8791    0.1687 C.ar    1  LIG1        0.0529
      3 C          -0.2169   -0.5817   -0.1689 C.ar    1  LIG1        0.0556
      4 C          -1.0441    0.4632    0.2199 C.ar    1  LIG1        0.0489
      5 S          -2.4929   -0.1584    1.0177 S.2     1  LIG1       -0.0930
      6 H          -2.5984   -2.6068    1.1498 H       1  LIG1        0.0706
      7 C          -0.1104   -3.0950   -0.1567 C.1     1  LIG1       -0.0673
      8 C           0.4806   -4.1060   -0.4670 C.1     1  LIG1       -0.1138
      9 H           0.9887   -5.0088   -0.7156 H       1  LIG1        0.1232
     10 N           1.0023   -0.4823   -0.7994 N.pl3   1  LIG1       -0.3561
     11 H           1.2699   -1.2785   -1.3608 H       1  LIG1        0.1424
     12 H           1.2553    0.4179   -1.1767 H       1  LIG1        0.1424
     13 C          -0.8991    1.8859   -0.0116 C.ar    1  LIG1        0.0449
     14 C           0.2239    2.6997    0.1195 C.ar    1  LIG1        0.0606
     15 C          -0.0270    4.0827   -0.2392 C.ar    1  LIG1        0.0479
     16 C          -1.3240    4.2913   -0.6265 C.ar    1  LIG1       -0.0018
     17 S          -2.2600    2.8262   -0.5851 S.2     1  LIG1       -0.0930
     18 H          -1.7913    5.2264   -0.8999 H       1  LIG1        0.0712
     19 C           1.4888    2.2878    0.6129 C.1     1  LIG1       -0.0667
     20 C           2.5967    1.9895    1.0048 C.1     1  LIG1       -0.1138
     21 H           3.5447    1.6952    1.3916 H       1  LIG1        0.1232
     22 N           0.9587    5.0555   -0.0991 N.pl3   1  LIG1       -0.3566
     23 H           1.9006    4.6852   -0.0965 H       1  LIG1        0.1424
     24 H           0.8610    5.8559   -0.7077 H       1  LIG1        0.1424
@<TRIPOS>BOND
     1    11    10    1
     2    12    10    1
     3    18    16    1
     4    10     3    1
     5     9     8    1
     6    24    22    1
     7    16    17   ar
     8    16    15   ar
     9    17    13   ar
    10     8     7    3
    11    15    22    1
    12    15    14   ar
    13     3     2   ar
    14     3     4   ar
    15     7     2    1
    16    22    23    1
    17    13    14   ar
    18    13     4    1
    19    14    19    1
    20     2     1   ar
    21     4     5   ar
    22    19    20    3
    23     1     5   ar
    24     1     6    1
    25    20    21    1
