@<TRIPOS>MOLECULE
mol_data/opt/b3lyp/geoms/mol2/5eh5eh5eh.out
 35 37 0 0 0
SMALL
GASTEIGER

@<TRIPOS>ATOM
      1 C          -1.8529   -1.7221   -1.4092 C.ar    1  LIG1       -0.0065
      2 C          -0.8624   -1.9199   -0.4763 C.ar    1  LIG1        0.0529
      3 C          -0.2935   -0.6774    0.0119 C.ar    1  LIG1        0.0556
      4 C          -0.8690    0.4357   -0.5922 C.ar    1  LIG1        0.0490
      5 S          -2.1134   -0.0582   -1.7468 S.2     1  LIG1       -0.0930
      6 H          -2.4180   -2.4857   -1.9240 H       1  LIG1        0.0706
      7 C          -0.4207   -3.1888   -0.0130 C.1     1  LIG1       -0.0673
      8 C          -0.0046   -4.2453    0.4094 C.1     1  LIG1       -0.1138
      9 H           0.3372   -5.1880    0.7694 H       1  LIG1        0.1232
     10 N           0.6289   -0.6793    1.0349 N.pl3   1  LIG1       -0.3561
     11 H           1.0299   -1.5882    1.2260 H       1  LIG1        0.1424
     12 H           1.3063    0.0716    1.0398 H       1  LIG1        0.1424
     13 C          -0.6540    1.8417   -0.3316 C.ar    1  LIG1        0.0455
     14 C           0.5342    2.5320   -0.1063 C.ar    1  LIG1        0.0612
     15 C           0.3522    3.9471    0.1431 C.ar    1  LIG1        0.0563
     16 C          -0.9780    4.3352    0.0578 C.ar    1  LIG1        0.0496
     17 S          -2.0085    2.9405   -0.2748 S.2     1  LIG1       -0.0840
     18 C           1.8320    1.9657   -0.1778 C.1     1  LIG1       -0.0666
     19 C           2.9623    1.5241   -0.2161 C.1     1  LIG1       -0.1138
     20 H           3.9479    1.1287   -0.3048 H       1  LIG1        0.1232
     21 N           1.4197    4.7443    0.5011 N.pl3   1  LIG1       -0.3561
     22 H           2.3228    4.3219    0.3294 H       1  LIG1        0.1424
     23 H           1.3733    5.7130    0.2135 H       1  LIG1        0.1424
     24 C          -1.5814    5.6287    0.2901 C.ar    1  LIG1        0.0449
     25 C          -1.1507    6.8972   -0.0962 C.ar    1  LIG1        0.0606
     26 C          -2.0292    7.9621    0.3457 C.ar    1  LIG1        0.0479
     27 C          -3.1187    7.4851    1.0242 C.ar    1  LIG1       -0.0018
     28 S          -3.0755    5.7546    1.1922 S.2     1  LIG1       -0.0930
     29 H          -3.9364    8.0506    1.4474 H       1  LIG1        0.0712
     30 C          -0.0270    7.1652   -0.9177 C.1     1  LIG1       -0.0667
     31 C           0.9290    7.4457   -1.6115 C.1     1  LIG1       -0.1138
     32 H           1.7462    7.6681   -2.2581 H       1  LIG1        0.1232
     33 N          -1.7240    9.3003    0.1088 N.pl3   1  LIG1       -0.3566
     34 H          -1.1179    9.4435   -0.6895 H       1  LIG1        0.1424
     35 H          -2.5235    9.9185    0.0910 H       1  LIG1        0.1424
@<TRIPOS>BOND
     1    32    31    1
     2     6     1    1
     3     5     1   ar
     4     5     4   ar
     5    31    30    3
     6     1     2   ar
     7    30    25    1
     8    34    33    1
     9     4    13    1
    10     4     3   ar
    11     2     7    1
    12     2     3   ar
    13    13    17   ar
    14    13    14   ar
    15    20    19    1
    16    17    16   ar
    17    19    18    3
    18    18    14    1
    19    14    15   ar
    20    25    24   ar
    21    25    26   ar
    22     7     8    3
    23     3    10    1
    24    16    15   ar
    25    16    24    1
    26    35    33    1
    27    33    26    1
    28    15    21    1
    29    23    21    1
    30    24    28   ar
    31    22    21    1
    32    26    27   ar
    33     8     9    1
    34    27    28   ar
    35    27    29    1
    36    10    12    1
    37    10    11    1
