@<TRIPOS>MOLECULE
mol_data/opt/b3lyp/geoms/mol2/5ei.out
 14 14 0 0 0
SMALL
GASTEIGER

@<TRIPOS>ATOM
      1 C          -2.1624   -1.7295   -0.0075 C.ar    1  LIG1       -0.0087
      2 C          -0.7857   -1.7012   -0.0163 C.ar    1  LIG1        0.0346
      3 C          -0.2558   -0.3525    0.0262 C.ar    1  LIG1       -0.0281
      4 C          -1.2560    0.5764    0.0649 C.ar    1  LIG1       -0.0202
      5 S          -2.8385   -0.1427    0.0514 S.2     1  LIG1       -0.1036
      6 H          -2.7990   -2.6018   -0.0328 H       1  LIG1        0.0706
      7 H          -1.1550    1.6525    0.1010 H       1  LIG1        0.0696
      8 C           0.0320   -2.8658   -0.0617 C.1     1  LIG1       -0.0689
      9 C           0.7457   -3.8429   -0.1001 C.1     1  LIG1       -0.1139
     10 H           1.3647   -4.7091   -0.1329 H       1  LIG1        0.1232
     11 C           1.2139   -0.0435    0.0260 C.3     1  LIG1       -0.0380
     12 H           1.3911    1.0342    0.0630 H       1  LIG1        0.0278
     13 H           1.7000   -0.4402   -0.8721 H       1  LIG1        0.0278
     14 H           1.7134   -0.5027    0.8862 H       1  LIG1        0.0278
@<TRIPOS>BOND
     1    13    11    1
     2    10     9    1
     3     9     8    3
     4     8     2    1
     5     6     1    1
     6     2     1   ar
     7     2     3   ar
     8     1     5   ar
     9    11     3    1
    10    11    12    1
    11    11    14    1
    12     3     4   ar
    13     5     4   ar
    14     4     7    1
