@<TRIPOS>MOLECULE
mol_data/opt/b3lyp/geoms/mol2/5ei5ei.out
 26 27 0 0 0
SMALL
GASTEIGER

@<TRIPOS>ATOM
      1 C          -1.9192   -1.7527   -0.9691 C.ar    1  LIG1       -0.0081
      2 C          -0.7358   -1.8689   -0.2744 C.ar    1  LIG1        0.0352
      3 C          -0.2271   -0.5976    0.1917 C.ar    1  LIG1       -0.0198
      4 C          -1.0417    0.4498   -0.1812 C.ar    1  LIG1        0.0312
      5 S          -2.4383   -0.1170   -1.0917 S.2     1  LIG1       -0.0946
      6 H          -2.4995   -2.5523   -1.4066 H       1  LIG1        0.0706
      7 C          -0.0920   -3.1136   -0.0219 C.1     1  LIG1       -0.0688
      8 C           0.4649   -4.1650    0.2010 C.1     1  LIG1       -0.1139
      9 H           0.9492   -5.0944    0.3919 H       1  LIG1        0.1232
     10 C           1.0204   -0.4815    1.0178 C.3     1  LIG1       -0.0374
     11 H           1.0380    0.4559    1.5773 H       1  LIG1        0.0278
     12 H           1.9158   -0.5034    0.3871 H       1  LIG1        0.0278
     13 H           1.0904   -1.3171    1.7202 H       1  LIG1        0.0278
     14 C          -0.8832    1.8739    0.0829 C.ar    1  LIG1        0.0418
     15 C           0.2082    2.6937   -0.1775 C.ar    1  LIG1        0.0428
     16 C           0.0017    4.0681    0.2256 C.ar    1  LIG1       -0.0274
     17 C          -1.2389    4.2555    0.7637 C.ar    1  LIG1       -0.0196
     18 S          -2.1745    2.7965    0.8185 S.2     1  LIG1       -0.0946
     19 H          -1.6608    5.1793    1.1356 H       1  LIG1        0.0696
     20 C           1.3950    2.2635   -0.8320 C.1     1  LIG1       -0.0682
     21 C           2.4180    1.9413   -1.3945 C.1     1  LIG1       -0.1139
     22 H           3.3074    1.6473   -1.9018 H       1  LIG1        0.1232
     23 C           1.0355    5.1425    0.0446 C.3     1  LIG1       -0.0380
     24 H           0.6672    6.1070    0.4023 H       1  LIG1        0.0278
     25 H           1.3120    5.2496   -1.0098 H       1  LIG1        0.0278
     26 H           1.9542    4.9021    0.5908 H       1  LIG1        0.0278
@<TRIPOS>BOND
     1    22    21    1
     2     6     1    1
     3    21    20    3
     4     5     1   ar
     5     5     4   ar
     6    25    23    1
     7     1     2   ar
     8    20    15    1
     9     2     7    1
    10     2     3   ar
    11     4    14    1
    12     4     3   ar
    13    15    14   ar
    14    15    16   ar
    15     7     8    3
    16    23    16    1
    17    23    24    1
    18    23    26    1
    19    14    18   ar
    20     3    10    1
    21     8     9    1
    22    16    17   ar
    23    12    10    1
    24    17    18   ar
    25    17    19    1
    26    10    11    1
    27    10    13    1
