@<TRIPOS>MOLECULE
mol_data/opt/b3lyp/geoms/mol2/5ei5ei5ei5ei.out
 50 53 0 0 0
SMALL
GASTEIGER

@<TRIPOS>ATOM
      1 C          -1.0636   -1.3573   -2.5011 C.ar    1  LIG1       -0.0081
      2 C          -0.7423   -1.7122   -1.2098 C.ar    1  LIG1        0.0352
      3 C          -0.4715   -0.5725   -0.3614 C.ar    1  LIG1       -0.0198
      4 C          -0.5838    0.6173   -1.0486 C.ar    1  LIG1        0.0312
      5 S          -1.0343    0.3475   -2.7295 S.2     1  LIG1       -0.0946
      6 H          -1.3144   -2.0208   -3.3163 H       1  LIG1        0.0706
      7 C          -0.7026   -3.0599   -0.7520 C.1     1  LIG1       -0.0688
      8 C          -0.6665   -4.2008   -0.3493 C.1     1  LIG1       -0.1139
      9 H          -0.6362   -5.2077   -0.0029 H       1  LIG1        0.1232
     10 C          -0.1545   -0.7121    1.0988 C.3     1  LIG1       -0.0374
     11 H          -0.3450    0.2185    1.6368 H       1  LIG1        0.0278
     12 H           0.8993   -0.9692    1.2517 H       1  LIG1        0.0278
     13 H          -0.7569   -1.5096    1.5433 H       1  LIG1        0.0278
     14 C          -0.3896    1.9781   -0.5656 C.ar    1  LIG1        0.0424
     15 C           0.7058    2.5208    0.0955 C.ar    1  LIG1        0.0435
     16 C           0.5480    3.9155    0.4341 C.ar    1  LIG1       -0.0191
     17 C          -0.6552    4.4237   -0.0055 C.ar    1  LIG1        0.0318
     18 S          -1.6201    3.1902   -0.8021 S.2     1  LIG1       -0.0856
     19 C           1.8986    1.8004    0.3811 C.1     1  LIG1       -0.0682
     20 C           2.9322    1.2219    0.6327 C.1     1  LIG1       -0.1139
     21 H           3.8422    0.7066    0.8361 H       1  LIG1        0.1232
     22 C           1.5887    4.6787    1.2002 C.3     1  LIG1       -0.0374
     23 H           1.1680    5.5824    1.6449 H       1  LIG1        0.0278
     24 H           2.4135    4.9862    0.5483 H       1  LIG1        0.0278
     25 H           2.0105    4.0547    1.9934 H       1  LIG1        0.0278
     26 C          -1.1785    5.7777    0.1178 C.ar    1  LIG1        0.0424
     27 C          -0.5888    6.9775   -0.2626 C.ar    1  LIG1        0.0435
     28 C          -1.4012    8.1380    0.0159 C.ar    1  LIG1       -0.0191
     29 C          -2.6144    7.8008    0.5758 C.ar    1  LIG1        0.0318
     30 S          -2.7581    6.0643    0.7981 S.2     1  LIG1       -0.0856
     31 C           0.6750    7.0715   -0.9084 C.1     1  LIG1       -0.0682
     32 C           1.7428    7.1885   -1.4673 C.1     1  LIG1       -0.1139
     33 H           2.6769    7.2780   -1.9719 H       1  LIG1        0.1232
     34 C          -0.9320    9.5353   -0.2668 C.3     1  LIG1       -0.0374
     35 H          -1.4953   10.2658    0.3170 H       1  LIG1        0.0278
     36 H          -1.0622    9.7896   -1.3243 H       1  LIG1        0.0278
     37 H           0.1315    9.6351   -0.0317 H       1  LIG1        0.0278
     38 C          -3.7102    8.6719    0.9797 C.ar    1  LIG1        0.0418
     39 C          -4.3784    9.6349    0.2331 C.ar    1  LIG1        0.0428
     40 C          -5.4258   10.3067    0.9714 C.ar    1  LIG1       -0.0274
     41 C          -5.5323    9.8273    2.2453 C.ar    1  LIG1       -0.0196
     42 S          -4.3775    8.5823    2.5940 S.2     1  LIG1       -0.0946
     43 H          -6.2328   10.1395    3.0079 H       1  LIG1        0.0696
     44 C          -4.1211    9.9054   -1.1390 C.1     1  LIG1       -0.0682
     45 C          -3.9406   10.1599   -2.3091 C.1     1  LIG1       -0.1139
     46 H          -3.7808   10.3642   -3.3425 H       1  LIG1        0.1232
     47 C          -6.2895   11.3831    0.3787 C.3     1  LIG1       -0.0380
     48 H          -7.0233   11.7427    1.1042 H       1  LIG1        0.0278
     49 H          -6.8282   11.0159   -0.5015 H       1  LIG1        0.0278
     50 H          -5.6866   12.2362    0.0489 H       1  LIG1        0.0278
@<TRIPOS>BOND
     1    46    45    1
     2     6     1    1
     3     5     1   ar
     4     5     4   ar
     5     1     2   ar
     6    45    44    3
     7    33    32    1
     8    32    31    3
     9    36    34    1
    10     2     7    1
    11     2     3   ar
    12    44    39    1
    13     4    14    1
    14     4     3   ar
    15    31    27    1
    16    18    14   ar
    17    18    17   ar
    18     7     8    3
    19    14    15   ar
    20    49    47    1
    21     3    10    1
    22     8     9    1
    23    34    37    1
    24    34    28    1
    25    34    35    1
    26    27    28   ar
    27    27    26   ar
    28    17    26    1
    29    17    16   ar
    30    28    29   ar
    31    50    47    1
    32    15    19    1
    33    15    16   ar
    34    26    30   ar
    35    39    40   ar
    36    39    38   ar
    37    47    40    1
    38    47    48    1
    39    19    20    3
    40    16    22    1
    41    24    22    1
    42    29    30   ar
    43    29    38    1
    44    20    21    1
    45    40    41   ar
    46    38    42   ar
    47    10    12    1
    48    10    13    1
    49    10    11    1
    50    22    23    1
    51    22    25    1
    52    41    42   ar
    53    41    43    1
