@<TRIPOS>MOLECULE
mol_data/opt/b3lyp/geoms/mol2/5ei5ei-.out
 26 27 0 0 0
SMALL
GASTEIGER

@<TRIPOS>ATOM
      1 C          -1.9295   -1.7541   -0.9550 C.ar    1  LIG1       -0.0081
      2 C          -0.7395   -1.8692   -0.2714 C.ar    1  LIG1        0.0352
      3 C          -0.2259   -0.5971    0.1870 C.ar    1  LIG1       -0.0198
      4 C          -1.0436    0.4499   -0.1807 C.ar    1  LIG1        0.0312
      5 S          -2.4491   -0.1185   -1.0765 S.2     1  LIG1       -0.0946
      6 H          -2.5143   -2.5545   -1.3850 H       1  LIG1        0.0706
      7 C          -0.0941   -3.1138   -0.0223 C.1     1  LIG1       -0.0688
      8 C           0.4641   -4.1651    0.1977 C.1     1  LIG1       -0.1139
      9 H           0.9497   -5.0944    0.3859 H       1  LIG1        0.1232
     10 C           1.0296   -0.4793    1.0007 C.3     1  LIG1       -0.0374
     11 H           1.0494    0.4561    1.5635 H       1  LIG1        0.0278
     12 H           1.9186   -0.4950    0.3607 H       1  LIG1        0.0278
     13 H           1.1100   -1.3172    1.6991 H       1  LIG1        0.0278
     14 C          -0.8823    1.8742    0.0793 C.ar    1  LIG1        0.0418
     15 C           0.2072    2.6932   -0.1917 C.ar    1  LIG1        0.0428
     16 C           0.0047    4.0683    0.2109 C.ar    1  LIG1       -0.0274
     17 C          -1.2311    4.2571    0.7593 C.ar    1  LIG1       -0.0196
     18 S          -2.1668    2.7987    0.8244 S.2     1  LIG1       -0.0946
     19 H          -1.6493    5.1818    1.1332 H       1  LIG1        0.0696
     20 C           1.3880    2.2615   -0.8561 C.1     1  LIG1       -0.0682
     21 C           2.4057    1.9382   -1.4274 C.1     1  LIG1       -0.1139
     22 H           3.2905    1.6432   -1.9423 H       1  LIG1        0.1232
     23 C           1.0376    5.1419    0.0198 C.3     1  LIG1       -0.0380
     24 H           0.6709    6.1081    0.3748 H       1  LIG1        0.0278
     25 H           1.3090    5.2440   -1.0365 H       1  LIG1        0.0278
     26 H           1.9590    4.9041    0.5627 H       1  LIG1        0.0278
@<TRIPOS>BOND
     1    22    21    1
     2    21    20    3
     3     6     1    1
     4     5     1   ar
     5     5     4   ar
     6    25    23    1
     7     1     2   ar
     8    20    15    1
     9     2     7    1
    10     2     3   ar
    11    15    14   ar
    12    15    16   ar
    13     4    14    1
    14     4     3   ar
    15     7     8    3
    16    23    16    1
    17    23    24    1
    18    23    26    1
    19    14    18   ar
    20     3    10    1
    21     8     9    1
    22    16    17   ar
    23    12    10    1
    24    17    18   ar
    25    17    19    1
    26    10    11    1
    27    10    13    1
