@<TRIPOS>MOLECULE
mol_data/opt/b3lyp/geoms/mol2/5ei5ei5ei-.out
 38 40 0 0 0
SMALL
GASTEIGER

@<TRIPOS>ATOM
      1 C          -1.5251   -1.6179   -1.7824 C.ar    1  LIG1       -0.0081
      2 C          -0.7298   -1.8631   -0.6850 C.ar    1  LIG1        0.0352
      3 C          -0.2985   -0.6542   -0.0186 C.ar    1  LIG1       -0.0198
      4 C          -0.7738    0.4766   -0.6474 C.ar    1  LIG1        0.0312
      5 S          -1.7605    0.0655   -2.0469 S.2     1  LIG1       -0.0946
      6 H          -1.9769   -2.3497   -2.4366 H       1  LIG1        0.0706
      7 C          -0.3864   -3.1714   -0.2401 C.1     1  LIG1       -0.0688
      8 C          -0.0881   -4.2778    0.1500 C.1     1  LIG1       -0.1139
      9 H           0.1709   -5.2549    0.4860 H       1  LIG1        0.1232
     10 C           0.5297   -0.6748    1.2327 C.3     1  LIG1       -0.0374
     11 H           0.4396    0.2640    1.7828 H       1  LIG1        0.0278
     12 H           1.5909   -0.8191    1.0021 H       1  LIG1        0.0278
     13 H           0.2176   -1.4985    1.8812 H       1  LIG1        0.0278
     14 C          -0.5685    1.8759   -0.2974 C.ar    1  LIG1        0.0424
     15 C           0.6248    2.5578   -0.0918 C.ar    1  LIG1        0.0435
     16 C           0.4474    3.9484    0.2544 C.ar    1  LIG1       -0.0191
     17 C          -0.8812    4.3131    0.2757 C.ar    1  LIG1        0.0318
     18 S          -1.9264    2.9504   -0.0931 S.2     1  LIG1       -0.0856
     19 C           1.9113    1.9708   -0.2458 C.1     1  LIG1       -0.0682
     20 C           3.0222    1.5069   -0.3761 C.1     1  LIG1       -0.1139
     21 H           3.9945    1.0918   -0.5082 H       1  LIG1        0.1232
     22 C           1.6029    4.8529    0.5697 C.3     1  LIG1       -0.0374
     23 H           1.2765    5.7244    1.1407 H       1  LIG1        0.0278
     24 H           2.0791    5.2201   -0.3459 H       1  LIG1        0.0278
     25 H           2.3624    4.3148    1.1439 H       1  LIG1        0.0278
     26 C          -1.4689    5.6160    0.5585 C.ar    1  LIG1        0.0418
     27 C          -1.1931    6.8438   -0.0312 C.ar    1  LIG1        0.0428
     28 C          -1.9844    7.9286    0.5078 C.ar    1  LIG1       -0.0274
     29 C          -2.8438    7.4939    1.4756 C.ar    1  LIG1       -0.0196
     30 S          -2.7138    5.7912    1.7746 S.2     1  LIG1       -0.0946
     31 H          -3.5549    8.0855    2.0361 H       1  LIG1        0.0696
     32 C          -0.2776    7.0290   -1.1033 C.1     1  LIG1       -0.0682
     33 C           0.4847    7.2282   -2.0230 C.1     1  LIG1       -0.1139
     34 H           1.1485    7.3871   -2.8410 H       1  LIG1        0.1232
     35 C          -1.8699    9.3474    0.0287 C.3     1  LIG1       -0.0380
     36 H          -2.5671    9.9996    0.5603 H       1  LIG1        0.0278
     37 H          -2.0818    9.4190   -1.0436 H       1  LIG1        0.0278
     38 H          -0.8561    9.7343    0.1785 H       1  LIG1        0.0278
@<TRIPOS>BOND
     1    34    33    1
     2     6     1    1
     3     5     1   ar
     4     5     4   ar
     5    33    32    3
     6     1     2   ar
     7    32    27    1
     8    37    35    1
     9     2     7    1
    10     2     3   ar
    11     4    14    1
    12     4     3   ar
    13    21    20    1
    14    20    19    3
    15    24    22    1
    16    14    18   ar
    17    14    15   ar
    18    19    15    1
    19     7     8    3
    20    18    17   ar
    21    15    16   ar
    22    27    28   ar
    23    27    26   ar
    24     3    10    1
    25    35    38    1
    26    35    28    1
    27    35    36    1
    28     8     9    1
    29    16    17   ar
    30    16    22    1
    31    17    26    1
    32    28    29   ar
    33    26    30   ar
    34    22    23    1
    35    22    25    1
    36    12    10    1
    37    10    11    1
    38    10    13    1
    39    29    30   ar
    40    29    31    1
