@<TRIPOS>MOLECULE
mol_data/opt/b3lyp/geoms/mol2/5ei5ei5ei-5ei.out
 50 53 0 0 0
SMALL
GASTEIGER

@<TRIPOS>ATOM
      1 C          -1.0360   -1.3475   -2.5244 C.ar    1  LIG1       -0.0081
      2 C          -0.7231   -1.7067   -1.2321 C.ar    1  LIG1        0.0352
      3 C          -0.4599   -0.5697   -0.3777 C.ar    1  LIG1       -0.0198
      4 C          -0.5694    0.6224   -1.0612 C.ar    1  LIG1        0.0312
      5 S          -1.0078    0.3581   -2.7463 S.2     1  LIG1       -0.0946
      6 H          -1.2801   -2.0084   -3.3437 H       1  LIG1        0.0706
      7 C          -0.6844   -3.0560   -0.7791 C.1     1  LIG1       -0.0688
      8 C          -0.6494   -4.1983   -0.3802 C.1     1  LIG1       -0.1139
      9 H          -0.6197   -5.2065   -0.0374 H       1  LIG1        0.1232
     10 C          -0.1530   -0.7143    1.0841 C.3     1  LIG1       -0.0374
     11 H          -0.3487    0.2140    1.6242 H       1  LIG1        0.0278
     12 H           0.9001   -0.9705    1.2435 H       1  LIG1        0.0278
     13 H          -0.7574   -1.5143    1.5214 H       1  LIG1        0.0278
     14 C          -0.3806    1.9817   -0.5720 C.ar    1  LIG1        0.0424
     15 C           0.7090    2.5237    0.0992 C.ar    1  LIG1        0.0435
     16 C           0.5466    3.9169    0.4416 C.ar    1  LIG1       -0.0191
     17 C          -0.6541    4.4249   -0.0050 C.ar    1  LIG1        0.0318
     18 S          -1.6112    3.1929   -0.8132 S.2     1  LIG1       -0.0856
     19 C           1.9008    1.8042    0.3909 C.1     1  LIG1       -0.0682
     20 C           2.9335    1.2265    0.6482 C.1     1  LIG1       -0.1139
     21 H           3.8429    0.7121    0.8567 H       1  LIG1        0.1232
     22 C           1.5805    4.6789    1.2179 C.3     1  LIG1       -0.0374
     23 H           1.1551    5.5802    1.6631 H       1  LIG1        0.0278
     24 H           2.4093    4.9903    0.5730 H       1  LIG1        0.0278
     25 H           1.9978    4.0527    2.0118 H       1  LIG1        0.0278
     26 C          -1.1804    5.7777    0.1192 C.ar    1  LIG1        0.0424
     27 C          -0.5900    6.9798   -0.2529 C.ar    1  LIG1        0.0435
     28 C          -1.4063    8.1380    0.0237 C.ar    1  LIG1       -0.0191
     29 C          -2.6230    7.7968    0.5737 C.ar    1  LIG1        0.0318
     30 S          -2.7653    6.0594    0.7891 S.2     1  LIG1       -0.0856
     31 C           0.6783    7.0782   -0.8891 C.1     1  LIG1       -0.0682
     32 C           1.7500    7.1992   -1.4398 C.1     1  LIG1       -0.1139
     33 H           2.6875    7.2920   -1.9373 H       1  LIG1        0.1232
     34 C          -0.9376    9.5371   -0.2510 C.3     1  LIG1       -0.0374
     35 H          -1.5065   10.2646    0.3312 H       1  LIG1        0.0278
     36 H          -1.0606    9.7946   -1.3085 H       1  LIG1        0.0278
     37 H           0.1240    9.6380   -0.0079 H       1  LIG1        0.0278
     38 C          -3.7232    8.6648    0.9724 C.ar    1  LIG1        0.0418
     39 C          -4.3878    9.6288    0.2240 C.ar    1  LIG1        0.0428
     40 C          -5.4415   10.2967    0.9568 C.ar    1  LIG1       -0.0274
     41 C          -5.5562    9.8133    2.2286 C.ar    1  LIG1       -0.0196
     42 S          -4.4017    8.5692    2.5816 S.2     1  LIG1       -0.0946
     43 H          -6.2625   10.1220    2.9871 H       1  LIG1        0.0696
     44 C          -4.1212    9.9039   -1.1454 C.1     1  LIG1       -0.0682
     45 C          -3.9327   10.1623   -2.3134 C.1     1  LIG1       -0.1139
     46 H          -3.7660   10.3701   -3.3450 H       1  LIG1        0.1232
     47 C          -6.3029   11.3734    0.3613 C.3     1  LIG1       -0.0380
     48 H          -7.0424   11.7295    1.0826 H       1  LIG1        0.0278
     49 H          -6.8346   11.0079   -0.5238 H       1  LIG1        0.0278
     50 H          -5.6990   12.2285    0.0385 H       1  LIG1        0.0278
@<TRIPOS>BOND
     1    46    45    1
     2     6     1    1
     3     5     1   ar
     4     5     4   ar
     5     1     2   ar
     6    45    44    3
     7    33    32    1
     8    32    31    3
     9    36    34    1
    10     2     7    1
    11     2     3   ar
    12    44    39    1
    13     4    14    1
    14     4     3   ar
    15    31    27    1
    16    18    14   ar
    17    18    17   ar
    18     7     8    3
    19    14    15   ar
    20    49    47    1
    21     8     9    1
    22     3    10    1
    23    27    28   ar
    24    27    26   ar
    25    34    37    1
    26    34    28    1
    27    34    35    1
    28    17    26    1
    29    17    16   ar
    30    28    29   ar
    31    50    47    1
    32    15    19    1
    33    15    16   ar
    34    26    30   ar
    35    39    40   ar
    36    39    38   ar
    37    47    40    1
    38    47    48    1
    39    19    20    3
    40    16    22    1
    41    24    22    1
    42    29    30   ar
    43    29    38    1
    44    20    21    1
    45    40    41   ar
    46    38    42   ar
    47    10    12    1
    48    10    13    1
    49    10    11    1
    50    22    23    1
    51    22    25    1
    52    41    42   ar
    53    41    43    1
