@<TRIPOS>MOLECULE
mol_data/opt/b3lyp/geoms/mol2/5ei5ei-5ei.out
 38 40 0 0 0
SMALL
GASTEIGER

@<TRIPOS>ATOM
      1 C          -1.5444   -1.6234   -1.7579 C.ar    1  LIG1       -0.0081
      2 C          -0.7327   -1.8652   -0.6719 C.ar    1  LIG1        0.0352
      3 C          -0.2934   -0.6542   -0.0144 C.ar    1  LIG1       -0.0198
      4 C          -0.7795    0.4746   -0.6386 C.ar    1  LIG1        0.0312
      5 S          -1.7861    0.0591   -2.0225 S.2     1  LIG1       -0.0946
      6 H          -2.0046   -2.3572   -2.4039 H       1  LIG1        0.0706
      7 C          -0.3808   -3.1719   -0.2293 C.1     1  LIG1       -0.0688
      8 C          -0.0750   -4.2770    0.1587 C.1     1  LIG1       -0.1139
      9 H           0.1904   -5.2531    0.4930 H       1  LIG1        0.1232
     10 C           0.5532   -0.6708    1.2246 C.3     1  LIG1       -0.0374
     11 H           0.4695    0.2688    1.7742 H       1  LIG1        0.0278
     12 H           1.6111   -0.8137    0.9787 H       1  LIG1        0.0278
     13 H           0.2521   -1.4938    1.8792 H       1  LIG1        0.0278
     14 C          -0.5712    1.8749   -0.2943 C.ar    1  LIG1        0.0424
     15 C           0.6241    2.5587   -0.1077 C.ar    1  LIG1        0.0435
     16 C           0.4500    3.9497    0.2387 C.ar    1  LIG1       -0.0191
     17 C          -0.8787    4.3127    0.2790 C.ar    1  LIG1        0.0318
     18 S          -1.9274    2.9480   -0.0719 S.2     1  LIG1       -0.0856
     19 C           1.9089    1.9730   -0.2798 C.1     1  LIG1       -0.0682
     20 C           3.0183    1.5100   -0.4258 C.1     1  LIG1       -0.1139
     21 H           3.9889    1.0957   -0.5717 H       1  LIG1        0.1232
     22 C           1.6088    4.8564    0.5352 C.3     1  LIG1       -0.0374
     23 H           1.2899    5.7281    1.1100 H       1  LIG1        0.0278
     24 H           2.0704    5.2231   -0.3880 H       1  LIG1        0.0278
     25 H           2.3778    4.3202    1.0985 H       1  LIG1        0.0278
     26 C          -1.4640    5.6153    0.5683 C.ar    1  LIG1        0.0418
     27 C          -1.1986    6.8425   -0.0273 C.ar    1  LIG1        0.0428
     28 C          -1.9836    7.9271    0.5215 C.ar    1  LIG1       -0.0274
     29 C          -2.8281    7.4927    1.5024 C.ar    1  LIG1       -0.0196
     30 S          -2.6913    5.7906    1.8021 S.2     1  LIG1       -0.0946
     31 H          -3.5318    8.0841    2.0723 H       1  LIG1        0.0696
     32 C          -0.2993    7.0275   -1.1130 C.1     1  LIG1       -0.0682
     33 C           0.4492    7.2265   -2.0441 C.1     1  LIG1       -0.1139
     34 H           1.1008    7.3852   -2.8719 H       1  LIG1        0.1232
     35 C          -1.8782    9.3453    0.0385 C.3     1  LIG1       -0.0380
     36 H          -2.5686    9.9973    0.5792 H       1  LIG1        0.0278
     37 H          -2.1059    9.4149   -1.0307 H       1  LIG1        0.0278
     38 H          -0.8629    9.7339    0.1729 H       1  LIG1        0.0278
@<TRIPOS>BOND
     1    34    33    1
     2     6     1    1
     3    33    32    3
     4     5     1   ar
     5     5     4   ar
     6     1     2   ar
     7    32    27    1
     8    37    35    1
     9     2     7    1
    10     2     3   ar
    11     4    14    1
    12     4     3   ar
    13    21    20    1
    14    20    19    3
    15    24    22    1
    16    14    15   ar
    17    14    18   ar
    18    19    15    1
    19     7     8    3
    20    15    16   ar
    21    18    17   ar
    22    27    28   ar
    23    27    26   ar
    24     3    10    1
    25    35    38    1
    26    35    28    1
    27    35    36    1
    28     8     9    1
    29    16    17   ar
    30    16    22    1
    31    17    26    1
    32    28    29   ar
    33    22    25    1
    34    22    23    1
    35    26    30   ar
    36    12    10    1
    37    10    11    1
    38    10    13    1
    39    29    30   ar
    40    29    31    1
