@<TRIPOS>MOLECULE
mol_data/opt/b3lyp/geoms/mol2/5ei5ei-5ei-.out
 38 40 0 0 0
SMALL
GASTEIGER

@<TRIPOS>ATOM
      1 C          -1.5587   -1.6134   -1.7671 C.ar    1  LIG1       -0.0081
      2 C          -0.7472   -1.8614   -0.6824 C.ar    1  LIG1        0.0352
      3 C          -0.3041   -0.6541   -0.0207 C.ar    1  LIG1       -0.0198
      4 C          -0.7874    0.4784   -0.6405 C.ar    1  LIG1        0.0312
      5 S          -1.7959    0.0707   -2.0255 S.2     1  LIG1       -0.0946
      6 H          -2.0214   -2.3436   -2.4155 H       1  LIG1        0.0706
      7 C          -0.3987   -3.1708   -0.2447 C.1     1  LIG1       -0.0688
      8 C          -0.0959   -4.2781    0.1391 C.1     1  LIG1       -0.1139
      9 H           0.1669   -5.2561    0.4698 H       1  LIG1        0.1232
     10 C           0.5430   -0.6776    1.2179 C.3     1  LIG1       -0.0374
     11 H           0.4623    0.2604    1.7707 H       1  LIG1        0.0278
     12 H           1.6003   -0.8227    0.9709 H       1  LIG1        0.0278
     13 H           0.2397   -1.5019    1.8697 H       1  LIG1        0.0278
     14 C          -0.5750    1.8768   -0.2914 C.ar    1  LIG1        0.0424
     15 C           0.6224    2.5566   -0.1029 C.ar    1  LIG1        0.0435
     16 C           0.4524    3.9468    0.2484 C.ar    1  LIG1       -0.0191
     17 C          -0.8752    4.3134    0.2908 C.ar    1  LIG1        0.0318
     18 S          -1.9280    2.9528   -0.0644 S.2     1  LIG1       -0.0856
     19 C           1.9054    1.9679   -0.2778 C.1     1  LIG1       -0.0682
     20 C           3.0134    1.5023   -0.4261 C.1     1  LIG1       -0.1139
     21 H           3.9828    1.0858   -0.5739 H       1  LIG1        0.1232
     22 C           1.6139    4.8492    0.5475 C.3     1  LIG1       -0.0374
     23 H           1.2977    5.7198    1.1255 H       1  LIG1        0.0278
     24 H           2.0760    5.2178   -0.3747 H       1  LIG1        0.0278
     25 H           2.3816    4.3088    1.1085 H       1  LIG1        0.0278
     26 C          -1.4568    5.6165    0.5848 C.ar    1  LIG1        0.0418
     27 C          -1.1885    6.8452   -0.0066 C.ar    1  LIG1        0.0428
     28 C          -1.9703    7.9299    0.5464 C.ar    1  LIG1       -0.0274
     29 C          -2.8154    7.4943    1.5262 C.ar    1  LIG1       -0.0196
     30 S          -2.6829    5.7908    1.8200 S.2     1  LIG1       -0.0946
     31 H          -3.5172    8.0856    2.0986 H       1  LIG1        0.0696
     32 C          -0.2892    7.0316   -1.0921 C.1     1  LIG1       -0.0682
     33 C           0.4593    7.2319   -2.0228 C.1     1  LIG1       -0.1139
     34 H           1.1109    7.3917   -2.8505 H       1  LIG1        0.1232
     35 C          -1.8613    9.3495    0.0683 C.3     1  LIG1       -0.0380
     36 H          -2.5497   10.0014    0.6116 H       1  LIG1        0.0278
     37 H          -2.0892    9.4234   -1.0005 H       1  LIG1        0.0278
     38 H          -0.8449    9.7350    0.2037 H       1  LIG1        0.0278
@<TRIPOS>BOND
     1    34    33    1
     2     6     1    1
     3     5     1   ar
     4     5     4   ar
     5    33    32    3
     6     1     2   ar
     7    32    27    1
     8    37    35    1
     9     2     7    1
    10     2     3   ar
    11     4    14    1
    12     4     3   ar
    13    21    20    1
    14    20    19    3
    15    24    22    1
    16    14    15   ar
    17    14    18   ar
    18    19    15    1
    19     7     8    3
    20    15    16   ar
    21    18    17   ar
    22     3    10    1
    23    27    28   ar
    24    27    26   ar
    25    35    38    1
    26    35    28    1
    27    35    36    1
    28     8     9    1
    29    16    17   ar
    30    16    22    1
    31    17    26    1
    32    28    29   ar
    33    22    25    1
    34    22    23    1
    35    26    30   ar
    36    12    10    1
    37    10    11    1
    38    10    13    1
    39    29    30   ar
    40    29    31    1
