@<TRIPOS>MOLECULE
mol_data/opt/b3lyp/geoms/mol2/5ei5ei5ei5ei-.out
 50 53 0 0 0
SMALL
GASTEIGER

@<TRIPOS>ATOM
      1 C          -1.0556   -1.3627   -2.4924 C.ar    1  LIG1       -0.0081
      2 C          -0.7343   -1.7143   -1.2001 C.ar    1  LIG1        0.0352
      3 C          -0.4651   -0.5723   -0.3542 C.ar    1  LIG1       -0.0198
      4 C          -0.5786    0.6158   -1.0442 C.ar    1  LIG1        0.0312
      5 S          -1.0283    0.3415   -2.7246 S.2     1  LIG1       -0.0946
      6 H          -1.3053   -2.0284   -3.3060 H       1  LIG1        0.0706
      7 C          -0.6931   -3.0609   -0.7392 C.1     1  LIG1       -0.0688
      8 C          -0.6558   -4.2008   -0.3338 C.1     1  LIG1       -0.1139
      9 H          -0.6244   -5.2070    0.0147 H       1  LIG1        0.1232
     10 C          -0.1484   -0.7083    1.1064 C.3     1  LIG1       -0.0374
     11 H          -0.3401    0.2234    1.6422 H       1  LIG1        0.0278
     12 H           0.9057   -0.9637    1.2602 H       1  LIG1        0.0278
     13 H          -0.7500   -1.5054    1.5525 H       1  LIG1        0.0278
     14 C          -0.3861    1.9778   -0.5642 C.ar    1  LIG1        0.0424
     15 C           0.7084    2.5233    0.0960 C.ar    1  LIG1        0.0435
     16 C           0.5489    3.9186    0.4314 C.ar    1  LIG1       -0.0191
     17 C          -0.6548    4.4244   -0.0097 C.ar    1  LIG1        0.0318
     18 S          -1.6180    3.1880   -0.8038 S.2     1  LIG1       -0.0856
     19 C           1.9019    1.8049    0.3835 C.1     1  LIG1       -0.0682
     20 C           2.9361    1.2281    0.6368 C.1     1  LIG1       -0.1139
     21 H           3.8467    0.7143    0.8416 H       1  LIG1        0.1232
     22 C           1.5885    4.6847    1.1961 C.3     1  LIG1       -0.0374
     23 H           1.1666    5.5889    1.6387 H       1  LIG1        0.0278
     24 H           2.4131    4.9918    0.5438 H       1  LIG1        0.0278
     25 H           2.0108    4.0630    1.9908 H       1  LIG1        0.0278
     26 C          -1.1796    5.7781    0.1105 C.ar    1  LIG1        0.0424
     27 C          -0.5911    6.9776   -0.2726 C.ar    1  LIG1        0.0435
     28 C          -1.4048    8.1379    0.0031 C.ar    1  LIG1       -0.0191
     29 C          -2.6178    7.8007    0.5635 C.ar    1  LIG1        0.0318
     30 S          -2.7597    6.0646    0.7898 S.2     1  LIG1       -0.0856
     31 C           0.6728    7.0715   -0.9183 C.1     1  LIG1       -0.0682
     32 C           1.7406    7.1882   -1.4772 C.1     1  LIG1       -0.1139
     33 H           2.6747    7.2774   -1.9819 H       1  LIG1        0.1232
     34 C          -0.9369    9.5351   -0.2826 C.3     1  LIG1       -0.0374
     35 H          -1.5012   10.2663    0.2994 H       1  LIG1        0.0278
     36 H          -1.0671    9.7869   -1.3407 H       1  LIG1        0.0278
     37 H           0.1264    9.6366   -0.0475 H       1  LIG1        0.0278
     38 C          -3.7146    8.6715    0.9652 C.ar    1  LIG1        0.0418
     39 C          -4.3836    9.6322    0.2163 C.ar    1  LIG1        0.0428
     40 C          -5.4319   10.3046    0.9528 C.ar    1  LIG1       -0.0274
     41 C          -5.5383    9.8278    2.2277 C.ar    1  LIG1       -0.0196
     42 S          -4.3823    8.5847    2.5794 S.2     1  LIG1       -0.0946
     43 H          -6.2393   10.1409    2.9895 H       1  LIG1        0.0696
     44 C          -4.1262    9.9001   -1.1563 C.1     1  LIG1       -0.0682
     45 C          -3.9456   10.1524   -2.3269 C.1     1  LIG1       -0.1139
     46 H          -3.7857   10.3547   -3.3606 H       1  LIG1        0.1232
     47 C          -6.2966   11.3787    0.3576 C.3     1  LIG1       -0.0380
     48 H          -7.0309   11.7391    1.0821 H       1  LIG1        0.0278
     49 H          -6.8346   11.0091   -0.5220 H       1  LIG1        0.0278
     50 H          -5.6944   12.2317    0.0262 H       1  LIG1        0.0278
@<TRIPOS>BOND
     1    46    45    1
     2     6     1    1
     3     5     1   ar
     4     5     4   ar
     5     1     2   ar
     6    45    44    3
     7    33    32    1
     8    32    31    3
     9    36    34    1
    10     2     7    1
    11     2     3   ar
    12    44    39    1
    13     4    14    1
    14     4     3   ar
    15    31    27    1
    16    18    14   ar
    17    18    17   ar
    18     7     8    3
    19    14    15   ar
    20    49    47    1
    21     3    10    1
    22     8     9    1
    23    34    37    1
    24    34    28    1
    25    34    35    1
    26    27    28   ar
    27    27    26   ar
    28    17    26    1
    29    17    16   ar
    30    28    29   ar
    31    50    47    1
    32    15    19    1
    33    15    16   ar
    34    26    30   ar
    35    39    40   ar
    36    39    38   ar
    37    47    40    1
    38    47    48    1
    39    19    20    3
    40    16    22    1
    41    24    22    1
    42    29    30   ar
    43    29    38    1
    44    20    21    1
    45    40    41   ar
    46    38    42   ar
    47    10    12    1
    48    10    13    1
    49    10    11    1
    50    22    23    1
    51    22    25    1
    52    41    42   ar
    53    41    43    1
