@<TRIPOS>MOLECULE
mol_data/opt/b3lyp/geoms/mol2/5ei5ei5ei.out
 38 40 0 0 0
SMALL
GASTEIGER

@<TRIPOS>ATOM
      1 C          -1.5295   -1.6289   -1.7569 C.ar    1  LIG1       -0.0081
      2 C          -0.7275   -1.8672   -0.6629 C.ar    1  LIG1        0.0352
      3 C          -0.2938   -0.6542   -0.0055 C.ar    1  LIG1       -0.0198
      4 C          -0.7742    0.4727   -0.6377 C.ar    1  LIG1        0.0312
      5 S          -1.7686    0.0527   -2.0292 S.2     1  LIG1       -0.0946
      6 H          -1.9841   -2.3648   -2.4045 H       1  LIG1        0.0706
      7 C          -0.3797   -3.1726   -0.2129 C.1     1  LIG1       -0.0688
      8 C          -0.0778   -4.2765    0.1814 C.1     1  LIG1       -0.1139
      9 H           0.1844   -5.2515    0.5212 H       1  LIG1        0.1232
     10 C           0.5416   -0.6668    1.2411 C.3     1  LIG1       -0.0374
     11 H           0.4531    0.2747    1.7867 H       1  LIG1        0.0278
     12 H           1.6016   -0.8108    1.0052 H       1  LIG1        0.0278
     13 H           0.2343   -1.4875    1.8957 H       1  LIG1        0.0278
     14 C          -0.5686    1.8740   -0.2962 C.ar    1  LIG1        0.0424
     15 C           0.6252    2.5581   -0.1010 C.ar    1  LIG1        0.0435
     16 C           0.4483    3.9503    0.2390 C.ar    1  LIG1       -0.0191
     17 C          -0.8805    4.3139    0.2661 C.ar    1  LIG1        0.0318
     18 S          -1.9265    2.9482   -0.0898 S.2     1  LIG1       -0.0856
     19 C           1.9112    1.9715   -0.2596 C.1     1  LIG1       -0.0682
     20 C           3.0217    1.5077   -0.3942 C.1     1  LIG1       -0.1139
     21 H           3.9935    1.0925   -0.5299 H       1  LIG1        0.1232
     22 C           1.6046    4.8578    0.5427 C.3     1  LIG1       -0.0374
     23 H           1.2807    5.7317    1.1113 H       1  LIG1        0.0278
     24 H           2.0747    5.2208   -0.3777 H       1  LIG1        0.0278
     25 H           2.3683    4.3235    1.1150 H       1  LIG1        0.0278
     26 C          -1.4682    5.6175    0.5453 C.ar    1  LIG1        0.0418
     27 C          -1.1977    6.8426   -0.0525 C.ar    1  LIG1        0.0428
     28 C          -1.9874    7.9291    0.4855 C.ar    1  LIG1       -0.0274
     29 C          -2.8402    7.4984    1.4607 C.ar    1  LIG1       -0.0196
     30 S          -2.7060    5.7974    1.7681 S.2     1  LIG1       -0.0946
     31 H          -3.5487    8.0919    2.0224 H       1  LIG1        0.0696
     32 C          -0.2889    7.0235   -1.1311 C.1     1  LIG1       -0.0682
     33 C           0.4675    7.2191   -2.0563 C.1     1  LIG1       -0.1139
     34 H           1.1263    7.3746   -2.8791 H       1  LIG1        0.1232
     35 C          -1.8778    9.3456   -0.0019 C.3     1  LIG1       -0.0380
     36 H          -2.5727    9.9995    0.5305 H       1  LIG1        0.0278
     37 H          -2.0963    9.4112   -1.0732 H       1  LIG1        0.0278
     38 H          -0.8636    9.7347    0.1398 H       1  LIG1        0.0278
@<TRIPOS>BOND
     1    34    33    1
     2     6     1    1
     3    33    32    3
     4     5     1   ar
     5     5     4   ar
     6     1     2   ar
     7    32    27    1
     8    37    35    1
     9     2     7    1
    10     2     3   ar
    11     4    14    1
    12     4     3   ar
    13    21    20    1
    14    20    19    3
    15    24    22    1
    16    14    15   ar
    17    14    18   ar
    18    19    15    1
    19     7     8    3
    20    15    16   ar
    21    18    17   ar
    22    27    28   ar
    23    27    26   ar
    24     3    10    1
    25    35    38    1
    26    35    28    1
    27    35    36    1
    28     8     9    1
    29    16    17   ar
    30    16    22    1
    31    17    26    1
    32    28    29   ar
    33    22    23    1
    34    22    25    1
    35    26    30   ar
    36    12    10    1
    37    10    11    1
    38    10    13    1
    39    29    30   ar
    40    29    31    1
