@<TRIPOS>MOLECULE
mol_data/opt/b3lyp/geoms/mol2/5ei5ei-5ei-5ei.out
 50 53 0 0 0
SMALL
GASTEIGER

@<TRIPOS>ATOM
      1 C          -1.0487   -1.3310   -2.5496 C.ar    1  LIG1       -0.0081
      2 C          -0.7269   -1.6983   -1.2618 C.ar    1  LIG1        0.0352
      3 C          -0.4589   -0.5667   -0.4018 C.ar    1  LIG1       -0.0198
      4 C          -0.5738    0.6298   -1.0769 C.ar    1  LIG1        0.0312
      5 S          -1.0232    0.3760   -2.7606 S.2     1  LIG1       -0.0946
      6 H          -1.2977   -1.9868   -3.3715 H       1  LIG1        0.0706
      7 C          -0.6843   -3.0505   -0.8178 C.1     1  LIG1       -0.0688
      8 C          -0.6457   -4.1954   -0.4266 C.1     1  LIG1       -0.1139
      9 H          -0.6133   -5.2057   -0.0906 H       1  LIG1        0.1232
     10 C          -0.1422   -0.7205    1.0570 C.3     1  LIG1       -0.0374
     11 H          -0.3351    0.2042    1.6044 H       1  LIG1        0.0278
     12 H           0.9121   -0.9766    1.2078 H       1  LIG1        0.0278
     13 H          -0.7430   -1.5238    1.4931 H       1  LIG1        0.0278
     14 C          -0.3828    1.9860   -0.5801 C.ar    1  LIG1        0.0424
     15 C           0.7109    2.5243    0.0874 C.ar    1  LIG1        0.0435
     16 C           0.5498    3.9152    0.4400 C.ar    1  LIG1       -0.0191
     17 C          -0.6542    4.4252    0.0047 C.ar    1  LIG1        0.0318
     18 S          -1.6158    3.1978   -0.8052 S.2     1  LIG1       -0.0856
     19 C           1.9051    1.8038    0.3663 C.1     1  LIG1       -0.0682
     20 C           2.9398    1.2250    0.6127 C.1     1  LIG1       -0.1139
     21 H           3.8509    0.7097    0.8114 H       1  LIG1        0.1232
     22 C           1.5883    4.6729    1.2144 C.3     1  LIG1       -0.0374
     23 H           1.1652    5.5709    1.6684 H       1  LIG1        0.0278
     24 H           2.4126    4.9893    0.5661 H       1  LIG1        0.0278
     25 H           2.0114    4.0418    2.0013 H       1  LIG1        0.0278
     26 C          -1.1805    5.7768    0.1413 C.ar    1  LIG1        0.0424
     27 C          -0.5933    6.9816   -0.2267 C.ar    1  LIG1        0.0435
     28 C          -1.4084    8.1375    0.0630 C.ar    1  LIG1       -0.0191
     29 C          -2.6212    7.7919    0.6187 C.ar    1  LIG1        0.0318
     30 S          -2.7612    6.0531    0.8234 S.2     1  LIG1       -0.0856
     31 C           0.6708    7.0849   -0.8706 C.1     1  LIG1       -0.0682
     32 C           1.7387    7.2100   -1.4276 C.1     1  LIG1       -0.1139
     33 H           2.6728    7.3067   -1.9307 H       1  LIG1        0.1232
     34 C          -0.9421    9.5387   -0.2052 C.3     1  LIG1       -0.0374
     35 H          -1.5075   10.2619    0.3856 H       1  LIG1        0.0278
     36 H          -1.0722    9.8034   -1.2601 H       1  LIG1        0.0278
     37 H           0.1210    9.6385    0.0316 H       1  LIG1        0.0278
     38 C          -3.7192    8.6566    1.0305 C.ar    1  LIG1        0.0418
     39 C          -4.3891    9.6254    0.2930 C.ar    1  LIG1        0.0428
     40 C          -5.4384   10.2877    1.0372 C.ar    1  LIG1       -0.0274
     41 C          -5.5447    9.7954    2.3063 C.ar    1  LIG1       -0.0196
     42 S          -4.3872    8.5496    2.6434 S.2     1  LIG1       -0.0946
     43 H          -6.2463   10.0986    3.0715 H       1  LIG1        0.0696
     44 C          -4.1314    9.9100   -1.0762 C.1     1  LIG1       -0.0682
     45 C          -3.9506   10.1765   -2.2436 C.1     1  LIG1       -0.1139
     46 H          -3.7905   10.3913   -3.2748 H       1  LIG1        0.1232
     47 C          -6.3041   11.3679    0.4547 C.3     1  LIG1       -0.0380
     48 H          -7.0392   11.7187    1.1831 H       1  LIG1        0.0278
     49 H          -6.8414   11.0082   -0.4295 H       1  LIG1        0.0278
     50 H          -5.7028   12.2256    0.1337 H       1  LIG1        0.0278
@<TRIPOS>BOND
     1     6     1    1
     2    46    45    1
     3     5     1   ar
     4     5     4   ar
     5     1     2   ar
     6    45    44    3
     7    33    32    1
     8    32    31    3
     9     2     7    1
    10     2     3   ar
    11    36    34    1
    12     4    14    1
    13     4     3   ar
    14    44    39    1
    15    31    27    1
    16     7     8    3
    17    18    14   ar
    18    18    17   ar
    19    14    15   ar
    20    49    47    1
    21     8     9    1
    22     3    10    1
    23    27    28   ar
    24    27    26   ar
    25    34    37    1
    26    34    28    1
    27    34    35    1
    28    17    26    1
    29    17    16   ar
    30    28    29   ar
    31    15    19    1
    32    15    16   ar
    33    50    47    1
    34    26    30   ar
    35    39    38   ar
    36    39    40   ar
    37    19    20    3
    38    16    22    1
    39    47    40    1
    40    47    48    1
    41    24    22    1
    42    20    21    1
    43    29    30   ar
    44    29    38    1
    45    38    42   ar
    46    40    41   ar
    47    10    12    1
    48    10    13    1
    49    10    11    1
    50    22    23    1
    51    22    25    1
    52    41    42   ar
    53    41    43    1
