@<TRIPOS>MOLECULE
mol_data/opt/b3lyp/geoms/mol2/5ei5ei-5ei5ei.out
 50 53 0 0 0
SMALL
GASTEIGER

@<TRIPOS>ATOM
      1 C          -1.0928   -1.3417   -2.5246 C.ar    1  LIG1       -0.0081
      2 C          -0.7583   -1.7048   -1.2388 C.ar    1  LIG1        0.0352
      3 C          -0.4782   -0.5706   -0.3862 C.ar    1  LIG1       -0.0198
      4 C          -0.5970    0.6235   -1.0647 C.ar    1  LIG1        0.0312
      5 S          -1.0650    0.3644   -2.7425 S.2     1  LIG1       -0.0946
      6 H          -1.3522   -2.0000   -3.3412 H       1  LIG1        0.0706
      7 C          -0.7146   -3.0554   -0.7899 C.1     1  LIG1       -0.0688
      8 C          -0.6750   -4.1988   -0.3947 C.1     1  LIG1       -0.1139
      9 H          -0.6416   -5.2080   -0.0551 H       1  LIG1        0.1232
     10 C          -0.1467   -0.7196    1.0699 C.3     1  LIG1       -0.0374
     11 H          -0.3313    0.2078    1.6156 H       1  LIG1        0.0278
     12 H           0.9086   -0.9780    1.2106 H       1  LIG1        0.0278
     13 H          -0.7450   -1.5196    1.5153 H       1  LIG1        0.0278
     14 C          -0.3972    1.9811   -0.5753 C.ar    1  LIG1        0.0424
     15 C           0.7050    2.5190    0.0787 C.ar    1  LIG1        0.0435
     16 C           0.5513    3.9117    0.4274 C.ar    1  LIG1       -0.0191
     17 C          -0.6558    4.4233    0.0027 C.ar    1  LIG1        0.0318
     18 S          -1.6291    3.1955   -0.7923 S.2     1  LIG1       -0.0856
     19 C           1.9000    1.7962    0.3480 C.1     1  LIG1       -0.0682
     20 C           2.9356    1.2155    0.5859 C.1     1  LIG1       -0.1139
     21 H           3.8473    0.6984    0.7772 H       1  LIG1        0.1232
     22 C           1.5999    4.6695    1.1882 C.3     1  LIG1       -0.0374
     23 H           1.1841    5.5706    1.6427 H       1  LIG1        0.0278
     24 H           2.4184    4.9807    0.5301 H       1  LIG1        0.0278
     25 H           2.0292    4.0403    1.9732 H       1  LIG1        0.0278
     26 C          -1.1769    5.7769    0.1395 C.ar    1  LIG1        0.0424
     27 C          -0.5902    6.9786   -0.2394 C.ar    1  LIG1        0.0435
     28 C          -1.3990    8.1379    0.0542 C.ar    1  LIG1       -0.0191
     29 C          -2.6069    7.7980    0.6240 C.ar    1  LIG1        0.0318
     30 S          -2.7495    6.0603    0.8372 S.2     1  LIG1       -0.0856
     31 C           0.6673    7.0758   -0.8969 C.1     1  LIG1       -0.0682
     32 C           1.7296    7.1957   -1.4656 C.1     1  LIG1       -0.1139
     33 H           2.6587    7.2876   -1.9789 H       1  LIG1        0.1232
     34 C          -0.9317    9.5367   -0.2245 C.3     1  LIG1       -0.0374
     35 H          -1.4891   10.2639    0.3692 H       1  LIG1        0.0278
     36 H          -1.0720    9.7975   -1.2791 H       1  LIG1        0.0278
     37 H           0.1340    9.6345    0.0010 H       1  LIG1        0.0278
     38 C          -3.6982    8.6673    1.0439 C.ar    1  LIG1        0.0418
     39 C          -4.3733    9.6348    0.3095 C.ar    1  LIG1        0.0428
     40 C          -5.4129   10.3029    1.0621 C.ar    1  LIG1       -0.0274
     41 C          -5.5068    9.8163    2.3343 C.ar    1  LIG1       -0.0196
     42 S          -4.3491    8.5688    2.6642 S.2     1  LIG1       -0.0946
     43 H          -6.1994   10.1245    3.1057 H       1  LIG1        0.0696
     44 C          -4.1295    9.9131   -1.0635 C.1     1  LIG1       -0.0682
     45 C          -3.9604   10.1743   -2.2338 C.1     1  LIG1       -0.1139
     46 H          -3.8107   10.3845   -3.2675 H       1  LIG1        0.1232
     47 C          -6.2820   11.3830    0.4843 C.3     1  LIG1       -0.0380
     48 H          -7.0084   11.7387    1.2191 H       1  LIG1        0.0278
     49 H          -6.8295   11.0211   -0.3926 H       1  LIG1        0.0278
     50 H          -5.6819   12.2377    0.1535 H       1  LIG1        0.0278
@<TRIPOS>BOND
     1     6     1    1
     2    46    45    1
     3     5     1   ar
     4     5     4   ar
     5     1     2   ar
     6    45    44    3
     7    33    32    1
     8    32    31    3
     9    36    34    1
    10     2     7    1
    11     2     3   ar
    12     4    14    1
    13     4     3   ar
    14    44    39    1
    15    31    27    1
    16    18    14   ar
    17    18    17   ar
    18     7     8    3
    19    14    15   ar
    20     8     9    1
    21    49    47    1
    22     3    10    1
    23    27    28   ar
    24    27    26   ar
    25    34    37    1
    26    34    28    1
    27    34    35    1
    28    17    26    1
    29    17    16   ar
    30    28    29   ar
    31    15    19    1
    32    15    16   ar
    33    26    30   ar
    34    50    47    1
    35    39    38   ar
    36    39    40   ar
    37    19    20    3
    38    16    22    1
    39    47    40    1
    40    47    48    1
    41    24    22    1
    42    20    21    1
    43    29    30   ar
    44    29    38    1
    45    38    42   ar
    46    40    41   ar
    47    10    12    1
    48    10    13    1
    49    10    11    1
    50    22    23    1
    51    22    25    1
    52    41    42   ar
    53    41    43    1
