@<TRIPOS>MOLECULE
mol_data/opt/b3lyp/geoms/mol2/5ei5ei-5ei5ei-.out
 50 53 0 0 0
SMALL
GASTEIGER

@<TRIPOS>ATOM
      1 C          -1.0821   -1.3467   -2.5166 C.ar    1  LIG1       -0.0081
      2 C          -0.7495   -1.7069   -1.2296 C.ar    1  LIG1        0.0352
      3 C          -0.4720   -0.5707   -0.3787 C.ar    1  LIG1       -0.0198
      4 C          -0.5910    0.6220   -1.0598 C.ar    1  LIG1        0.0312
      5 S          -1.0559    0.3590   -2.7379 S.2     1  LIG1       -0.0946
      6 H          -1.3395   -2.0069   -3.3324 H       1  LIG1        0.0706
      7 C          -0.7049   -3.0565   -0.7780 C.1     1  LIG1       -0.0688
      8 C          -0.6646   -4.1992   -0.3805 C.1     1  LIG1       -0.1139
      9 H          -0.6307   -5.2076   -0.0389 H       1  LIG1        0.1232
     10 C          -0.1428   -0.7165    1.0782 C.3     1  LIG1       -0.0374
     11 H          -0.3295    0.2117    1.6218 H       1  LIG1        0.0278
     12 H           0.9124   -0.9734    1.2214 H       1  LIG1        0.0278
     13 H          -0.7411   -1.5163    1.5241 H       1  LIG1        0.0278
     14 C          -0.3934    1.9807   -0.5727 C.ar    1  LIG1        0.0424
     15 C           0.7067    2.5209    0.0827 C.ar    1  LIG1        0.0435
     16 C           0.5510    3.9142    0.4283 C.ar    1  LIG1       -0.0191
     17 C          -0.6555    4.4239   -0.0002 C.ar    1  LIG1        0.0318
     18 S          -1.6260    3.1936   -0.7949 S.2     1  LIG1       -0.0856
     19 C           1.9019    1.7999    0.3560 C.1     1  LIG1       -0.0682
     20 C           2.9377    1.2210    0.5974 C.1     1  LIG1       -0.1139
     21 H           3.8496    0.7055    0.7916 H       1  LIG1        0.1232
     22 C           1.5972    4.6745    1.1897 C.3     1  LIG1       -0.0374
     23 H           1.1796    5.5760    1.6417 H       1  LIG1        0.0278
     24 H           2.4168    4.9853    0.5327 H       1  LIG1        0.0278
     25 H           2.0256    4.0473    1.9769 H       1  LIG1        0.0278
     26 C          -1.1781    5.7773    0.1326 C.ar    1  LIG1        0.0424
     27 C          -0.5918    6.9787   -0.2478 C.ar    1  LIG1        0.0435
     28 C          -1.4021    8.1380    0.0419 C.ar    1  LIG1       -0.0191
     29 C          -2.6108    7.7981    0.6100 C.ar    1  LIG1        0.0318
     30 S          -2.7523    6.0608    0.8266 S.2     1  LIG1       -0.0856
     31 C           0.6669    7.0756   -0.9030 C.1     1  LIG1       -0.0682
     32 C           1.7303    7.1951   -1.4698 C.1     1  LIG1       -0.1139
     33 H           2.6603    7.2869   -1.9815 H       1  LIG1        0.1232
     34 C          -0.9356    9.5365   -0.2390 C.3     1  LIG1       -0.0374
     35 H          -1.4943   10.2645    0.3523 H       1  LIG1        0.0278
     36 H          -1.0745    9.7950   -1.2944 H       1  LIG1        0.0278
     37 H           0.1298    9.6357   -0.0123 H       1  LIG1        0.0278
     38 C          -3.7036    8.6675    1.0260 C.ar    1  LIG1        0.0418
     39 C          -4.3781    9.6329    0.2883 C.ar    1  LIG1        0.0428
     40 C          -5.4196   10.3018    1.0376 C.ar    1  LIG1       -0.0274
     41 C          -5.5155    9.8178    2.3106 C.ar    1  LIG1       -0.0196
     42 S          -4.3575    8.5719    2.6454 S.2     1  LIG1       -0.0946
     43 H          -6.2097   10.1271    3.0801 H       1  LIG1        0.0696
     44 C          -4.1321    9.9084   -1.0848 C.1     1  LIG1       -0.0682
     45 C          -3.9612   10.1673   -2.2554 C.1     1  LIG1       -0.1139
     46 H          -3.8098   10.3755   -3.2892 H       1  LIG1        0.1232
     47 C          -6.2885   11.3799    0.4558 C.3     1  LIG1       -0.0380
     48 H          -7.0163   11.7368    1.1886 H       1  LIG1        0.0278
     49 H          -6.8344   11.0155   -0.4211 H       1  LIG1        0.0278
     50 H          -5.6885   12.2343    0.1239 H       1  LIG1        0.0278
@<TRIPOS>BOND
     1     6     1    1
     2    46    45    1
     3     5     1   ar
     4     5     4   ar
     5     1     2   ar
     6    45    44    3
     7    33    32    1
     8    32    31    3
     9    36    34    1
    10     2     7    1
    11     2     3   ar
    12    44    39    1
    13     4    14    1
    14     4     3   ar
    15    31    27    1
    16    18    14   ar
    17    18    17   ar
    18     7     8    3
    19    14    15   ar
    20    49    47    1
    21     8     9    1
    22     3    10    1
    23    27    28   ar
    24    27    26   ar
    25    34    37    1
    26    34    28    1
    27    34    35    1
    28    17    26    1
    29    17    16   ar
    30    28    29   ar
    31    15    19    1
    32    15    16   ar
    33    50    47    1
    34    26    30   ar
    35    39    38   ar
    36    39    40   ar
    37    19    20    3
    38    16    22    1
    39    47    40    1
    40    47    48    1
    41    24    22    1
    42    20    21    1
    43    29    30   ar
    44    29    38    1
    45    38    42   ar
    46    40    41   ar
    47    10    12    1
    48    10    13    1
    49    10    11    1
    50    22    23    1
    51    22    25    1
    52    41    42   ar
    53    41    43    1
