@<TRIPOS>MOLECULE
mol_data/opt/b3lyp/geoms/mol2/5ei5ei5ei-5ei-.out
 50 53 0 0 0
SMALL
GASTEIGER

@<TRIPOS>ATOM
      1 C          -1.0223   -1.3507   -2.5213 C.ar    1  LIG1       -0.0081
      2 C          -0.7112   -1.7076   -1.2280 C.ar    1  LIG1        0.0352
      3 C          -0.4513   -0.5691   -0.3747 C.ar    1  LIG1       -0.0198
      4 C          -0.5613    0.6219   -1.0601 C.ar    1  LIG1        0.0312
      5 S          -0.9962    0.3546   -2.7455 S.2     1  LIG1       -0.0946
      6 H          -1.2638   -2.0131   -3.3402 H       1  LIG1        0.0706
      7 C          -0.6714   -3.0563   -0.7731 C.1     1  LIG1       -0.0688
      8 C          -0.6354   -4.1980   -0.3726 C.1     1  LIG1       -0.1139
      9 H          -0.6050   -5.2057   -0.0284 H       1  LIG1        0.1232
     10 C          -0.1470   -0.7113    1.0880 C.3     1  LIG1       -0.0374
     11 H          -0.3452    0.2175    1.6264 H       1  LIG1        0.0278
     12 H           0.9063   -0.9654    1.2497 H       1  LIG1        0.0278
     13 H          -0.7508   -1.5117    1.5252 H       1  LIG1        0.0278
     14 C          -0.3756    1.9821   -0.5723 C.ar    1  LIG1        0.0424
     15 C           0.7120    2.5265    0.1003 C.ar    1  LIG1        0.0435
     16 C           0.5468    3.9200    0.4406 C.ar    1  LIG1       -0.0191
     17 C          -0.6538    4.4256   -0.0090 C.ar    1  LIG1        0.0318
     18 S          -1.6074    3.1912   -0.8175 S.2     1  LIG1       -0.0856
     19 C           1.9042    1.8092    0.3952 C.1     1  LIG1       -0.0682
     20 C           2.9373    1.2333    0.6551 C.1     1  LIG1       -0.1139
     21 H           3.8470    0.7203    0.8657 H       1  LIG1        0.1232
     22 C           1.5781    4.6846    1.2180 C.3     1  LIG1       -0.0374
     23 H           1.1504    5.5858    1.6612 H       1  LIG1        0.0278
     24 H           2.4076    4.9965    0.5743 H       1  LIG1        0.0278
     25 H           1.9949    4.0600    2.0133 H       1  LIG1        0.0278
     26 C          -1.1822    5.7779    0.1125 C.ar    1  LIG1        0.0424
     27 C          -0.5927    6.9801   -0.2602 C.ar    1  LIG1        0.0435
     28 C          -1.4110    8.1377    0.0136 C.ar    1  LIG1       -0.0191
     29 C          -2.6281    7.7956    0.5620 C.ar    1  LIG1        0.0318
     30 S          -2.7686    6.0584    0.7794 S.2     1  LIG1       -0.0856
     31 C           0.6766    7.0792   -0.8943 C.1     1  LIG1       -0.0682
     32 C           1.7490    7.2006   -1.4434 C.1     1  LIG1       -0.1139
     33 H           2.6872    7.2939   -1.9396 H       1  LIG1        0.1232
     34 C          -0.9433    9.5370   -0.2618 C.3     1  LIG1       -0.0374
     35 H          -1.5141   10.2645    0.3185 H       1  LIG1        0.0278
     36 H          -1.0646    9.7933   -1.3198 H       1  LIG1        0.0278
     37 H           0.1177    9.6394   -0.0168 H       1  LIG1        0.0278
     38 C          -3.7301    8.6627    0.9579 C.ar    1  LIG1        0.0418
     39 C          -4.3943    9.6254    0.2074 C.ar    1  LIG1        0.0428
     40 C          -5.4502   10.2926    0.9377 C.ar    1  LIG1       -0.0274
     41 C          -5.5668    9.8101    2.2096 C.ar    1  LIG1       -0.0196
     42 S          -4.4115    8.5677    2.5659 S.2     1  LIG1       -0.0946
     43 H          -6.2749   10.1187    2.9666 H       1  LIG1        0.0696
     44 C          -4.1255    9.8996   -1.1617 C.1     1  LIG1       -0.0682
     45 C          -3.9352   10.1573   -2.3296 C.1     1  LIG1       -0.1139
     46 H          -3.7668   10.3644   -3.3610 H       1  LIG1        0.1232
     47 C          -6.3117   11.3678    0.3397 C.3     1  LIG1       -0.0380
     48 H          -7.0530   11.7236    1.0592 H       1  LIG1        0.0278
     49 H          -6.8413   11.0009   -0.5462 H       1  LIG1        0.0278
     50 H          -5.7083   12.2233    0.0172 H       1  LIG1        0.0278
@<TRIPOS>BOND
     1    46    45    1
     2     6     1    1
     3     5     1   ar
     4     5     4   ar
     5     1     2   ar
     6    45    44    3
     7    33    32    1
     8    32    31    3
     9    36    34    1
    10     2     7    1
    11     2     3   ar
    12    44    39    1
    13     4    14    1
    14     4     3   ar
    15    31    27    1
    16    18    14   ar
    17    18    17   ar
    18     7     8    3
    19    14    15   ar
    20    49    47    1
    21     3    10    1
    22     8     9    1
    23    34    37    1
    24    34    28    1
    25    34    35    1
    26    27    28   ar
    27    27    26   ar
    28    17    26    1
    29    17    16   ar
    30    28    29   ar
    31    50    47    1
    32    15    19    1
    33    15    16   ar
    34    26    30   ar
    35    39    40   ar
    36    39    38   ar
    37    47    40    1
    38    47    48    1
    39    19    20    3
    40    16    22    1
    41    29    30   ar
    42    29    38    1
    43    24    22    1
    44    20    21    1
    45    40    41   ar
    46    38    42   ar
    47    10    12    1
    48    10    13    1
    49    10    11    1
    50    22    23    1
    51    22    25    1
    52    41    42   ar
    53    41    43    1
