@<TRIPOS>MOLECULE
mol_data/opt/b3lyp/geoms/mol2/5ei5ei-5ei-5ei-.out
 50 53 0 0 0
SMALL
GASTEIGER

@<TRIPOS>ATOM
      1 C          -1.0520   -1.3359   -2.5441 C.ar    1  LIG1       -0.0081
      2 C          -0.7329   -1.7013   -1.2551 C.ar    1  LIG1        0.0352
      3 C          -0.4650   -0.5685   -0.3967 C.ar    1  LIG1       -0.0198
      4 C          -0.5773    0.6269   -1.0740 C.ar    1  LIG1        0.0312
      5 S          -1.0242    0.3707   -2.7581 S.2     1  LIG1       -0.0946
      6 H          -1.3004   -1.9929   -3.3652 H       1  LIG1        0.0706
      7 C          -0.6925   -3.0528   -0.8086 C.1     1  LIG1       -0.0688
      8 C          -0.6560   -4.1970   -0.4154 C.1     1  LIG1       -0.1139
      9 H          -0.6252   -5.2068   -0.0775 H       1  LIG1        0.1232
     10 C          -0.1510   -0.7201    1.0630 C.3     1  LIG1       -0.0374
     11 H          -0.3436    0.2059    1.6083 H       1  LIG1        0.0278
     12 H           0.9028   -0.9774    1.2160 H       1  LIG1        0.0278
     13 H          -0.7536   -1.5218    1.4995 H       1  LIG1        0.0278
     14 C          -0.3855    1.9838   -0.5792 C.ar    1  LIG1        0.0424
     15 C           0.7078    2.5219    0.0891 C.ar    1  LIG1        0.0435
     16 C           0.5477    3.9136    0.4391 C.ar    1  LIG1       -0.0191
     17 C          -0.6550    4.4243    0.0010 C.ar    1  LIG1        0.0318
     18 S          -1.6167    3.1967   -0.8084 S.2     1  LIG1       -0.0856
     19 C           1.9006    1.8004    0.3712 C.1     1  LIG1       -0.0682
     20 C           2.9342    1.2207    0.6202 C.1     1  LIG1       -0.1139
     21 H           3.8443    0.7047    0.8213 H       1  LIG1        0.1232
     22 C           1.5859    4.6713    1.2139 C.3     1  LIG1       -0.0374
     23 H           1.1631    5.5706    1.6656 H       1  LIG1        0.0278
     24 H           2.4116    4.9856    0.5663 H       1  LIG1        0.0278
     25 H           2.0070    4.0411    2.0025 H       1  LIG1        0.0278
     26 C          -1.1798    5.7768    0.1345 C.ar    1  LIG1        0.0424
     27 C          -0.5905    6.9802   -0.2347 C.ar    1  LIG1        0.0435
     28 C          -1.4046    8.1376    0.0517 C.ar    1  LIG1       -0.0191
     29 C          -2.6187    7.7946    0.6063 C.ar    1  LIG1        0.0318
     30 S          -2.7611    6.0562    0.8140 S.2     1  LIG1       -0.0856
     31 C           0.6745    7.0808   -0.8771 C.1     1  LIG1       -0.0682
     32 C           1.7434    7.2035   -1.4328 C.1     1  LIG1       -0.1139
     33 H           2.6783    7.2981   -1.9349 H       1  LIG1        0.1232
     34 C          -0.9361    9.5377   -0.2182 C.3     1  LIG1       -0.0374
     35 H          -1.5016   10.2627    0.3704 H       1  LIG1        0.0278
     36 H          -1.0640    9.8007   -1.2738 H       1  LIG1        0.0278
     37 H           0.1267    9.6365    0.0203 H       1  LIG1        0.0278
     38 C          -3.7162    8.6612    1.0151 C.ar    1  LIG1        0.0418
     39 C          -4.3837    9.6299    0.2751 C.ar    1  LIG1        0.0428
     40 C          -5.4333   10.2945    1.0167 C.ar    1  LIG1       -0.0274
     41 C          -5.5421    9.8043    2.2863 C.ar    1  LIG1       -0.0196
     42 S          -4.3869    8.5575    2.6270 S.2     1  LIG1       -0.0946
     43 H          -6.2445   10.1095    3.0500 H       1  LIG1        0.0696
     44 C          -4.1236    9.9121   -1.0941 C.1     1  LIG1       -0.0682
     45 C          -3.9407   10.1766   -2.2616 C.1     1  LIG1       -0.1139
     46 H          -3.7789   10.3897   -3.2929 H       1  LIG1        0.1232
     47 C          -6.2967   11.3750    0.4312 C.3     1  LIG1       -0.0380
     48 H          -7.0325   11.7277    1.1580 H       1  LIG1        0.0278
     49 H          -6.8329   11.0148   -0.4534 H       1  LIG1        0.0278
     50 H          -5.6938   12.2315    0.1102 H       1  LIG1        0.0278
@<TRIPOS>BOND
     1     6     1    1
     2    46    45    1
     3     5     1   ar
     4     5     4   ar
     5     1     2   ar
     6    45    44    3
     7    33    32    1
     8    32    31    3
     9    36    34    1
    10     2     7    1
    11     2     3   ar
    12    44    39    1
    13     4    14    1
    14     4     3   ar
    15    31    27    1
    16     7     8    3
    17    18    14   ar
    18    18    17   ar
    19    14    15   ar
    20    49    47    1
    21     8     9    1
    22     3    10    1
    23    27    28   ar
    24    27    26   ar
    25    34    37    1
    26    34    28    1
    27    34    35    1
    28    17    26    1
    29    17    16   ar
    30    28    29   ar
    31    15    19    1
    32    15    16   ar
    33    50    47    1
    34    26    30   ar
    35    39    38   ar
    36    39    40   ar
    37    19    20    3
    38    47    40    1
    39    47    48    1
    40    16    22    1
    41    24    22    1
    42    29    30   ar
    43    29    38    1
    44    20    21    1
    45    38    42   ar
    46    40    41   ar
    47    10    12    1
    48    10    13    1
    49    10    11    1
    50    22    23    1
    51    22    25    1
    52    41    42   ar
    53    41    43    1
