@<TRIPOS>MOLECULE
mol_data/opt/b3lyp/geoms/mol2/5el.out
 15 15 0 0 0
SMALL
GASTEIGER

@<TRIPOS>ATOM
      1 C          -2.1788   -1.7357    0.0004 C.ar    1  LIG1       -0.0053
      2 C          -0.7979   -1.7865   -0.0002 C.ar    1  LIG1        0.0732
      3 C          -0.2255   -0.4491   -0.0003 C.ar    1  LIG1        0.1424
      4 C          -1.1877    0.5286    0.0001 C.ar    1  LIG1        0.0186
      5 S          -2.7878   -0.1291    0.0008 S.2     1  LIG1       -0.1001
      6 H          -2.8481   -2.5834    0.0006 H       1  LIG1        0.0707
      7 H          -1.0170    1.5942    0.0002 H       1  LIG1        0.0730
      8 C          -0.1218   -3.0411   -0.0006 C.1     1  LIG1       -0.0655
      9 C           0.3858   -4.1403   -0.0009 C.1     1  LIG1       -0.1138
     10 H           0.8440   -5.1020   -0.0013 H       1  LIG1        0.1232
     11 O           1.0801   -0.0727   -0.0009 O.3     1  LIG1       -0.4934
     12 C           2.1165   -1.0495   -0.0011 C.3     1  LIG1        0.0789
     13 H           3.0476   -0.4800   -0.0013 H       1  LIG1        0.0660
     14 H           2.0771   -1.6831    0.8902 H       1  LIG1        0.0660
     15 H           2.0767   -1.6832   -0.8922 H       1  LIG1        0.0660
@<TRIPOS>BOND
     1    15    12    1
     2    13    12    1
     3    10     9    1
     4    12    11    1
     5    12    14    1
     6     9     8    3
     7    11     3    1
     8     8     2    1
     9     3     2   ar
    10     3     4   ar
    11     2     1   ar
    12     4     7    1
    13     4     5   ar
    14     1     6    1
    15     1     5   ar
