@<TRIPOS>MOLECULE
mol_data/opt/b3lyp/geoms/mol2/5el5el-5el5el-.out
 54 57 0 0 0
SMALL
GASTEIGER

@<TRIPOS>ATOM
      1 C          -1.5094   -1.7138    2.2815 C.ar    1  LIG1       -0.0047
      2 C          -0.9206   -2.0015    1.0690 C.ar    1  LIG1        0.0739
      3 C          -0.4409   -0.8026    0.4119 C.ar    1  LIG1        0.1506
      4 C          -0.6839    0.3473    1.1387 C.ar    1  LIG1        0.0700
      5 S          -1.5095   -0.0326    2.6409 S.2     1  LIG1       -0.0911
      6 H          -1.9554   -2.4227    2.9641 H       1  LIG1        0.0707
      7 C          -0.8878   -3.3206    0.5351 C.1     1  LIG1       -0.0654
      8 C          -0.8889   -4.4556    0.1142 C.1     1  LIG1       -0.1138
      9 H          -0.8977   -5.4502   -0.2678 H       1  LIG1        0.1232
     10 O           0.0865   -0.7348   -0.8365 O.3     1  LIG1       -0.4927
     11 C           1.1838   -1.6063   -1.1452 C.3     1  LIG1        0.0789
     12 H           1.5402   -1.2904   -2.1266 H       1  LIG1        0.0660
     13 H           1.9880   -1.4879   -0.4127 H       1  LIG1        0.0660
     14 H           0.8655   -2.6500   -1.1861 H       1  LIG1        0.0660
     15 C          -0.3962    1.7236    0.7729 C.ar    1  LIG1        0.0491
     16 C           0.7963    2.2868    0.3397 C.ar    1  LIG1        0.0823
     17 C           0.6713    3.6993    0.0710 C.ar    1  LIG1        0.1513
     18 C          -0.5854    4.2082    0.3244 C.ar    1  LIG1        0.0706
     19 S          -1.6536    2.9322    0.8793 S.2     1  LIG1       -0.0820
     20 C           2.0378    1.6023    0.2522 C.1     1  LIG1       -0.0648
     21 C           3.1209    1.0645    0.1891 C.1     1  LIG1       -0.1138
     22 H           4.0782    0.5986    0.1529 H       1  LIG1        0.1232
     23 O           1.7018    4.4763   -0.3593 O.3     1  LIG1       -0.4927
     24 C           2.1222    4.2446   -1.7109 C.3     1  LIG1        0.0789
     25 H           2.9393    4.9441   -1.8943 H       1  LIG1        0.0660
     26 H           2.4810    3.2200   -1.8481 H       1  LIG1        0.0660
     27 H           1.3032    4.4457   -2.4115 H       1  LIG1        0.0660
     28 C          -1.0588    5.5709    0.1691 C.ar    1  LIG1        0.0491
     29 C          -0.4675    6.7528    0.5969 C.ar    1  LIG1        0.0823
     30 C          -1.2532    7.9135    0.2513 C.ar    1  LIG1        0.1513
     31 C          -2.4333    7.6191   -0.3985 C.ar    1  LIG1        0.0706
     32 S          -2.5891    5.8850   -0.6176 S.2     1  LIG1       -0.0820
     33 C           0.7198    6.8307    1.3716 C.1     1  LIG1       -0.0648
     34 C           1.7194    6.9195    2.0478 C.1     1  LIG1       -0.1138
     35 H           2.5972    6.9775    2.6484 H       1  LIG1        0.1232
     36 O          -0.8950    9.1871    0.5685 O.3     1  LIG1       -0.4927
     37 C           0.2412    9.7030   -0.1379 C.3     1  LIG1        0.0789
     38 H           0.3883   10.7183    0.2335 H       1  LIG1        0.0660
     39 H           1.1385    9.1087    0.0590 H       1  LIG1        0.0660
     40 H           0.0463    9.7329   -1.2166 H       1  LIG1        0.0660
     41 C          -3.4530    8.5315   -0.8831 C.ar    1  LIG1        0.0485
     42 C          -4.0574    9.5937   -0.2237 C.ar    1  LIG1        0.0816
     43 C          -5.0360   10.2615   -1.0568 C.ar    1  LIG1        0.1430
     44 C          -5.1665    9.7011   -2.2953 C.ar    1  LIG1        0.0193
     45 S          -4.1017    8.3504   -2.5015 S.2     1  LIG1       -0.0910
     46 H          -5.8440   10.0065   -3.0789 H       1  LIG1        0.0731
     47 C          -3.8403    9.9313    1.1379 C.1     1  LIG1       -0.0648
     48 C          -3.6851   10.2267    2.3013 C.1     1  LIG1       -0.1138
     49 H          -3.5397   10.4657    3.3290 H       1  LIG1        0.1232
     50 O          -5.8211   11.2955   -0.6352 O.3     1  LIG1       -0.4933
     51 C          -5.1358   12.5327   -0.4089 C.3     1  LIG1        0.0789
     52 H          -5.8934   13.2398   -0.0666 H       1  LIG1        0.0660
     53 H          -4.3625   12.4287    0.3584 H       1  LIG1        0.0660
     54 H          -4.6844   12.9026   -1.3381 H       1  LIG1        0.0660
@<TRIPOS>BOND
     1    46    44    1
     2    45    44   ar
     3    45    41   ar
     4    27    24    1
     5    44    43   ar
     6    12    11    1
     7    25    24    1
     8    26    24    1
     9    24    23    1
    10    54    51    1
    11    40    37    1
    12    14    11    1
    13    11    10    1
    14    11    13    1
    15    43    50    1
    16    43    42   ar
    17    41    31    1
    18    41    42   ar
    19    10     3    1
    20    50    51    1
    21    32    31   ar
    22    32    28   ar
    23    51    52    1
    24    51    53    1
    25    31    30   ar
    26    23    17    1
    27     9     8    1
    28    42    47    1
    29    37    39    1
    30    37    38    1
    31    37    36    1
    32    17    18   ar
    33    17    16   ar
    34     8     7    3
    35    22    21    1
    36    28    18    1
    37    28    29   ar
    38    21    20    3
    39    30    36    1
    40    30    29   ar
    41    20    16    1
    42    18    19   ar
    43    16    15   ar
    44     3     2   ar
    45     3     4   ar
    46     7     2    1
    47    29    33    1
    48    15    19   ar
    49    15     4    1
    50     2     1   ar
    51    47    48    3
    52     4     5   ar
    53    33    34    3
    54    34    35    1
    55     1     5   ar
    56     1     6    1
    57    48    49    1
