@<TRIPOS>MOLECULE
mol_data/opt/b3lyp/geoms/mol2/5el5el.out
 28 29 0 0 0
SMALL
GASTEIGER

@<TRIPOS>ATOM
      1 C          -2.1271   -1.9191    0.7098 C.ar    1  LIG1       -0.0047
      2 C          -0.9084   -2.0636    0.0834 C.ar    1  LIG1        0.0739
      3 C          -0.3013   -0.7799   -0.2062 C.ar    1  LIG1        0.1506
      4 C          -1.0747    0.2894    0.2003 C.ar    1  LIG1        0.0700
      5 S          -2.5620   -0.2719    0.9459 S.2     1  LIG1       -0.0911
      6 H          -2.7887   -2.7140    1.0224 H       1  LIG1        0.0707
      7 C          -0.3885   -3.3351   -0.2892 C.1     1  LIG1       -0.0654
      8 C           0.0172   -4.4332   -0.5978 C.1     1  LIG1       -0.1138
      9 H           0.3733   -5.3957   -0.8835 H       1  LIG1        0.1232
     10 O           0.8453   -0.5875   -0.9082 O.3     1  LIG1       -0.4927
     11 C           2.0255   -1.2560   -0.4395 C.3     1  LIG1        0.0789
     12 H           2.8376   -0.8924   -1.0708 H       1  LIG1        0.0660
     13 H           2.2288   -0.9896    0.6019 H       1  LIG1        0.0660
     14 H           1.9377   -2.3400   -0.5406 H       1  LIG1        0.0660
     15 C          -0.8171    1.7107    0.0319 C.ar    1  LIG1        0.0484
     16 C           0.2971    2.4522    0.3974 C.ar    1  LIG1        0.0816
     17 C           0.1570    3.8515    0.0522 C.ar    1  LIG1        0.1430
     18 C          -1.0366    4.1449   -0.5428 C.ar    1  LIG1        0.0193
     19 S          -2.0250    2.7344   -0.7165 S.2     1  LIG1       -0.0910
     20 H          -1.3798    5.1161   -0.8673 H       1  LIG1        0.0731
     21 C           1.4119    1.9506    1.1201 C.1     1  LIG1       -0.0648
     22 C           2.3708    1.5732    1.7563 C.1     1  LIG1       -0.1138
     23 H           3.2038    1.2471    2.3348 H       1  LIG1        0.1232
     24 O           1.0825    4.8075    0.3581 O.3     1  LIG1       -0.4933
     25 C           2.2878    4.7565   -0.4141 C.3     1  LIG1        0.0789
     26 H           2.9155    5.5719   -0.0504 H       1  LIG1        0.0660
     27 H           2.8120    3.8054   -0.2771 H       1  LIG1        0.0660
     28 H           2.0741    4.9065   -1.4796 H       1  LIG1        0.0660
@<TRIPOS>BOND
     1    28    25    1
     2    12    11    1
     3    10    11    1
     4    10     3    1
     5     9     8    1
     6    20    18    1
     7    19    18   ar
     8    19    15   ar
     9     8     7    3
    10    18    17   ar
    11    14    11    1
    12    11    13    1
    13    25    27    1
    14    25    26    1
    15    25    24    1
    16     7     2    1
    17     3     2   ar
    18     3     4   ar
    19    15     4    1
    20    15    16   ar
    21    17    24    1
    22    17    16   ar
    23     2     1   ar
    24     4     5   ar
    25    16    21    1
    26     1     5   ar
    27     1     6    1
    28    21    22    3
    29    22    23    1
