@<TRIPOS>MOLECULE
mol_data/opt/b3lyp/geoms/mol2/5el5el5el-5el-.out
 54 57 0 0 0
SMALL
GASTEIGER

@<TRIPOS>ATOM
      1 C          -1.3288   -1.9657    2.0013 C.ar    1  LIG1       -0.0047
      2 C          -0.7884   -2.1157    0.7423 C.ar    1  LIG1        0.0739
      3 C          -0.3809   -0.8431    0.1820 C.ar    1  LIG1        0.1506
      4 C          -0.6283    0.2235    1.0249 C.ar    1  LIG1        0.0700
      5 S          -1.3688   -0.3267    2.5188 S.2     1  LIG1       -0.0911
      6 H          -1.7184   -2.7519    2.6318 H       1  LIG1        0.0707
      7 C          -0.7365   -3.3762    0.0831 C.1     1  LIG1       -0.0654
      8 C          -0.7187   -4.4650   -0.4457 C.1     1  LIG1       -0.1138
      9 H          -0.7118   -5.4182   -0.9217 H       1  LIG1        0.1232
     10 O           0.0829   -0.6398   -1.0769 O.3     1  LIG1       -0.4927
     11 C           1.1990   -1.4300   -1.5119 C.3     1  LIG1        0.0789
     12 H           1.4872   -1.0192   -2.4805 H       1  LIG1        0.0660
     13 H           2.0356   -1.3319   -0.8136 H       1  LIG1        0.0660
     14 H           0.9250   -2.4811   -1.6233 H       1  LIG1        0.0660
     15 C          -0.4038    1.6379    0.7805 C.ar    1  LIG1        0.0491
     16 C           0.7505    2.2841    0.3601 C.ar    1  LIG1        0.0823
     17 C           0.5669    3.7094    0.2305 C.ar    1  LIG1        0.1513
     18 C          -0.6962    4.1447    0.5751 C.ar    1  LIG1        0.0706
     19 S          -1.6974    2.7828    1.0445 S.2     1  LIG1       -0.0820
     20 C           2.0106    1.6595    0.1616 C.1     1  LIG1       -0.0648
     21 C           3.1088    1.1735    0.0066 C.1     1  LIG1       -0.1138
     22 H           4.0799    0.7514   -0.1104 H       1  LIG1        0.1232
     23 O           1.5538    4.5591   -0.1630 O.3     1  LIG1       -0.4927
     24 C           1.9105    4.4815   -1.5502 C.3     1  LIG1        0.0789
     25 H           2.7085    5.2112   -1.6958 H       1  LIG1        0.0660
     26 H           2.2753    3.4839   -1.8136 H       1  LIG1        0.0660
     27 H           1.0555    4.7417   -2.1851 H       1  LIG1        0.0660
     28 C          -1.2234    5.4957    0.5602 C.ar    1  LIG1        0.0491
     29 C          -0.6503    6.6582    1.0646 C.ar    1  LIG1        0.0823
     30 C          -1.4889    7.8170    0.8546 C.ar    1  LIG1        0.1513
     31 C          -2.6853    7.5280    0.2290 C.ar    1  LIG1        0.0706
     32 S          -2.7885    5.8179   -0.1418 S.2     1  LIG1       -0.0820
     33 C           0.5404    6.6689    1.8393 C.1     1  LIG1       -0.0648
     34 C           1.5384    6.6656    2.5240 C.1     1  LIG1       -0.1138
     35 H           2.4150    6.6483    3.1289 H       1  LIG1        0.1232
     36 O          -1.2319    9.0620    1.3327 O.3     1  LIG1       -0.4927
     37 C           0.0091    9.6712    0.9454 C.3     1  LIG1        0.0789
     38 H          -0.0187   10.6799    1.3604 H       1  LIG1        0.0660
     39 H           0.8645    9.1286    1.3532 H       1  LIG1        0.0660
     40 H           0.0821    9.7295   -0.1445 H       1  LIG1        0.0660
     41 C          -3.7968    8.4159   -0.0666 C.ar    1  LIG1        0.0485
     42 C          -3.8042    9.6303   -0.7386 C.ar    1  LIG1        0.0816
     43 C          -5.1335   10.1984   -0.8216 C.ar    1  LIG1        0.1430
     44 C          -6.0924    9.4196   -0.2397 C.ar    1  LIG1        0.0193
     45 S          -5.4164    7.9781    0.4398 S.2     1  LIG1       -0.0910
     46 H          -7.1529    9.6187   -0.1949 H       1  LIG1        0.0731
     47 C          -2.6826   10.2203   -1.3790 C.1     1  LIG1       -0.0648
     48 C          -1.7629   10.7498   -1.9626 C.1     1  LIG1       -0.1138
     49 H          -0.9591   11.2059   -2.4924 H       1  LIG1        0.1232
     50 O          -5.4261   11.3559   -1.4839 O.3     1  LIG1       -0.4933
     51 C          -4.9729   12.5543   -0.8436 C.3     1  LIG1        0.0789
     52 H          -5.2698   13.3774   -1.4958 H       1  LIG1        0.0660
     53 H          -5.4486   12.6751    0.1376 H       1  LIG1        0.0660
     54 H          -3.8848   12.5589   -0.7250 H       1  LIG1        0.0660
@<TRIPOS>BOND
     1    49    48    1
     2    12    11    1
     3    27    24    1
     4    48    47    3
     5    26    24    1
     6    25    24    1
     7    14    11    1
     8    24    23    1
     9    11    10    1
    10    11    13    1
    11    52    51    1
    12    50    51    1
    13    50    43    1
    14    47    42    1
    15    10     3    1
    16     9     8    1
    17    51    54    1
    18    51    53    1
    19    43    42   ar
    20    43    44   ar
    21    42    41   ar
    22     8     7    3
    23    44    46    1
    24    44    45   ar
    25    23    17    1
    26    40    37    1
    27    32    31   ar
    28    32    28   ar
    29    22    21    1
    30    41    31    1
    31    41    45   ar
    32    21    20    3
    33     7     2    1
    34    20    16    1
    35     3     2   ar
    36     3     4   ar
    37    31    30   ar
    38    17    16   ar
    39    17    18   ar
    40    16    15   ar
    41    28    18    1
    42    28    29   ar
    43    18    19   ar
    44     2     1   ar
    45    15     4    1
    46    15    19   ar
    47    30    29   ar
    48    30    36    1
    49    37    36    1
    50    37    39    1
    51    37    38    1
    52     4     5   ar
    53    29    33    1
    54    33    34    3
    55     1     5   ar
    56     1     6    1
    57    34    35    1
