@<TRIPOS>MOLECULE
mol_data/opt/b3lyp/geoms/mol2/5el5el5el-.out
 41 43 0 0 0
SMALL
GASTEIGER

@<TRIPOS>ATOM
      1 C          -1.9357   -1.8656    1.4517 C.ar    1  LIG1       -0.0047
      2 C          -0.9564   -2.0936    0.5093 C.ar    1  LIG1        0.0739
      3 C          -0.3613   -0.8557    0.0478 C.ar    1  LIG1        0.1506
      4 C          -0.9073    0.2638    0.6450 C.ar    1  LIG1        0.0700
      5 S          -2.1636   -0.1939    1.7837 S.2     1  LIG1       -0.0911
      6 H          -2.5395   -2.6126    1.9463 H       1  LIG1        0.0707
      7 C          -0.6587   -3.3957    0.0179 C.1     1  LIG1       -0.0654
      8 C          -0.4394   -4.5172   -0.3817 C.1     1  LIG1       -0.1138
      9 H          -0.2513   -5.5002   -0.7468 H       1  LIG1        0.1232
     10 O           0.5495   -0.7417   -0.9525 O.3     1  LIG1       -0.4927
     11 C           1.7614   -1.5015   -0.8317 C.3     1  LIG1        0.0789
     12 H           2.3859   -1.1905   -1.6704 H       1  LIG1        0.0660
     13 H           2.2702   -1.2634    0.1070 H       1  LIG1        0.0660
     14 H           1.5684   -2.5746   -0.8940 H       1  LIG1        0.0660
     15 C          -0.6048    1.6632    0.3945 C.ar    1  LIG1        0.0491
     16 C           0.6194    2.3161    0.4142 C.ar    1  LIG1        0.0823
     17 C           0.4983    3.7215    0.1079 C.ar    1  LIG1        0.1513
     18 C          -0.7976    4.1371   -0.1127 C.ar    1  LIG1        0.0706
     19 S          -1.8992    2.7803    0.0326 S.2     1  LIG1       -0.0820
     20 C           1.8577    1.7242    0.7800 C.1     1  LIG1       -0.0648
     21 C           2.9304    1.2693    1.1098 C.1     1  LIG1       -0.1138
     22 H           3.8707    0.8762    1.4197 H       1  LIG1        0.1232
     23 O           1.5588    4.5741    0.0755 O.3     1  LIG1       -0.4927
     24 C           2.4329    4.4182   -1.0505 C.3     1  LIG1        0.0789
     25 H           3.2229    5.1598   -0.9222 H       1  LIG1        0.0660
     26 H           2.8737    3.4168   -1.0789 H       1  LIG1        0.0660
     27 H           1.8971    4.6118   -1.9873 H       1  LIG1        0.0660
     28 C          -1.2802    5.4682   -0.4340 C.ar    1  LIG1        0.0485
     29 C          -0.9744    6.6769    0.1776 C.ar    1  LIG1        0.0816
     30 C          -1.6716    7.7866   -0.4387 C.ar    1  LIG1        0.1430
     31 C          -2.4851    7.4104   -1.4693 C.ar    1  LIG1        0.0193
     32 S          -2.4284    5.7002   -1.7377 S.2     1  LIG1       -0.0910
     33 H          -3.1191    8.0512   -2.0640 H       1  LIG1        0.0731
     34 C          -0.1675    6.8171    1.3370 C.1     1  LIG1       -0.0648
     35 C           0.5022    6.9597    2.3349 C.1     1  LIG1       -0.1138
     36 H           1.0888    7.0637    3.2179 H       1  LIG1        0.1232
     37 O          -1.6018    9.0752    0.0059 O.3     1  LIG1       -0.4933
     38 C          -0.3424    9.7263   -0.1981 C.3     1  LIG1        0.0789
     39 H          -0.4493   10.7289    0.2197 H       1  LIG1        0.0660
     40 H           0.4684    9.2024    0.3173 H       1  LIG1        0.0660
     41 H          -0.1114    9.7994   -1.2682 H       1  LIG1        0.0660
@<TRIPOS>BOND
     1    33    31    1
     2    27    24    1
     3    32    31   ar
     4    32    28   ar
     5    12    11    1
     6    31    30   ar
     7    41    38    1
     8    26    24    1
     9    24    25    1
    10    24    23    1
    11    10    11    1
    12    10     3    1
    13    14    11    1
    14    11    13    1
    15     9     8    1
    16    30    37    1
    17    30    29   ar
    18    28    18    1
    19    28    29   ar
    20     8     7    3
    21    38    37    1
    22    38    39    1
    23    38    40    1
    24    18    19   ar
    25    18    17   ar
    26     7     2    1
    27    19    15   ar
    28     3     2   ar
    29     3     4   ar
    30    23    17    1
    31    17    16   ar
    32    29    34    1
    33    15    16   ar
    34    15     4    1
    35    16    20    1
    36     2     1   ar
    37     4     5   ar
    38    20    21    3
    39    21    22    1
    40    34    35    3
    41     1     5   ar
    42     1     6    1
    43    35    36    1
