@<TRIPOS>MOLECULE
mol_data/opt/b3lyp/geoms/mol2/5el5el5el.out
 41 43 0 0 0
SMALL
GASTEIGER

@<TRIPOS>ATOM
      1 C          -2.1165   -2.0384    0.5606 C.ar    1  LIG1       -0.0047
      2 C          -0.9406   -2.0923   -0.1562 C.ar    1  LIG1        0.0739
      3 C          -0.3136   -0.7895   -0.2514 C.ar    1  LIG1        0.1506
      4 C          -1.0313    0.2045    0.3863 C.ar    1  LIG1        0.0700
      5 S          -2.4900   -0.4527    1.1101 S.2     1  LIG1       -0.0911
      6 H          -2.7813   -2.8642    0.7688 H       1  LIG1        0.0707
      7 C          -0.4840   -3.2885   -0.7780 C.1     1  LIG1       -0.0654
      8 C          -0.1348   -4.3245   -1.2980 C.1     1  LIG1       -0.1138
      9 H           0.1713   -5.2297   -1.7692 H       1  LIG1        0.1232
     10 O           0.7928   -0.4914   -0.9789 O.3     1  LIG1       -0.4927
     11 C           1.9732   -1.2727   -0.7441 C.3     1  LIG1        0.0789
     12 H           2.7583   -0.8002   -1.3361 H       1  LIG1        0.0660
     13 H           2.2493   -1.2423    0.3140 H       1  LIG1        0.0660
     14 H           1.8390   -2.3069   -1.0678 H       1  LIG1        0.0660
     15 C          -0.7446    1.6271    0.4549 C.ar    1  LIG1        0.0491
     16 C           0.4238    2.2689    0.8466 C.ar    1  LIG1        0.0823
     17 C           0.3098    3.7087    0.7798 C.ar    1  LIG1        0.1513
     18 C          -0.9339    4.1454    0.3708 C.ar    1  LIG1        0.0706
     19 S          -1.9790    2.7821    0.0269 S.2     1  LIG1       -0.0820
     20 C           1.5437    1.5967    1.4063 C.1     1  LIG1       -0.0648
     21 C           2.4907    1.0446    1.9214 C.1     1  LIG1       -0.1138
     22 H           3.3168    0.5678    2.3958 H       1  LIG1        0.1232
     23 O           1.2598    4.5820    1.2052 O.3     1  LIG1       -0.4927
     24 C           2.5429    4.5133    0.5640 C.3     1  LIG1        0.0789
     25 H           3.1297    5.3252    0.9965 H       1  LIG1        0.0660
     26 H           3.0369    3.5590    0.7602 H       1  LIG1        0.0660
     27 H           2.4402    4.6729   -0.5130 H       1  LIG1        0.0660
     28 C          -1.4358    5.5067    0.2760 C.ar    1  LIG1        0.0485
     29 C          -0.9193    6.5929   -0.4160 C.ar    1  LIG1        0.0816
     30 C          -1.7294    7.7812   -0.2467 C.ar    1  LIG1        0.1430
     31 C          -2.8281    7.5796    0.5389 C.ar    1  LIG1        0.0193
     32 S          -2.9125    5.9475    1.1094 S.2     1  LIG1       -0.0910
     33 H          -3.5890    8.3036    0.7902 H       1  LIG1        0.0731
     34 C           0.2025    6.5508   -1.2856 C.1     1  LIG1       -0.0648
     35 C           1.1368    6.5564   -2.0564 C.1     1  LIG1       -0.1138
     36 H           1.9431    6.5551   -2.7526 H       1  LIG1        0.1232
     37 O          -1.4781    8.9700   -0.8692 O.3     1  LIG1       -0.4933
     38 C          -0.3396    9.6865   -0.3769 C.3     1  LIG1        0.0789
     39 H          -0.2758   10.5993   -0.9719 H       1  LIG1        0.0660
     40 H          -0.4714    9.9475    0.6804 H       1  LIG1        0.0660
     41 H           0.5817    9.1083   -0.4986 H       1  LIG1        0.0660
@<TRIPOS>BOND
     1    36    35    1
     2    35    34    3
     3     9     8    1
     4    12    11    1
     5     8     7    3
     6    34    29    1
     7    14    11    1
     8    10    11    1
     9    10     3    1
    10    39    38    1
    11    37    38    1
    12    37    30    1
    13     7     2    1
    14    11    13    1
    15    27    24    1
    16    41    38    1
    17    29    30   ar
    18    29    28   ar
    19    38    40    1
    20     3     2   ar
    21     3     4   ar
    22    30    31   ar
    23     2     1   ar
    24    19    18   ar
    25    19    15   ar
    26    28    18    1
    27    28    32   ar
    28    18    17   ar
    29     4    15    1
    30     4     5   ar
    31    15    16   ar
    32    31    33    1
    33    31    32   ar
    34     1     6    1
    35     1     5   ar
    36    24    26    1
    37    24    25    1
    38    24    23    1
    39    17    16   ar
    40    17    23    1
    41    16    20    1
    42    20    21    3
    43    21    22    1
