@<TRIPOS>MOLECULE
mol_data/opt/b3lyp/geoms/mol2/5el5el-5el-5el.out
 54 57 0 0 0
SMALL
GASTEIGER

@<TRIPOS>ATOM
      1 C          -1.5047   -1.7271    2.2458 C.ar    1  LIG1       -0.0047
      2 C          -0.9065   -2.0068    1.0360 C.ar    1  LIG1        0.0739
      3 C          -0.4259   -0.8031    0.3884 C.ar    1  LIG1        0.1506
      4 C          -0.6776    0.3423    1.1191 C.ar    1  LIG1        0.0700
      5 S          -1.5126   -0.0478    2.6137 S.2     1  LIG1       -0.0911
      6 H          -1.9534   -2.4408    2.9216 H       1  LIG1        0.0707
      7 C          -0.8658   -3.3232    0.4958 C.1     1  LIG1       -0.0654
      8 C          -0.8604   -4.4561    0.0692 C.1     1  LIG1       -0.1138
      9 H          -0.8635   -5.4487   -0.3178 H       1  LIG1        0.1232
     10 O           0.1101   -0.7274   -0.8559 O.3     1  LIG1       -0.4927
     11 C           1.2120   -1.5943   -1.1613 C.3     1  LIG1        0.0789
     12 H           1.5746   -1.2721   -2.1384 H       1  LIG1        0.0660
     13 H           2.0105   -1.4776   -0.4223 H       1  LIG1        0.0660
     14 H           0.8970   -2.6386   -1.2101 H       1  LIG1        0.0660
     15 C          -0.3916    1.7213    0.7624 C.ar    1  LIG1        0.0491
     16 C           0.8020    2.2904    0.3401 C.ar    1  LIG1        0.0823
     17 C           0.6744    3.7039    0.0779 C.ar    1  LIG1        0.1513
     18 C          -0.5856    4.2077    0.3256 C.ar    1  LIG1        0.0706
     19 S          -1.6534    2.9255    0.8667 S.2     1  LIG1       -0.0820
     20 C           2.0461    1.6103    0.2570 C.1     1  LIG1       -0.0648
     21 C           3.1315    1.0765    0.1980 C.1     1  LIG1       -0.1138
     22 H           4.0905    0.6139    0.1654 H       1  LIG1        0.1232
     23 O           1.7054    4.4863   -0.3415 O.3     1  LIG1       -0.4927
     24 C           2.1349    4.2633   -1.6917 C.3     1  LIG1        0.0789
     25 H           2.9512    4.9659   -1.8661 H       1  LIG1        0.0660
     26 H           2.4972    3.2404   -1.8324 H       1  LIG1        0.0660
     27 H           1.3198    4.4661   -2.3963 H       1  LIG1        0.0660
     28 C          -1.0621    5.5698    0.1743 C.ar    1  LIG1        0.0491
     29 C          -0.4774    6.7511    0.6127 C.ar    1  LIG1        0.0823
     30 C          -1.2643    7.9112    0.2680 C.ar    1  LIG1        0.1513
     31 C          -2.4391    7.6168   -0.3914 C.ar    1  LIG1        0.0706
     32 S          -2.5879    5.8835   -0.6211 S.2     1  LIG1       -0.0820
     33 C           0.7043    6.8282    1.3959 C.1     1  LIG1       -0.0648
     34 C           1.6991    6.9162    2.0793 C.1     1  LIG1       -0.1138
     35 H           2.5726    6.9735    2.6861 H       1  LIG1        0.1232
     36 O          -0.9123    9.1842    0.5947 O.3     1  LIG1       -0.4927
     37 C           0.2273    9.7074   -0.1007 C.3     1  LIG1        0.0789
     38 H           0.3686   10.7212    0.2772 H       1  LIG1        0.0660
     39 H           1.1250    9.1149    0.0994 H       1  LIG1        0.0660
     40 H           0.0401    9.7426   -1.1806 H       1  LIG1        0.0660
     41 C          -3.4581    8.5288   -0.8781 C.ar    1  LIG1        0.0485
     42 C          -4.0703    9.5855   -0.2171 C.ar    1  LIG1        0.0816
     43 C          -5.0451   10.2549   -1.0533 C.ar    1  LIG1        0.1430
     44 C          -5.1652    9.7011   -2.2958 C.ar    1  LIG1        0.0193
     45 S          -4.0949    8.3548   -2.5021 S.2     1  LIG1       -0.0910
     46 H          -5.8382   10.0088   -3.0824 H       1  LIG1        0.0731
     47 C          -3.8637    9.9160    1.1479 C.1     1  LIG1       -0.0648
     48 C          -3.7174   10.2054    2.3139 C.1     1  LIG1       -0.1138
     49 H          -3.5798   10.4390    3.3439 H       1  LIG1        0.1232
     50 O          -5.8362   11.2842   -0.6314 O.3     1  LIG1       -0.4933
     51 C          -5.1562   12.5222   -0.3936 C.3     1  LIG1        0.0789
     52 H          -5.9182   13.2250   -0.0524 H       1  LIG1        0.0660
     53 H          -4.3877   12.4162    0.3781 H       1  LIG1        0.0660
     54 H          -4.6999   12.8987   -1.3177 H       1  LIG1        0.0660
@<TRIPOS>BOND
     1    46    44    1
     2    45    44   ar
     3    45    41   ar
     4    27    24    1
     5    44    43   ar
     6    12    11    1
     7    25    24    1
     8    26    24    1
     9    24    23    1
    10    54    51    1
    11    14    11    1
    12    40    37    1
    13    11    10    1
    14    11    13    1
    15    43    50    1
    16    43    42   ar
    17    41    31    1
    18    41    42   ar
    19    10     3    1
    20    50    51    1
    21    32    31   ar
    22    32    28   ar
    23    51    52    1
    24    51    53    1
    25    31    30   ar
    26    23    17    1
    27     9     8    1
    28    42    47    1
    29    37    39    1
    30    37    38    1
    31    37    36    1
    32     8     7    3
    33    17    18   ar
    34    17    16   ar
    35    22    21    1
    36    28    18    1
    37    28    29   ar
    38    21    20    3
    39    20    16    1
    40    30    36    1
    41    30    29   ar
    42    18    19   ar
    43    16    15   ar
    44     3     2   ar
    45     3     4   ar
    46     7     2    1
    47    29    33    1
    48    15    19   ar
    49    15     4    1
    50     2     1   ar
    51     4     5   ar
    52    47    48    3
    53    33    34    3
    54    34    35    1
    55     1     5   ar
    56     1     6    1
    57    48    49    1
