@<TRIPOS>MOLECULE
mol_data/opt/b3lyp/geoms/mol2/5el5el-5el-5el-.out
 54 57 0 0 0
SMALL
GASTEIGER

@<TRIPOS>ATOM
      1 C          -1.3808   -2.0033    1.8769 C.ar    1  LIG1       -0.0047
      2 C          -0.7935   -2.1281    0.6363 C.ar    1  LIG1        0.0739
      3 C          -0.3697   -0.8441    0.1156 C.ar    1  LIG1        0.1506
      4 C          -0.6517    0.2058    0.9686 C.ar    1  LIG1        0.0700
      5 S          -1.4454   -0.3744    2.4233 S.2     1  LIG1       -0.0911
      6 H          -1.7908   -2.8022    2.4777 H       1  LIG1        0.0707
      7 C          -0.7129   -3.3757   -0.0441 C.1     1  LIG1       -0.0654
      8 C          -0.6718   -4.4543   -0.5922 C.1     1  LIG1       -0.1138
      9 H          -0.6441   -5.3983   -1.0855 H       1  LIG1        0.1232
     10 O           0.1399   -0.6159   -1.1211 O.3     1  LIG1       -0.4927
     11 C           1.2742   -1.3947   -1.5289 C.3     1  LIG1        0.0789
     12 H           1.5969   -0.9649   -2.4782 H       1  LIG1        0.0660
     13 H           2.0838   -1.3074   -0.7981 H       1  LIG1        0.0660
     14 H           1.0082   -2.4442   -1.6701 H       1  LIG1        0.0660
     15 C          -0.4232    1.6251    0.7590 C.ar    1  LIG1        0.0491
     16 C           0.7439    2.2822    0.3943 C.ar    1  LIG1        0.0823
     17 C           0.5603    3.7091    0.2842 C.ar    1  LIG1        0.1513
     18 C          -0.7162    4.1345    0.5892 C.ar    1  LIG1        0.0706
     19 S          -1.7297    2.7614    0.9954 S.2     1  LIG1       -0.0820
     20 C           2.0126    1.6646    0.2318 C.1     1  LIG1       -0.0648
     21 C           3.1174    1.1843    0.1094 C.1     1  LIG1       -0.1138
     22 H           4.0936    0.7670    0.0212 H       1  LIG1        0.1232
     23 O           1.5583    4.5688   -0.0560 O.3     1  LIG1       -0.4927
     24 C           1.9682    4.5172   -1.4298 C.3     1  LIG1        0.0789
     25 H           2.7692    5.2511   -1.5313 H       1  LIG1        0.0660
     26 H           2.3456    3.5253   -1.6969 H       1  LIG1        0.0660
     27 H           1.1375    4.7871   -2.0921 H       1  LIG1        0.0660
     28 C          -1.2472    5.4841    0.5794 C.ar    1  LIG1        0.0491
     29 C          -0.6974    6.6386    1.1263 C.ar    1  LIG1        0.0823
     30 C          -1.5315    7.7988    0.9063 C.ar    1  LIG1        0.1513
     31 C          -2.7026    7.5182    0.2309 C.ar    1  LIG1        0.0706
     32 S          -2.7859    5.8149   -0.1749 S.2     1  LIG1       -0.0820
     33 C           0.4633    6.6382    1.9454 C.1     1  LIG1       -0.0648
     34 C           1.4349    6.6250    2.6669 C.1     1  LIG1       -0.1138
     35 H           2.2883    6.5990    3.3039 H       1  LIG1        0.1232
     36 O          -1.2970    9.0354    1.4166 O.3     1  LIG1       -0.4927
     37 C          -0.0443    9.6551    1.0877 C.3     1  LIG1        0.0789
     38 H          -0.0914   10.6559    1.5194 H       1  LIG1        0.0660
     39 H           0.7969    9.1075    1.5179 H       1  LIG1        0.0660
     40 H           0.0698    9.7332    0.0026 H       1  LIG1        0.0660
     41 C          -3.8052    8.4084   -0.0897 C.ar    1  LIG1        0.0485
     42 C          -3.7914    9.6353   -0.7386 C.ar    1  LIG1        0.0816
     43 C          -5.1186   10.2012   -0.8610 C.ar    1  LIG1        0.1430
     44 C          -6.0961    9.4090   -0.3304 C.ar    1  LIG1        0.0193
     45 S          -5.4412    7.9567    0.3469 S.2     1  LIG1       -0.0910
     46 H          -7.1582    9.6044   -0.3219 H       1  LIG1        0.0731
     47 C          -2.6486   10.2403   -1.3251 C.1     1  LIG1       -0.0648
     48 C          -1.7094   10.7832   -1.8637 C.1     1  LIG1       -0.1138
     49 H          -0.8879   11.2514   -2.3542 H       1  LIG1        0.1232
     50 O          -5.3900   11.3703   -1.5120 O.3     1  LIG1       -0.4933
     51 C          -4.9654   12.5575   -0.8325 C.3     1  LIG1        0.0789
     52 H          -5.2402   13.3921   -1.4799 H       1  LIG1        0.0660
     53 H          -5.4784   12.6584    0.1320 H       1  LIG1        0.0660
     54 H          -3.8826   12.5628   -0.6726 H       1  LIG1        0.0660
@<TRIPOS>BOND
     1    12    11    1
     2    49    48    1
     3    27    24    1
     4    48    47    3
     5    26    24    1
     6    14    11    1
     7    25    24    1
     8    11    10    1
     9    11    13    1
    10    50    43    1
    11    50    51    1
    12    52    51    1
    13    24    23    1
    14    47    42    1
    15    10     3    1
    16     9     8    1
    17    43    42   ar
    18    43    44   ar
    19    51    54    1
    20    51    53    1
    21    42    41   ar
    22     8     7    3
    23    44    46    1
    24    44    45   ar
    25    32    31   ar
    26    32    28   ar
    27    41    31    1
    28    41    45   ar
    29    23    17    1
    30     7     2    1
    31    40    37    1
    32    22    21    1
    33    21    20    3
    34     3     2   ar
    35     3     4   ar
    36    31    30   ar
    37    20    16    1
    38    17    16   ar
    39    17    18   ar
    40    16    15   ar
    41    28    18    1
    42    28    29   ar
    43    18    19   ar
    44     2     1   ar
    45    15     4    1
    46    15    19   ar
    47    30    29   ar
    48    30    36    1
    49     4     5   ar
    50    37    36    1
    51    37    39    1
    52    37    38    1
    53    29    33    1
    54     1     5   ar
    55     1     6    1
    56    33    34    3
    57    34    35    1
