@<TRIPOS>MOLECULE
mol_data/opt/b3lyp/geoms/mol2/5el5el-5el.out
 41 43 0 0 0
SMALL
GASTEIGER

@<TRIPOS>ATOM
      1 C          -1.9257   -1.8672    1.4565 C.ar    1  LIG1       -0.0047
      2 C          -0.9518   -2.0944    0.5085 C.ar    1  LIG1        0.0739
      3 C          -0.3597   -0.8561    0.0441 C.ar    1  LIG1        0.1506
      4 C          -0.9028    0.2629    0.6450 C.ar    1  LIG1        0.0700
      5 S          -2.1524   -0.1957    1.7906 S.2     1  LIG1       -0.0911
      6 H          -2.5264   -2.6147    1.9543 H       1  LIG1        0.0707
      7 C          -0.6563   -3.3962    0.0148 C.1     1  LIG1       -0.0654
      8 C          -0.4386   -4.5174   -0.3866 C.1     1  LIG1       -0.1138
      9 H          -0.2520   -5.5002   -0.7530 H       1  LIG1        0.1232
     10 O           0.5453   -0.7413   -0.9613 O.3     1  LIG1       -0.4927
     11 C           1.7583   -1.5004   -0.8475 C.3     1  LIG1        0.0789
     12 H           2.3781   -1.1885   -1.6893 H       1  LIG1        0.0660
     13 H           2.2719   -1.2627    0.0886 H       1  LIG1        0.0660
     14 H           1.5656   -2.5736   -0.9095 H       1  LIG1        0.0660
     15 C          -0.6021    1.6626    0.3934 C.ar    1  LIG1        0.0491
     16 C           0.6220    2.3160    0.4073 C.ar    1  LIG1        0.0823
     17 C           0.4987    3.7216    0.1027 C.ar    1  LIG1        0.1513
     18 C          -0.7985    4.1367   -0.1109 C.ar    1  LIG1        0.0706
     19 S          -1.8988    2.7793    0.0391 S.2     1  LIG1       -0.0820
     20 C           1.8623    1.7242    0.7663 C.1     1  LIG1       -0.0648
     21 C           2.9369    1.2695    1.0900 C.1     1  LIG1       -0.1138
     22 H           3.8791    0.8766    1.3946 H       1  LIG1        0.1232
     23 O           1.5586    4.5746    0.0654 O.3     1  LIG1       -0.4927
     24 C           2.4271    4.4199   -1.0651 C.3     1  LIG1        0.0789
     25 H           3.2179    5.1612   -0.9398 H       1  LIG1        0.0660
     26 H           2.8676    3.4185   -1.0969 H       1  LIG1        0.0660
     27 H           1.8867    4.6147   -1.9989 H       1  LIG1        0.0660
     28 C          -1.2833    5.4678   -0.4289 C.ar    1  LIG1        0.0485
     29 C          -0.9749    6.6763    0.1818 C.ar    1  LIG1        0.0816
     30 C          -1.6758    7.7860   -0.4302 C.ar    1  LIG1        0.1430
     31 C          -2.4946    7.4102   -1.4566 C.ar    1  LIG1        0.0193
     32 S          -2.4385    5.7002   -1.7265 S.2     1  LIG1       -0.0910
     33 H          -3.1320    8.0510   -2.0477 H       1  LIG1        0.0731
     34 C          -0.1620    6.8164    1.3370 C.1     1  LIG1       -0.0648
     35 C           0.5128    6.9590    2.3315 C.1     1  LIG1       -0.1138
     36 H           1.1040    7.0631    3.2114 H       1  LIG1        0.1232
     37 O          -1.6042    9.0744    0.0148 O.3     1  LIG1       -0.4933
     38 C          -0.3463    9.7263   -0.1957 C.3     1  LIG1        0.0789
     39 H          -0.4514   10.7287    0.2228 H       1  LIG1        0.0660
     40 H           0.4676    9.2027    0.3151 H       1  LIG1        0.0660
     41 H          -0.1211    9.7997   -1.2671 H       1  LIG1        0.0660
@<TRIPOS>BOND
     1    33    31    1
     2    27    24    1
     3    32    31   ar
     4    32    28   ar
     5    12    11    1
     6    31    30   ar
     7    41    38    1
     8    26    24    1
     9    24    25    1
    10    24    23    1
    11    10    11    1
    12    10     3    1
    13    14    11    1
    14    11    13    1
    15     9     8    1
    16    30    37    1
    17    30    29   ar
    18    28    18    1
    19    28    29   ar
    20     8     7    3
    21    38    37    1
    22    38    39    1
    23    38    40    1
    24    18    19   ar
    25    18    17   ar
    26     7     2    1
    27    19    15   ar
    28     3     2   ar
    29     3     4   ar
    30    23    17    1
    31    17    16   ar
    32    29    34    1
    33    15    16   ar
    34    15     4    1
    35    16    20    1
    36     2     1   ar
    37     4     5   ar
    38    20    21    3
    39    21    22    1
    40    34    35    3
    41     1     5   ar
    42     1     6    1
    43    35    36    1
