@<TRIPOS>MOLECULE
mol_data/opt/b3lyp/geoms/mol2/5el5el5el5el-.out
 54 57 0 0 0
SMALL
GASTEIGER

@<TRIPOS>ATOM
      1 C          -2.1676   -2.0579    0.3567 C.ar    1  LIG1       -0.0047
      2 C          -0.9018   -2.1475   -0.1816 C.ar    1  LIG1        0.0739
      3 C          -0.2552   -0.8526   -0.2416 C.ar    1  LIG1        0.1506
      4 C          -1.0471    0.1711    0.2445 C.ar    1  LIG1        0.0700
      5 S          -2.6005   -0.4488    0.7796 S.2     1  LIG1       -0.0911
      6 H          -2.8632   -2.8715    0.5032 H       1  LIG1        0.0707
      7 C          -0.3744   -3.3724   -0.6792 C.1     1  LIG1       -0.0654
      8 C           0.0318   -4.4330   -1.0983 C.1     1  LIG1       -0.1138
      9 H           0.3905   -5.3606   -1.4804 H       1  LIG1        0.1232
     10 O           0.9457   -0.5877   -0.8150 O.3     1  LIG1       -0.4927
     11 C           2.0708   -1.3770   -0.4030 C.3     1  LIG1        0.0789
     12 H           2.9406   -0.9097   -0.8666 H       1  LIG1        0.0660
     13 H           2.1821   -1.3501    0.6851 H       1  LIG1        0.0660
     14 H           1.9803   -2.4102   -0.7445 H       1  LIG1        0.0660
     15 C          -0.7595    1.5936    0.2898 C.ar    1  LIG1        0.0491
     16 C           0.3598    2.2479    0.7916 C.ar    1  LIG1        0.0823
     17 C           0.2685    3.6830    0.6468 C.ar    1  LIG1        0.1513
     18 C          -0.9142    4.1055    0.0717 C.ar    1  LIG1        0.0706
     19 S          -1.9239    2.7322   -0.3333 S.2     1  LIG1       -0.0820
     20 C           1.3936    1.5949    1.5156 C.1     1  LIG1       -0.0648
     21 C           2.2601    1.0587    2.1702 C.1     1  LIG1       -0.1138
     22 H           3.0130    0.5969    2.7659 H       1  LIG1        0.1232
     23 O           1.1650    4.5755    1.1405 O.3     1  LIG1       -0.4927
     24 C           2.5254    4.4549    0.6974 C.3     1  LIG1        0.0789
     25 H           3.0465    5.3165    1.1173 H       1  LIG1        0.0660
     26 H           2.9842    3.5335    1.0625 H       1  LIG1        0.0660
     27 H           2.5770    4.4961   -0.3942 H       1  LIG1        0.0660
     28 C          -1.3881    5.4617   -0.1409 C.ar    1  LIG1        0.0491
     29 C          -0.7640    6.5212   -0.7888 C.ar    1  LIG1        0.0823
     30 C          -1.5715    7.7203   -0.7859 C.ar    1  LIG1        0.1513
     31 C          -2.7972    7.5589   -0.1713 C.ar    1  LIG1        0.0706
     32 S          -2.9633    5.9279    0.4456 S.2     1  LIG1       -0.0820
     33 C           0.4488    6.3928   -1.5182 C.1     1  LIG1       -0.0648
     34 C           1.4591    6.2886   -2.1779 C.1     1  LIG1       -0.1138
     35 H           2.3338    6.1966   -2.7791 H       1  LIG1        0.1232
     36 O          -1.2572    8.8726   -1.4328 O.3     1  LIG1       -0.4927
     37 C          -0.0213    9.5095   -1.0747 C.3     1  LIG1        0.0789
     38 H          -0.0136   10.4572   -1.6152 H       1  LIG1        0.0660
     39 H           0.0114    9.7052    0.0009 H       1  LIG1        0.0660
     40 H           0.8395    8.9079   -1.3749 H       1  LIG1        0.0660
     41 C          -3.8913    8.5086   -0.0577 C.ar    1  LIG1        0.0485
     42 C          -3.8873    9.8080    0.4297 C.ar    1  LIG1        0.0816
     43 C          -5.2003   10.4157    0.3697 C.ar    1  LIG1        0.1430
     44 C          -6.1591    9.5846   -0.1348 C.ar    1  LIG1        0.0193
     45 S          -5.5022    8.0422   -0.5663 S.2     1  LIG1       -0.0910
     46 H          -7.2100    9.8020   -0.2557 H       1  LIG1        0.0731
     47 C          -2.7746   10.4554    1.0288 C.1     1  LIG1       -0.0648
     48 C          -1.8630   11.0395    1.5715 C.1     1  LIG1       -0.1138
     49 H          -1.0674   11.5437    2.0692 H       1  LIG1        0.1232
     50 O          -5.4834   11.6650    0.8424 O.3     1  LIG1       -0.4933
     51 C          -4.9609   12.7447    0.0595 C.3     1  LIG1        0.0789
     52 H          -5.2608   13.6617    0.5698 H       1  LIG1        0.0660
     53 H          -3.8689   12.7037   -0.0023 H       1  LIG1        0.0660
     54 H          -5.3856   12.7332   -0.9519 H       1  LIG1        0.0660
@<TRIPOS>BOND
     1    35    34    1
     2    34    33    3
     3    38    37    1
     4    33    29    1
     5     9     8    1
     6    36    37    1
     7    36    30    1
     8    40    37    1
     9     8     7    3
    10    37    39    1
    11    54    51    1
    12    12    11    1
    13    10    11    1
    14    10     3    1
    15    29    30   ar
    16    29    28   ar
    17    30    31   ar
    18    14    11    1
    19     7     2    1
    20    45    44   ar
    21    45    41   ar
    22    11    13    1
    23    27    24    1
    24    19    18   ar
    25    19    15   ar
    26    46    44    1
    27     3     2   ar
    28     3     4   ar
    29     2     1   ar
    30    31    41    1
    31    31    32   ar
    32    28    18    1
    33    28    32   ar
    34    44    43   ar
    35    41    42   ar
    36    53    51    1
    37    51    52    1
    38    51    50    1
    39    18    17   ar
    40     4    15    1
    41     4     5   ar
    42    15    16   ar
    43     1     6    1
    44     1     5   ar
    45    43    42   ar
    46    43    50    1
    47    42    47    1
    48    17    16   ar
    49    17    23    1
    50    24    26    1
    51    24    25    1
    52    24    23    1
    53    16    20    1
    54    47    48    3
    55    20    21    3
    56    48    49    1
    57    21    22    1
