@<TRIPOS>MOLECULE
mol_data/opt/b3lyp/geoms/mol2/5el5el-5el5el.out
 54 57 0 0 0
SMALL
GASTEIGER

@<TRIPOS>ATOM
      1 C          -1.4424   -1.7176    2.2913 C.ar    1  LIG1       -0.0047
      2 C          -0.8608   -2.0013    1.0743 C.ar    1  LIG1        0.0739
      3 C          -0.3954   -0.7990    0.4132 C.ar    1  LIG1        0.1506
      4 C          -0.6414    0.3493    1.1414 C.ar    1  LIG1        0.0700
      5 S          -1.4525   -0.0364    2.6502 S.2     1  LIG1       -0.0911
      6 H          -1.8779   -2.4296    2.9775 H       1  LIG1        0.0707
      7 C          -0.8222   -3.3204    0.5408 C.1     1  LIG1       -0.0654
      8 C          -0.8179   -4.4556    0.1203 C.1     1  LIG1       -0.1138
      9 H          -0.8221   -5.4504   -0.2612 H       1  LIG1        0.1232
     10 O           0.1220   -0.7277   -0.8392 O.3     1  LIG1       -0.4927
     11 C           1.2229   -1.5915   -1.1564 C.3     1  LIG1        0.0789
     12 H           1.5704   -1.2722   -2.1399 H       1  LIG1        0.0660
     13 H           2.0313   -1.4686   -0.4293 H       1  LIG1        0.0660
     14 H           0.9113   -2.6373   -1.1962 H       1  LIG1        0.0660
     15 C          -0.3669    1.7276    0.7733 C.ar    1  LIG1        0.0491
     16 C           0.8177    2.2997    0.3301 C.ar    1  LIG1        0.0823
     17 C           0.6799    3.7112    0.0628 C.ar    1  LIG1        0.1513
     18 C          -0.5784    4.2108    0.3269 C.ar    1  LIG1        0.0706
     19 S          -1.6323    2.9268    0.8905 S.2     1  LIG1       -0.0820
     20 C           2.0634    1.6245    0.2317 C.1     1  LIG1       -0.0648
     21 C           3.1500    1.0950    0.1591 C.1     1  LIG1       -0.1138
     22 H           4.1104    0.6363    0.1144 H       1  LIG1        0.1232
     23 O           1.7009    4.4960   -0.3761 O.3     1  LIG1       -0.4927
     24 C           2.1114    4.2678   -1.7314 C.3     1  LIG1        0.0789
     25 H           2.9215    4.9737   -1.9216 H       1  LIG1        0.0660
     26 H           2.4770    3.2460   -1.8719 H       1  LIG1        0.0660
     27 H           1.2850    4.4625   -2.4248 H       1  LIG1        0.0660
     28 C          -1.0630    5.5700    0.1758 C.ar    1  LIG1        0.0491
     29 C          -0.4768    6.7560    0.5993 C.ar    1  LIG1        0.0823
     30 C          -1.2736    7.9111    0.2604 C.ar    1  LIG1        0.1513
     31 C          -2.4568    7.6084   -0.3800 C.ar    1  LIG1        0.0706
     32 S          -2.6018    5.8733   -0.5986 S.2     1  LIG1       -0.0820
     33 C           0.7160    6.8420    1.3645 C.1     1  LIG1       -0.0648
     34 C           1.7203    6.9375    2.0328 C.1     1  LIG1       -0.1138
     35 H           2.6024    7.0014    2.6264 H       1  LIG1        0.1232
     36 O          -0.9221    9.1872    0.5752 O.3     1  LIG1       -0.4927
     37 C           0.2047    9.7113   -0.1399 C.3     1  LIG1        0.0789
     38 H           0.3473   10.7278    0.2302 H       1  LIG1        0.0660
     39 H           1.1079    9.1238    0.0500 H       1  LIG1        0.0660
     40 H           0.0013    9.7397   -1.2171 H       1  LIG1        0.0660
     41 C          -3.4869    8.5135   -0.8561 C.ar    1  LIG1        0.0485
     42 C          -4.0935    9.5714   -0.1920 C.ar    1  LIG1        0.0816
     43 C          -5.0836   10.2320   -1.0171 C.ar    1  LIG1        0.1430
     44 C          -5.2203    9.6705   -2.2545 C.ar    1  LIG1        0.0193
     45 S          -4.1476    8.3275   -2.4693 S.2     1  LIG1       -0.0910
     46 H          -5.9064    9.9709   -3.0325 H       1  LIG1        0.0731
     47 C          -3.8677    9.9109    1.1677 C.1     1  LIG1       -0.0648
     48 C          -3.7053   10.2079    2.3297 C.1     1  LIG1       -0.1138
     49 H          -3.5532   10.4483    3.3561 H       1  LIG1        0.1232
     50 O          -5.8725   11.2604   -0.5890 O.3     1  LIG1       -0.4933
     51 C          -5.1941   12.5027   -0.3693 C.3     1  LIG1        0.0789
     52 H          -5.9538   13.2045   -0.0210 H       1  LIG1        0.0660
     53 H          -4.4136   12.4046    0.3913 H       1  LIG1        0.0660
     54 H          -4.7534   12.8752   -1.3026 H       1  LIG1        0.0660
@<TRIPOS>BOND
     1    46    44    1
     2    45    44   ar
     3    45    41   ar
     4    27    24    1
     5    44    43   ar
     6    12    11    1
     7    25    24    1
     8    26    24    1
     9    24    23    1
    10    54    51    1
    11    40    37    1
    12    14    11    1
    13    11    10    1
    14    11    13    1
    15    43    50    1
    16    43    42   ar
    17    41    31    1
    18    41    42   ar
    19    10     3    1
    20    32    31   ar
    21    32    28   ar
    22    50    51    1
    23    31    30   ar
    24    23    17    1
    25    51    52    1
    26    51    53    1
    27     9     8    1
    28    42    47    1
    29    37    39    1
    30    37    38    1
    31    37    36    1
    32    17    18   ar
    33    17    16   ar
    34    22    21    1
    35     8     7    3
    36    21    20    3
    37    28    18    1
    38    28    29   ar
    39    20    16    1
    40    30    36    1
    41    30    29   ar
    42    18    19   ar
    43    16    15   ar
    44     3     2   ar
    45     3     4   ar
    46     7     2    1
    47    29    33    1
    48    15    19   ar
    49    15     4    1
    50     2     1   ar
    51     4     5   ar
    52    47    48    3
    53    33    34    3
    54    34    35    1
    55     1     5   ar
    56     1     6    1
    57    48    49    1
