@<TRIPOS>MOLECULE
mol_data/opt/b3lyp/geoms/mol2/5el5el5el-5el.out
 54 57 0 0 0
SMALL
GASTEIGER

@<TRIPOS>ATOM
      1 C          -1.5182   -1.7025    2.2963 C.ar    1  LIG1       -0.0047
      2 C          -0.9192   -1.9958    1.0901 C.ar    1  LIG1        0.0739
      3 C          -0.4361   -0.7997    0.4304 C.ar    1  LIG1        0.1506
      4 C          -0.6866    0.3537    1.1489 C.ar    1  LIG1        0.0700
      5 S          -1.5238   -0.0194    2.6466 S.2     1  LIG1       -0.0911
      6 H          -1.9687   -2.4084    2.9790 H       1  LIG1        0.0707
      7 C          -0.8802   -3.3178    0.5637 C.1     1  LIG1       -0.0654
      8 C          -0.8762   -4.4551    0.1489 C.1     1  LIG1       -0.1138
      9 H          -0.8805   -5.4518   -0.2276 H       1  LIG1        0.1232
     10 O           0.1013   -0.7378   -0.8140 O.3     1  LIG1       -0.4927
     11 C           1.2021   -1.6096   -1.1093 C.3     1  LIG1        0.0789
     12 H           1.5662   -1.2982   -2.0894 H       1  LIG1        0.0660
     13 H           2.0001   -1.4866   -0.3708 H       1  LIG1        0.0660
     14 H           0.8854   -2.6539   -1.1476 H       1  LIG1        0.0660
     15 C          -0.3979    1.7284    0.7782 C.ar    1  LIG1        0.0491
     16 C           0.7972    2.2910    0.3514 C.ar    1  LIG1        0.0823
     17 C           0.6724    3.7019    0.0743 C.ar    1  LIG1        0.1513
     18 C          -0.5870    4.2104    0.3151 C.ar    1  LIG1        0.0706
     19 S          -1.6578    2.9357    0.8682 S.2     1  LIG1       -0.0820
     20 C           2.0402    1.6078    0.2771 C.1     1  LIG1       -0.0648
     21 C           3.1246    1.0714    0.2251 C.1     1  LIG1       -0.1138
     22 H           4.0829    0.6068    0.1986 H       1  LIG1        0.1232
     23 O           1.7052    4.4780   -0.3520 O.3     1  LIG1       -0.4927
     24 C           2.1359    4.2403   -1.6993 C.3     1  LIG1        0.0789
     25 H           2.9533    4.9401   -1.8802 H       1  LIG1        0.0660
     26 H           2.4973    3.2155   -1.8287 H       1  LIG1        0.0660
     27 H           1.3218    4.4365   -2.4069 H       1  LIG1        0.0660
     28 C          -1.0610    5.5716    0.1490 C.ar    1  LIG1        0.0491
     29 C          -0.4747    6.7565    0.5754 C.ar    1  LIG1        0.0823
     30 C          -1.2592    7.9143    0.2176 C.ar    1  LIG1        0.1513
     31 C          -2.4338    7.6149   -0.4399 C.ar    1  LIG1        0.0706
     32 S          -2.5855    5.8796   -0.6513 S.2     1  LIG1       -0.0820
     33 C           0.7064    6.8399    1.3590 C.1     1  LIG1       -0.0648
     34 C           1.7005    6.9333    2.0426 C.1     1  LIG1       -0.1138
     35 H           2.5734    6.9955    2.6498 H       1  LIG1        0.1232
     36 O          -0.9053    9.1900    0.5311 O.3     1  LIG1       -0.4927
     37 C           0.2360    9.7039   -0.1685 C.3     1  LIG1        0.0789
     38 H           0.3784   10.7215    0.1986 H       1  LIG1        0.0660
     39 H           1.1325    9.1121    0.0391 H       1  LIG1        0.0660
     40 H           0.0501    9.7276   -1.2489 H       1  LIG1        0.0660
     41 C          -3.4509    8.5234   -0.9372 C.ar    1  LIG1        0.0485
     42 C          -4.0618    9.5883   -0.2883 C.ar    1  LIG1        0.0816
     43 C          -5.0348   10.2502   -1.1326 C.ar    1  LIG1        0.1430
     44 C          -5.1549    9.6830   -2.3690 C.ar    1  LIG1        0.0193
     45 S          -4.0868    8.3327   -2.5597 S.2     1  LIG1       -0.0910
     46 H          -5.8267    9.9832   -3.1595 H       1  LIG1        0.0731
     47 C          -3.8558    9.9335    1.0731 C.1     1  LIG1       -0.0648
     48 C          -3.7101   10.2357    2.2360 C.1     1  LIG1       -0.1138
     49 H          -3.5731   10.4806    3.2635 H       1  LIG1        0.1232
     50 O          -5.8244   11.2854   -0.7225 O.3     1  LIG1       -0.4933
     51 C          -5.1425   12.5248   -0.4982 C.3     1  LIG1        0.0789
     52 H          -5.9036   13.2328   -0.1658 H       1  LIG1        0.0660
     53 H          -4.3750   12.4262    0.2756 H       1  LIG1        0.0660
     54 H          -4.6845   12.8900   -1.4260 H       1  LIG1        0.0660
@<TRIPOS>BOND
     1    46    44    1
     2    45    44   ar
     3    45    41   ar
     4    27    24    1
     5    44    43   ar
     6    12    11    1
     7    25    24    1
     8    26    24    1
     9    24    23    1
    10    54    51    1
    11    40    37    1
    12    14    11    1
    13    43    50    1
    14    43    42   ar
    15    11    10    1
    16    11    13    1
    17    41    31    1
    18    41    42   ar
    19    10     3    1
    20    50    51    1
    21    32    31   ar
    22    32    28   ar
    23    51    52    1
    24    51    53    1
    25    31    30   ar
    26    23    17    1
    27    42    47    1
    28     9     8    1
    29    37    39    1
    30    37    38    1
    31    37    36    1
    32    17    18   ar
    33    17    16   ar
    34     8     7    3
    35    28    18    1
    36    28    29   ar
    37    22    21    1
    38    30    36    1
    39    30    29   ar
    40    21    20    3
    41    20    16    1
    42    18    19   ar
    43    16    15   ar
    44     3     2   ar
    45     3     4   ar
    46     7     2    1
    47    29    33    1
    48    15    19   ar
    49    15     4    1
    50    47    48    3
    51     2     1   ar
    52     4     5   ar
    53    33    34    3
    54    34    35    1
    55    48    49    1
    56     1     5   ar
    57     1     6    1
