@<TRIPOS>MOLECULE
mol_data/opt/b3lyp/geoms/mol2/5el5el-5el-.out
 41 43 0 0 0
SMALL
GASTEIGER

@<TRIPOS>ATOM
      1 C          -1.8892   -1.8828    1.4628 C.ar    1  LIG1       -0.0047
      2 C          -0.9224   -2.1014    0.5055 C.ar    1  LIG1        0.0739
      3 C          -0.3406   -0.8583    0.0410 C.ar    1  LIG1        0.1506
      4 C          -0.8839    0.2555    0.6510 C.ar    1  LIG1        0.0700
      5 S          -2.1214   -0.2138    1.8054 S.2     1  LIG1       -0.0911
      6 H          -2.4819   -2.6352    1.9628 H       1  LIG1        0.0707
      7 C          -0.6247   -3.3998    0.0042 C.1     1  LIG1       -0.0654
      8 C          -0.4050   -4.5183   -0.4034 C.1     1  LIG1       -0.1138
      9 H          -0.2166   -5.4987   -0.7754 H       1  LIG1        0.1232
     10 O           0.5551   -0.7349   -0.9719 O.3     1  LIG1       -0.4927
     11 C           1.7727   -1.4884   -0.8719 C.3     1  LIG1        0.0789
     12 H           2.3833   -1.1704   -1.7182 H       1  LIG1        0.0660
     13 H           2.2937   -1.2516    0.0604 H       1  LIG1        0.0660
     14 H           1.5847   -2.5623   -0.9361 H       1  LIG1        0.0660
     15 C          -0.5923    1.6577    0.4024 C.ar    1  LIG1        0.0491
     16 C           0.6286    2.3170    0.4083 C.ar    1  LIG1        0.0823
     17 C           0.4959    3.7231    0.1100 C.ar    1  LIG1        0.1513
     18 C          -0.8051    4.1327   -0.0909 C.ar    1  LIG1        0.0706
     19 S          -1.8975    2.7693    0.0634 S.2     1  LIG1       -0.0820
     20 C           1.8746    1.7298    0.7550 C.1     1  LIG1       -0.0648
     21 C           2.9538    1.2788    1.0685 C.1     1  LIG1       -0.1138
     22 H           3.9001    0.8891    1.3641 H       1  LIG1        0.1232
     23 O           1.5511    4.5817    0.0669 O.3     1  LIG1       -0.4927
     24 C           2.4119    4.4345   -1.0704 C.3     1  LIG1        0.0789
     25 H           3.2000    5.1793   -0.9488 H       1  LIG1        0.0660
     26 H           2.8572    3.4354   -1.1084 H       1  LIG1        0.0660
     27 H           1.8637    4.6293   -1.9996 H       1  LIG1        0.0660
     28 C          -1.2991    5.4626   -0.3997 C.ar    1  LIG1        0.0485
     29 C          -0.9914    6.6702    0.2128 C.ar    1  LIG1        0.0816
     30 C          -1.7031    7.7787   -0.3889 C.ar    1  LIG1        0.1430
     31 C          -2.5287    7.4027   -1.4098 C.ar    1  LIG1        0.0193
     32 S          -2.4665    5.6940   -1.6865 S.2     1  LIG1       -0.0910
     33 H          -3.1744    8.0424   -1.9929 H       1  LIG1        0.0731
     34 C          -0.1692    6.8103    1.3614 C.1     1  LIG1       -0.0648
     35 C           0.5135    6.9528    2.3505 C.1     1  LIG1       -0.1138
     36 H           1.1119    7.0569    3.2255 H       1  LIG1        0.1232
     37 O          -1.6339    9.0658    0.0604 O.3     1  LIG1       -0.4933
     38 C          -0.3813    9.7249   -0.1597 C.3     1  LIG1        0.0789
     39 H          -0.4877   10.7254    0.2632 H       1  LIG1        0.0660
     40 H           0.4400    9.2038    0.3417 H       1  LIG1        0.0660
     41 H          -0.1666    9.8031   -1.2329 H       1  LIG1        0.0660
@<TRIPOS>BOND
     1    27    24    1
     2    33    31    1
     3    12    11    1
     4    32    31   ar
     5    32    28   ar
     6    31    30   ar
     7    41    38    1
     8    26    24    1
     9    24    25    1
    10    24    23    1
    11    10    11    1
    12    10     3    1
    13    14    11    1
    14    11    13    1
    15     9     8    1
    16     8     7    3
    17    28    18    1
    18    28    29   ar
    19    30    37    1
    20    30    29   ar
    21    38    37    1
    22    38    39    1
    23    38    40    1
    24    18    19   ar
    25    18    17   ar
    26     7     2    1
    27     3     2   ar
    28     3     4   ar
    29    19    15   ar
    30    23    17    1
    31    17    16   ar
    32    29    34    1
    33    15    16   ar
    34    15     4    1
    35    16    20    1
    36     2     1   ar
    37     4     5   ar
    38    20    21    3
    39    21    22    1
    40    34    35    3
    41     1     5   ar
    42     1     6    1
    43    35    36    1
