@<TRIPOS>MOLECULE
mol_data/opt/b3lyp/geoms/mol2/5el5el-.out
 28 29 0 0 0
SMALL
GASTEIGER

@<TRIPOS>ATOM
      1 C          -2.1268   -1.9060    0.7476 C.ar    1  LIG1       -0.0047
      2 C          -0.9167   -2.0585    0.1064 C.ar    1  LIG1        0.0739
      3 C          -0.3090   -0.7787   -0.1985 C.ar    1  LIG1        0.1506
      4 C          -1.0734    0.2957    0.2116 C.ar    1  LIG1        0.0700
      5 S          -2.5529   -0.2560    0.9795 S.2     1  LIG1       -0.0911
      6 H          -2.7870   -2.6968    1.0735 H       1  LIG1        0.0707
      7 C          -0.4059   -3.3339   -0.2654 C.1     1  LIG1       -0.0654
      8 C          -0.0077   -4.4350   -0.5727 C.1     1  LIG1       -0.1138
      9 H           0.3416   -5.4005   -0.8572 H       1  LIG1        0.1232
     10 O           0.8290   -0.5945   -0.9164 O.3     1  LIG1       -0.4927
     11 C           2.0129   -1.2641   -0.4584 C.3     1  LIG1        0.0789
     12 H           2.8182   -0.9070   -1.1021 H       1  LIG1        0.0660
     13 H           2.2302   -0.9919    0.5786 H       1  LIG1        0.0660
     14 H           1.9203   -2.3483   -0.5517 H       1  LIG1        0.0660
     15 C          -0.8134    1.7151    0.0314 C.ar    1  LIG1        0.0484
     16 C           0.3077    2.4551    0.3783 C.ar    1  LIG1        0.0816
     17 C           0.1677    3.8528    0.0265 C.ar    1  LIG1        0.1430
     18 C          -1.0325    4.1465   -0.5550 C.ar    1  LIG1        0.0193
     19 S          -2.0275    2.7383   -0.7077 S.2     1  LIG1       -0.0910
     20 H          -1.3766    5.1168   -0.8811 H       1  LIG1        0.0731
     21 C           1.4298    1.9540    1.0900 C.1     1  LIG1       -0.0648
     22 C           2.3953    1.5768    1.7164 C.1     1  LIG1       -0.1138
     23 H           3.2343    1.2512    2.2864 H       1  LIG1        0.1232
     24 O           1.0998    4.8078    0.3149 O.3     1  LIG1       -0.4933
     25 C           2.2955    4.7481   -0.4715 C.3     1  LIG1        0.0789
     26 H           2.9300    5.5638   -0.1204 H       1  LIG1        0.0660
     27 H           2.8185    3.7963   -0.3348 H       1  LIG1        0.0660
     28 H           2.0694    4.8922   -1.5352 H       1  LIG1        0.0660
@<TRIPOS>BOND
     1    28    25    1
     2    12    11    1
     3    10    11    1
     4    10     3    1
     5    20    18    1
     6     9     8    1
     7    19    18   ar
     8    19    15   ar
     9     8     7    3
    10    18    17   ar
    11    14    11    1
    12    25    27    1
    13    25    26    1
    14    25    24    1
    15    11    13    1
    16     7     2    1
    17     3     2   ar
    18     3     4   ar
    19    17    24    1
    20    17    16   ar
    21    15     4    1
    22    15    16   ar
    23     2     1   ar
    24     4     5   ar
    25    16    21    1
    26     1     5   ar
    27     1     6    1
    28    21    22    3
    29    22    23    1
