@<TRIPOS>MOLECULE
mol_data/opt/b3lyp/geoms/mol2/5el5el5el5el.out
 54 57 0 0 0
SMALL
GASTEIGER

@<TRIPOS>ATOM
      1 C          -2.2076   -2.0544    0.2836 C.ar    1  LIG1       -0.0047
      2 C          -0.9281   -2.1463   -0.2208 C.ar    1  LIG1        0.0739
      3 C          -0.2743   -0.8540   -0.2547 C.ar    1  LIG1        0.1506
      4 C          -1.0746    0.1701    0.2166 C.ar    1  LIG1        0.0700
      5 S          -2.6446   -0.4462    0.7053 S.2     1  LIG1       -0.0911
      6 H          -2.9105   -2.8658    0.4057 H       1  LIG1        0.0707
      7 C          -0.3929   -3.3704   -0.7121 C.1     1  LIG1       -0.0654
      8 C           0.0198   -4.4301   -1.1270 C.1     1  LIG1       -0.1138
      9 H           0.3846   -5.3569   -1.5054 H       1  LIG1        0.1232
     10 O           0.9428   -0.5909   -0.7935 O.3     1  LIG1       -0.4927
     11 C           2.0527   -1.3883   -0.3568 C.3     1  LIG1        0.0789
     12 H           2.9370   -0.9216   -0.7930 H       1  LIG1        0.0660
     13 H           2.1345   -1.3697    0.7341 H       1  LIG1        0.0660
     14 H           1.9671   -2.4185   -0.7082 H       1  LIG1        0.0660
     15 C          -0.7821    1.5910    0.2792 C.ar    1  LIG1        0.0491
     16 C           0.3262    2.2367    0.8154 C.ar    1  LIG1        0.0823
     17 C           0.2452    3.6732    0.6777 C.ar    1  LIG1        0.1513
     18 C          -0.9196    4.1049    0.0738 C.ar    1  LIG1        0.0706
     19 S          -1.9241    2.7390   -0.3675 S.2     1  LIG1       -0.0820
     20 C           1.3371    1.5742    1.5626 C.1     1  LIG1       -0.0648
     21 C           2.1832    1.0295    2.2366 C.1     1  LIG1       -0.1138
     22 H           2.9176    0.5601    2.8492 H       1  LIG1        0.1232
     23 O           1.1321    4.5583    1.2013 O.3     1  LIG1       -0.4927
     24 C           2.5034    4.4340    0.7947 C.3     1  LIG1        0.0789
     25 H           3.0166    5.2911    1.2332 H       1  LIG1        0.0660
     26 H           2.9482    3.5087    1.1671 H       1  LIG1        0.0660
     27 H           2.5849    4.4808   -0.2949 H       1  LIG1        0.0660
     28 C          -1.3816    5.4646   -0.1425 C.ar    1  LIG1        0.0491
     29 C          -0.7354    6.5257   -0.7657 C.ar    1  LIG1        0.0823
     30 C          -1.5377    7.7283   -0.7767 C.ar    1  LIG1        0.1513
     31 C          -2.7805    7.5682   -0.1972 C.ar    1  LIG1        0.0706
     32 S          -2.9704    5.9337    0.4037 S.2     1  LIG1       -0.0820
     33 C           0.4964    6.3970   -1.4622 C.1     1  LIG1       -0.0648
     34 C           1.5241    6.2929   -2.0947 C.1     1  LIG1       -0.1138
     35 H           2.4146    6.2012   -2.6721 H       1  LIG1        0.1232
     36 O          -1.2008    8.8836   -1.4067 O.3     1  LIG1       -0.4927
     37 C           0.0275    9.5125   -1.0105 C.3     1  LIG1        0.0789
     38 H           0.0538   10.4641   -1.5435 H       1  LIG1        0.0660
     39 H           0.0317    9.7002    0.0670 H       1  LIG1        0.0660
     40 H           0.8936    8.9094   -1.2915 H       1  LIG1        0.0660
     41 C          -3.8734    8.5218   -0.1074 C.ar    1  LIG1        0.0485
     42 C          -3.8775    9.8181    0.3882 C.ar    1  LIG1        0.0816
     43 C          -5.1859   10.4317    0.2962 C.ar    1  LIG1        0.1430
     44 C          -6.1339    9.6078   -0.2396 C.ar    1  LIG1        0.0193
     45 S          -5.4717    8.0654   -0.6628 S.2     1  LIG1       -0.0910
     46 H          -7.1802    9.8304   -0.3877 H       1  LIG1        0.0731
     47 C          -2.7790   10.4571    1.0214 C.1     1  LIG1       -0.0648
     48 C          -1.8802   11.0340    1.5926 C.1     1  LIG1       -0.1138
     49 H          -1.0966   11.5318    2.1149 H       1  LIG1        0.1232
     50 O          -5.4767   11.6792    0.7689 O.3     1  LIG1       -0.4933
     51 C          -4.9288   12.7616    0.0075 C.3     1  LIG1        0.0789
     52 H          -5.2382   13.6766    0.5156 H       1  LIG1        0.0660
     53 H          -3.8357   12.7160   -0.0254 H       1  LIG1        0.0660
     54 H          -5.3263   12.7586   -1.0150 H       1  LIG1        0.0660
@<TRIPOS>BOND
     1    35    34    1
     2    34    33    3
     3    38    37    1
     4     9     8    1
     5    33    29    1
     6    36    37    1
     7    36    30    1
     8    40    37    1
     9     8     7    3
    10    54    51    1
    11    37    39    1
    12    10    11    1
    13    10     3    1
    14    12    11    1
    15    30    29   ar
    16    30    31   ar
    17    29    28   ar
    18     7     2    1
    19    14    11    1
    20    45    44   ar
    21    45    41   ar
    22    46    44    1
    23    19    18   ar
    24    19    15   ar
    25    11    13    1
    26    27    24    1
    27     3     2   ar
    28     3     4   ar
    29    44    43   ar
    30     2     1   ar
    31    31    41    1
    32    31    32   ar
    33    28    18    1
    34    28    32   ar
    35    41    42   ar
    36    53    51    1
    37    51    52    1
    38    51    50    1
    39    18    17   ar
    40     4    15    1
    41     4     5   ar
    42    15    16   ar
    43     1     6    1
    44     1     5   ar
    45    43    42   ar
    46    43    50    1
    47    42    47    1
    48    17    16   ar
    49    17    23    1
    50    24    26    1
    51    24    23    1
    52    24    25    1
    53    16    20    1
    54    47    48    3
    55    20    21    3
    56    48    49    1
    57    21    22    1
