@<TRIPOS>MOLECULE
mol_data/opt/b3lyp/geoms/mol2/5fa.out
 10 10 0 0 0
SMALL
GASTEIGER

@<TRIPOS>ATOM
      1 C          -2.0599   -1.7167   -0.0001 C.ar    1  LIG1        0.0172
      2 C          -0.6907   -1.6800   -0.0003 C.ar    1  LIG1        0.1238
      3 C          -0.1651   -0.3467    0.0001 C.ar    1  LIG1       -0.0131
      4 C          -1.1494    0.6009    0.0005 C.ar    1  LIG1       -0.0208
      5 S          -2.7270   -0.1136    0.0004 S.2     1  LIG1       -0.1014
      6 H          -2.6951   -2.5893   -0.0003 H       1  LIG1        0.0730
      7 H          -1.0384    1.6758    0.0008 H       1  LIG1        0.0694
      8 O           0.0646   -2.8199   -0.0008 O.3     1  LIG1       -0.5062
      9 H           0.9982   -2.5753   -0.0009 H       1  LIG1        0.2922
     10 H           0.8951   -0.1142   -0.0000 H       1  LIG1        0.0659
@<TRIPOS>BOND
     1     9     8    1
     2     8     2    1
     3     2     1   ar
     4     2     3   ar
     5     6     1    1
     6     1     5   ar
     7    10     3    1
     8     3     4   ar
     9     5     4   ar
    10     4     7    1
