@<TRIPOS>MOLECULE
mol_data/opt/b3lyp/geoms/mol2/5fa5fa-5fa5fa.out
 34 37 0 0 0
SMALL
GASTEIGER

@<TRIPOS>ATOM
      1 C          -2.0254   -2.0142   -0.0003 C.ar    1  LIG1        0.0178
      2 C          -0.6562   -1.9873   -0.0008 C.ar    1  LIG1        0.1245
      3 C          -0.1089   -0.6705   -0.0004 C.ar    1  LIG1       -0.0047
      4 C          -1.0747    0.3173    0.0004 C.ar    1  LIG1        0.0330
      5 S          -2.6774   -0.4031    0.0006 S.2     1  LIG1       -0.0923
      6 H          -2.6725   -2.8777   -0.0005 H       1  LIG1        0.0730
      7 O           0.0888   -3.1347   -0.0016 O.3     1  LIG1       -0.5062
      8 H           1.0230   -2.8923   -0.0018 H       1  LIG1        0.2922
      9 H           0.9510   -0.4509   -0.0007 H       1  LIG1        0.0666
     10 C          -0.8895    1.7479    0.0010 C.ar    1  LIG1        0.0679
     11 C           0.2979    2.4630    0.0011 C.ar    1  LIG1        0.1327
     12 C           0.1413    3.8713    0.0019 C.ar    1  LIG1       -0.0041
     13 C          -1.1811    4.2740    0.0025 C.ar    1  LIG1        0.0336
     14 S          -2.2412    2.8744    0.0019 S.2     1  LIG1       -0.0833
     15 O           1.5108    1.8300    0.0004 O.3     1  LIG1       -0.5056
     16 H           2.2065    2.4994    0.0006 H       1  LIG1        0.2922
     17 H           0.9654    4.5730    0.0022 H       1  LIG1        0.0666
     18 C          -1.7049    5.6138    0.0035 C.ar    1  LIG1        0.0680
     19 C          -1.0051    6.8119    0.0041 C.ar    1  LIG1        0.1327
     20 C          -1.8195    7.9712    0.0048 C.ar    1  LIG1       -0.0041
     21 C          -3.1717    7.6886    0.0049 C.ar    1  LIG1        0.0336
     22 S          -3.4313    5.9533    0.0051 S.2     1  LIG1       -0.0833
     23 O           0.3622    6.8367    0.0036 O.3     1  LIG1       -0.5056
     24 H           0.6546    7.7569    0.0044 H       1  LIG1        0.2922
     25 H          -1.4332    8.9824    0.0048 H       1  LIG1        0.0666
     26 C          -4.2781    8.6144    0.0057 C.ar    1  LIG1        0.0674
     27 C          -4.2335   10.0002    0.0234 C.ar    1  LIG1        0.1321
     28 C          -5.5161   10.6218    0.0201 C.ar    1  LIG1       -0.0125
     29 C          -6.5376    9.7147   -0.0004 C.ar    1  LIG1       -0.0202
     30 S          -5.9550    8.0857   -0.0168 S.2     1  LIG1       -0.0924
     31 H          -7.6007    9.9073   -0.0073 H       1  LIG1        0.0695
     32 O          -3.0461   10.6775    0.0430 O.3     1  LIG1       -0.5056
     33 H          -3.2260   11.6260    0.0538 H       1  LIG1        0.2922
     34 H          -5.6627   11.6971    0.0327 H       1  LIG1        0.0659
@<TRIPOS>BOND
     1    30    29   ar
     2    30    26   ar
     3    31    29    1
     4     8     7    1
     5     7     2    1
     6     2     3   ar
     7     2     1   ar
     8     9     3    1
     9     6     1    1
    10     3     4   ar
    11    29    28   ar
    12     1     5   ar
    13     4     5   ar
    14     4    10    1
    15    15    16    1
    16    15    11    1
    17    10    11   ar
    18    10    14   ar
    19    11    12   ar
    20    14    13   ar
    21    12    17    1
    22    12    13   ar
    23    13    18    1
    24    18    19   ar
    25    18    22   ar
    26    23    19    1
    27    23    24    1
    28    19    20   ar
    29    25    20    1
    30    20    21   ar
    31    21    22   ar
    32    21    26    1
    33    26    27   ar
    34    28    27   ar
    35    28    34    1
    36    27    32    1
    37    32    33    1
