@<TRIPOS>MOLECULE
mol_data/opt/b3lyp/geoms/mol2/5fa5fa.out
 18 19 0 0 0
SMALL
GASTEIGER

@<TRIPOS>ATOM
      1 C          -2.0811   -1.8295    0.0001 C.ar    1  LIG1        0.0178
      2 C          -0.7125   -1.7946   -0.0005 C.ar    1  LIG1        0.1245
      3 C          -0.1745   -0.4728   -0.0003 C.ar    1  LIG1       -0.0047
      4 C          -1.1464    0.5063    0.0005 C.ar    1  LIG1        0.0330
      5 S          -2.7432   -0.2232    0.0022 S.2     1  LIG1       -0.0923
      6 H          -2.7228   -2.6969   -0.0002 H       1  LIG1        0.0730
      7 O           0.0391   -2.9370   -0.0017 O.3     1  LIG1       -0.5062
      8 H           0.9724   -2.6910   -0.0021 H       1  LIG1        0.2922
      9 H           0.8842   -0.2463   -0.0012 H       1  LIG1        0.0666
     10 C          -0.9696    1.9432    0.0009 C.ar    1  LIG1        0.0674
     11 C           0.2146    2.6600    0.0193 C.ar    1  LIG1        0.1321
     12 C           0.0376    4.0757    0.0149 C.ar    1  LIG1       -0.0125
     13 C          -1.2785    4.4389   -0.0072 C.ar    1  LIG1       -0.0202
     14 S          -2.3257    3.0613   -0.0239 S.2     1  LIG1       -0.0924
     15 H          -1.6962    5.4352   -0.0152 H       1  LIG1        0.0695
     16 O           1.4317    2.0354    0.0406 O.3     1  LIG1       -0.5056
     17 H           2.1266    2.7052    0.0507 H       1  LIG1        0.2922
     18 H           0.8601    4.7837    0.0280 H       1  LIG1        0.0659
@<TRIPOS>BOND
     1    14    13   ar
     2    14    10   ar
     3    15    13    1
     4    13    12   ar
     5     8     7    1
     6     7     2    1
     7     9     3    1
     8     2     3   ar
     9     2     1   ar
    10     3     4   ar
    11     6     1    1
    12     1     5   ar
    13     4    10    1
    14     4     5   ar
    15    10    11   ar
    16    12    11   ar
    17    12    18    1
    18    11    16    1
    19    16    17    1
