@<TRIPOS>MOLECULE
mol_data/opt/b3lyp/geoms/mol2/5fa5fa-5fa-5fa.out
 34 37 0 0 0
SMALL
GASTEIGER

@<TRIPOS>ATOM
      1 C          -2.0251   -2.0145   -0.0045 C.ar    1  LIG1        0.0178
      2 C          -0.6559   -1.9874   -0.0016 C.ar    1  LIG1        0.1245
      3 C          -0.1088   -0.6706    0.0010 C.ar    1  LIG1       -0.0047
      4 C          -1.0747    0.3172   -0.0000 C.ar    1  LIG1        0.0330
      5 S          -2.6773   -0.4037   -0.0041 S.2     1  LIG1       -0.0923
      6 H          -2.6721   -2.8781   -0.0068 H       1  LIG1        0.0730
      7 O           0.0893   -3.1347   -0.0012 O.3     1  LIG1       -0.5062
      8 H           1.0235   -2.8922    0.0008 H       1  LIG1        0.2922
      9 H           0.9511   -0.4510    0.0034 H       1  LIG1        0.0666
     10 C          -0.8897    1.7477    0.0019 C.ar    1  LIG1        0.0679
     11 C           0.2977    2.4630    0.0049 C.ar    1  LIG1        0.1327
     12 C           0.1410    3.8712    0.0056 C.ar    1  LIG1       -0.0041
     13 C          -1.1814    4.2739    0.0031 C.ar    1  LIG1        0.0336
     14 S          -2.2414    2.8742    0.0009 S.2     1  LIG1       -0.0833
     15 O           1.5106    1.8301    0.0066 O.3     1  LIG1       -0.5056
     16 H           2.2064    2.4995    0.0088 H       1  LIG1        0.2922
     17 H           0.9652    4.5729    0.0074 H       1  LIG1        0.0666
     18 C          -1.7052    5.6136    0.0028 C.ar    1  LIG1        0.0680
     19 C          -1.0054    6.8117    0.0187 C.ar    1  LIG1        0.1327
     20 C          -1.8197    7.9711    0.0146 C.ar    1  LIG1       -0.0041
     21 C          -3.1718    7.6887   -0.0051 C.ar    1  LIG1        0.0336
     22 S          -3.4314    5.9534   -0.0192 S.2     1  LIG1       -0.0833
     23 O           0.3617    6.8363    0.0374 O.3     1  LIG1       -0.5056
     24 H           0.6542    7.7565    0.0472 H       1  LIG1        0.2922
     25 H          -1.4332    8.9821    0.0257 H       1  LIG1        0.0666
     26 C          -4.2780    8.6146   -0.0143 C.ar    1  LIG1        0.0674
     27 C          -4.2333   10.0006   -0.0034 C.ar    1  LIG1        0.1321
     28 C          -5.5158   10.6223   -0.0171 C.ar    1  LIG1       -0.0125
     29 C          -6.5374    9.7153   -0.0383 C.ar    1  LIG1       -0.0202
     30 S          -5.9550    8.0862   -0.0423 S.2     1  LIG1       -0.0924
     31 H          -7.6004    9.9081   -0.0521 H       1  LIG1        0.0695
     32 O          -3.0459   10.6778    0.0185 O.3     1  LIG1       -0.5056
     33 H          -3.2257   11.6264    0.0245 H       1  LIG1        0.2922
     34 H          -5.6621   11.6975   -0.0112 H       1  LIG1        0.0659
@<TRIPOS>BOND
     1    31    29    1
     2    30    29   ar
     3    30    26   ar
     4    29    28   ar
     5    22    21   ar
     6    22    18   ar
     7    28    34    1
     8    28    27   ar
     9    26    21    1
    10    26    27   ar
    11     6     1    1
    12    21    20   ar
    13     1     5   ar
    14     1     2   ar
    15     5     4   ar
    16    27    32    1
    17     2     7    1
    18     2     3   ar
    19     7     8    1
    20     4     3   ar
    21     4    10    1
    22    14    10   ar
    23    14    13   ar
    24     3     9    1
    25    10    11   ar
    26    18    13    1
    27    18    19   ar
    28    13    12   ar
    29    11    12   ar
    30    11    15    1
    31    12    17    1
    32    15    16    1
    33    20    19   ar
    34    20    25    1
    35    32    33    1
    36    19    23    1
    37    23    24    1
