@<TRIPOS>MOLECULE
mol_data/opt/b3lyp/geoms/mol2/5fa5fa5fa-5fa-.out
 34 37 0 0 0
SMALL
GASTEIGER

@<TRIPOS>ATOM
      1 C          -2.0255   -2.0142    0.0001 C.ar    1  LIG1        0.0178
      2 C          -0.6562   -1.9873    0.0022 C.ar    1  LIG1        0.1245
      3 C          -0.1089   -0.6705    0.0029 C.ar    1  LIG1       -0.0047
      4 C          -1.0747    0.3173    0.0014 C.ar    1  LIG1        0.0330
      5 S          -2.6774   -0.4031    0.0001 S.2     1  LIG1       -0.0923
      6 H          -2.6725   -2.8777   -0.0013 H       1  LIG1        0.0730
      7 O           0.0888   -3.1347    0.0030 O.3     1  LIG1       -0.5062
      8 H           1.0230   -2.8923    0.0043 H       1  LIG1        0.2922
      9 H           0.9510   -0.4509    0.0040 H       1  LIG1        0.0666
     10 C          -0.8895    1.7479    0.0016 C.ar    1  LIG1        0.0679
     11 C           0.2977    2.4630    0.0199 C.ar    1  LIG1        0.1327
     12 C           0.1412    3.8713    0.0154 C.ar    1  LIG1       -0.0041
     13 C          -1.1810    4.2740   -0.0069 C.ar    1  LIG1        0.0336
     14 S          -2.2410    2.8744   -0.0233 S.2     1  LIG1       -0.0833
     15 O           1.5105    1.8300    0.0411 O.3     1  LIG1       -0.5056
     16 H           2.2061    2.4994    0.0518 H       1  LIG1        0.2922
     17 H           0.9652    4.5730    0.0282 H       1  LIG1        0.0666
     18 C          -1.7048    5.6138   -0.0173 C.ar    1  LIG1        0.0680
     19 C          -1.0050    6.8118   -0.0055 C.ar    1  LIG1        0.1327
     20 C          -1.8193    7.9712   -0.0208 C.ar    1  LIG1       -0.0041
     21 C          -3.1712    7.6886   -0.0449 C.ar    1  LIG1        0.0336
     22 S          -3.4308    5.9532   -0.0493 S.2     1  LIG1       -0.0833
     23 O           0.3620    6.8367    0.0191 O.3     1  LIG1       -0.5056
     24 H           0.6544    7.7569    0.0245 H       1  LIG1        0.2922
     25 H          -1.4331    8.9824   -0.0142 H       1  LIG1        0.0666
     26 C          -4.2775    8.6143   -0.0653 C.ar    1  LIG1        0.0674
     27 C          -4.2327   10.0002   -0.0755 C.ar    1  LIG1        0.1321
     28 C          -5.5152   10.6218   -0.0964 C.ar    1  LIG1       -0.0125
     29 C          -6.5368    9.7146   -0.1020 C.ar    1  LIG1       -0.0202
     30 S          -5.9544    8.0856   -0.0816 S.2     1  LIG1       -0.0924
     31 H          -7.5998    9.9072   -0.1167 H       1  LIG1        0.0695
     32 O          -3.0452   10.6776   -0.0667 O.3     1  LIG1       -0.5056
     33 H          -3.2250   11.6262   -0.0718 H       1  LIG1        0.2922
     34 H          -5.6615   11.6971   -0.1070 H       1  LIG1        0.0659
@<TRIPOS>BOND
     1    31    29    1
     2    34    28    1
     3    29    28   ar
     4    29    30   ar
     5    28    27   ar
     6    30    26   ar
     7    27    32    1
     8    27    26   ar
     9    33    32    1
    10    26    21    1
    11    22    21   ar
    12    22    18   ar
    13    21    20   ar
    14    14    13   ar
    15    14    10   ar
    16    20    25    1
    17    20    19   ar
    18    18    13    1
    19    18    19   ar
    20    13    12   ar
    21    19    23    1
    22     6     1    1
    23     1     5   ar
    24     1     2   ar
    25     5     4   ar
    26     4    10    1
    27     4     3   ar
    28    10    11   ar
    29     2     3   ar
    30     2     7    1
    31     3     9    1
    32     7     8    1
    33    12    11   ar
    34    12    17    1
    35    23    24    1
    36    11    15    1
    37    15    16    1
