@<TRIPOS>MOLECULE
mol_data/opt/b3lyp/geoms/mol2/5fa5fa5fa5fa.out
 34 37 0 0 0
SMALL
GASTEIGER

@<TRIPOS>ATOM
      1 C          -2.0255   -2.0142    0.0030 C.ar    1  LIG1        0.0178
      2 C          -0.6563   -1.9873    0.0025 C.ar    1  LIG1        0.1245
      3 C          -0.1089   -0.6705    0.0013 C.ar    1  LIG1       -0.0047
      4 C          -1.0747    0.3173    0.0012 C.ar    1  LIG1        0.0330
      5 S          -2.6774   -0.4031    0.0035 S.2     1  LIG1       -0.0923
      6 H          -2.6726   -2.8777    0.0035 H       1  LIG1        0.0730
      7 O           0.0887   -3.1347    0.0025 O.3     1  LIG1       -0.5062
      8 H           1.0229   -2.8924    0.0019 H       1  LIG1        0.2922
      9 H           0.9510   -0.4509    0.0002 H       1  LIG1        0.0666
     10 C          -0.8895    1.7479    0.0004 C.ar    1  LIG1        0.0679
     11 C           0.2978    2.4630    0.0164 C.ar    1  LIG1        0.1327
     12 C           0.1413    3.8713    0.0123 C.ar    1  LIG1       -0.0041
     13 C          -1.1810    4.2740   -0.0076 C.ar    1  LIG1        0.0336
     14 S          -2.2410    2.8744   -0.0232 S.2     1  LIG1       -0.0833
     15 O           1.5106    1.8300    0.0357 O.3     1  LIG1       -0.5056
     16 H           2.2062    2.4994    0.0449 H       1  LIG1        0.2922
     17 H           0.9653    4.5730    0.0241 H       1  LIG1        0.0666
     18 C          -1.7048    5.6138   -0.0166 C.ar    1  LIG1        0.0680
     19 C          -1.0048    6.8118   -0.0202 C.ar    1  LIG1        0.1327
     20 C          -1.8192    7.9712   -0.0308 C.ar    1  LIG1       -0.0041
     21 C          -3.1713    7.6886   -0.0351 C.ar    1  LIG1        0.0336
     22 S          -3.4311    5.9533   -0.0239 S.2     1  LIG1       -0.0833
     23 O           0.3624    6.8366   -0.0150 O.3     1  LIG1       -0.5056
     24 H           0.6549    7.7568   -0.0177 H       1  LIG1        0.2922
     25 H          -1.4328    8.9823   -0.0360 H       1  LIG1        0.0666
     26 C          -4.2777    8.6144   -0.0455 C.ar    1  LIG1        0.0674
     27 C          -4.2332   10.0002   -0.0319 C.ar    1  LIG1        0.1321
     28 C          -5.5157   10.6219   -0.0465 C.ar    1  LIG1       -0.0125
     29 C          -6.5371    9.7148   -0.0713 C.ar    1  LIG1       -0.0202
     30 S          -5.9544    8.0857   -0.0788 S.2     1  LIG1       -0.0924
     31 H          -7.6001    9.9073   -0.0865 H       1  LIG1        0.0695
     32 O          -3.0459   10.6776   -0.0061 O.3     1  LIG1       -0.5056
     33 H          -3.2259   11.6261    0.0042 H       1  LIG1        0.2922
     34 H          -5.6623   11.6972   -0.0384 H       1  LIG1        0.0659
@<TRIPOS>BOND
     1    31    29    1
     2    30    29   ar
     3    30    26   ar
     4    29    28   ar
     5    28    34    1
     6    28    27   ar
     7    26    21    1
     8    26    27   ar
     9    25    20    1
    10    21    20   ar
    11    21    22   ar
    12    27    32    1
    13    20    19   ar
    14    22    18   ar
    15    14    13   ar
    16    14    10   ar
    17    19    18   ar
    18    19    23    1
    19    24    23    1
    20    18    13    1
    21    13    12   ar
    22    32    33    1
    23     9     3    1
    24    10     4    1
    25    10    11   ar
    26     4     3   ar
    27     4     5   ar
    28     3     2   ar
    29     8     7    1
    30     2     7    1
    31     2     1   ar
    32     1     5   ar
    33     1     6    1
    34    12    11   ar
    35    12    17    1
    36    11    15    1
    37    15    16    1
