@<TRIPOS>MOLECULE
mol_data/opt/b3lyp/geoms/mol2/5fa5fa5fa.out
 26 28 0 0 0
SMALL
GASTEIGER

@<TRIPOS>ATOM
      1 C          -2.0672   -1.9315    0.0005 C.ar    1  LIG1        0.0178
      2 C          -0.6982   -1.9010    0.0016 C.ar    1  LIG1        0.1245
      3 C          -0.1549   -0.5823    0.0013 C.ar    1  LIG1       -0.0047
      4 C          -1.1237    0.4019    0.0001 C.ar    1  LIG1        0.0330
      5 S          -2.7240   -0.3225    0.0005 S.2     1  LIG1       -0.0923
      6 H          -2.7118   -2.7968    0.0001 H       1  LIG1        0.0730
      7 O           0.0494   -3.0465    0.0023 O.3     1  LIG1       -0.5062
      8 H           0.9834   -2.8030    0.0035 H       1  LIG1        0.2922
      9 H           0.9043   -0.3587    0.0015 H       1  LIG1        0.0666
     10 C          -0.9414    1.8338   -0.0003 C.ar    1  LIG1        0.0679
     11 C           0.2434    2.5511    0.0173 C.ar    1  LIG1        0.1327
     12 C           0.0818    3.9606    0.0131 C.ar    1  LIG1       -0.0041
     13 C          -1.2400    4.3576   -0.0084 C.ar    1  LIG1        0.0336
     14 S          -2.2954    2.9561   -0.0257 S.2     1  LIG1       -0.0833
     15 O           1.4580    1.9216    0.0383 O.3     1  LIG1       -0.5056
     16 H           2.1527    2.5920    0.0479 H       1  LIG1        0.2922
     17 H           0.9040    4.6646    0.0261 H       1  LIG1        0.0666
     18 C          -1.7713    5.6999   -0.0180 C.ar    1  LIG1        0.0674
     19 C          -1.0722    6.8967   -0.0223 C.ar    1  LIG1        0.1321
     20 C          -1.9036    8.0546   -0.0327 C.ar    1  LIG1       -0.0125
     21 C          -3.2341    7.7443   -0.0360 C.ar    1  LIG1       -0.0202
     22 S          -3.4975    6.0341   -0.0259 S.2     1  LIG1       -0.0924
     23 H          -4.0771    8.4199   -0.0435 H       1  LIG1        0.0695
     24 O           0.2951    6.9273   -0.0176 O.3     1  LIG1       -0.5056
     25 H           0.5879    7.8472   -0.0204 H       1  LIG1        0.2922
     26 H          -1.5199    9.0699   -0.0377 H       1  LIG1        0.0659
@<TRIPOS>BOND
     1    23    21    1
     2    26    20    1
     3    21    20   ar
     4    21    22   ar
     5    20    19   ar
     6    22    18   ar
     7    14    13   ar
     8    14    10   ar
     9    19    18   ar
    10    19    24    1
    11    25    24    1
    12    18    13    1
    13    13    12   ar
    14    10     4    1
    15    10    11   ar
    16     6     1    1
    17     4     5   ar
    18     4     3   ar
    19     5     1   ar
    20     1     2   ar
    21     3     9    1
    22     3     2   ar
    23     2     7    1
    24     7     8    1
    25    12    11   ar
    26    12    17    1
    27    11    15    1
    28    15    16    1
