@<TRIPOS>MOLECULE
mol_data/opt/b3lyp/geoms/mol2/5fa5fa-5fa-5fa-.out
 34 37 0 0 0
SMALL
GASTEIGER

@<TRIPOS>ATOM
      1 C          -2.0253   -2.0143   -0.0167 C.ar    1  LIG1        0.0178
      2 C          -0.6561   -1.9873   -0.0040 C.ar    1  LIG1        0.1245
      3 C          -0.1089   -0.6706    0.0039 C.ar    1  LIG1       -0.0047
      4 C          -1.0747    0.3173   -0.0030 C.ar    1  LIG1        0.0330
      5 S          -2.6773   -0.4034   -0.0195 S.2     1  LIG1       -0.0923
      6 H          -2.6723   -2.8778   -0.0245 H       1  LIG1        0.0730
      7 O           0.0889   -3.1347    0.0006 O.3     1  LIG1       -0.5062
      8 H           1.0231   -2.8924    0.0098 H       1  LIG1        0.2922
      9 H           0.9510   -0.4511    0.0143 H       1  LIG1        0.0666
     10 C          -0.8896    1.7478    0.0017 C.ar    1  LIG1        0.0679
     11 C           0.2978    2.4630    0.0119 C.ar    1  LIG1        0.1327
     12 C           0.1412    3.8713    0.0137 C.ar    1  LIG1       -0.0041
     13 C          -1.1812    4.2740    0.0048 C.ar    1  LIG1        0.0336
     14 S          -2.2412    2.8743   -0.0055 S.2     1  LIG1       -0.0833
     15 O           1.5107    1.8301    0.0194 O.3     1  LIG1       -0.5056
     16 H           2.2064    2.4994    0.0250 H       1  LIG1        0.2922
     17 H           0.9653    4.5729    0.0211 H       1  LIG1        0.0666
     18 C          -1.7050    5.6137    0.0036 C.ar    1  LIG1        0.0680
     19 C          -1.0051    6.8119    0.0122 C.ar    1  LIG1        0.1327
     20 C          -1.8195    7.9712    0.0085 C.ar    1  LIG1       -0.0041
     21 C          -3.1717    7.6887   -0.0032 C.ar    1  LIG1        0.0336
     22 S          -3.4313    5.9534   -0.0107 S.2     1  LIG1       -0.0833
     23 O           0.3620    6.8365    0.0237 O.3     1  LIG1       -0.5056
     24 H           0.6546    7.7567    0.0280 H       1  LIG1        0.2922
     25 H          -1.4331    8.9823    0.0147 H       1  LIG1        0.0666
     26 C          -4.2779    8.6145   -0.0101 C.ar    1  LIG1        0.0674
     27 C          -4.2332   10.0005   -0.0209 C.ar    1  LIG1        0.1321
     28 C          -5.5159   10.6221   -0.0267 C.ar    1  LIG1       -0.0125
     29 C          -6.5375    9.7149   -0.0203 C.ar    1  LIG1       -0.0202
     30 S          -5.9551    8.0859   -0.0060 S.2     1  LIG1       -0.0924
     31 H          -7.6006    9.9077   -0.0225 H       1  LIG1        0.0695
     32 O          -3.0457   10.6778   -0.0255 O.3     1  LIG1       -0.5056
     33 H          -3.2254   11.6263   -0.0396 H       1  LIG1        0.2922
     34 H          -5.6621   11.6974   -0.0354 H       1  LIG1        0.0659
@<TRIPOS>BOND
     1    33    32    1
     2    34    28    1
     3    28    27   ar
     4    28    29   ar
     5    32    27    1
     6     6     1    1
     7    31    29    1
     8    27    26   ar
     9    29    30   ar
    10     5     1   ar
    11     5     4   ar
    12     1     2   ar
    13    22    21   ar
    14    22    18   ar
    15    26    30   ar
    16    26    21    1
    17    14    10   ar
    18    14    13   ar
    19     2     7    1
    20     2     3   ar
    21    21    20   ar
    22     4    10    1
    23     4     3   ar
    24     7     8    1
    25    10    11   ar
    26    18    13    1
    27    18    19   ar
    28     3     9    1
    29    13    12   ar
    30    20    19   ar
    31    20    25    1
    32    11    12   ar
    33    11    15    1
    34    19    23    1
    35    12    17    1
    36    15    16    1
    37    23    24    1
