@<TRIPOS>MOLECULE
mol_data/opt/b3lyp/geoms/mol2/5fa5fa5fa-5fa.out
 34 37 0 0 0
SMALL
GASTEIGER

@<TRIPOS>ATOM
      1 C          -2.0255   -2.0142   -0.0004 C.ar    1  LIG1        0.0178
      2 C          -0.6563   -1.9873    0.0019 C.ar    1  LIG1        0.1245
      3 C          -0.1089   -0.6705    0.0026 C.ar    1  LIG1       -0.0047
      4 C          -1.0747    0.3173    0.0010 C.ar    1  LIG1        0.0330
      5 S          -2.6774   -0.4031   -0.0004 S.2     1  LIG1       -0.0923
      6 H          -2.6725   -2.8777   -0.0017 H       1  LIG1        0.0730
      7 O           0.0887   -3.1347    0.0028 O.3     1  LIG1       -0.5062
      8 H           1.0230   -2.8924    0.0042 H       1  LIG1        0.2922
      9 H           0.9510   -0.4509    0.0038 H       1  LIG1        0.0666
     10 C          -0.8895    1.7479    0.0012 C.ar    1  LIG1        0.0679
     11 C           0.2978    2.4630    0.0198 C.ar    1  LIG1        0.1327
     12 C           0.1413    3.8713    0.0154 C.ar    1  LIG1       -0.0041
     13 C          -1.1810    4.2740   -0.0071 C.ar    1  LIG1        0.0336
     14 S          -2.2410    2.8744   -0.0238 S.2     1  LIG1       -0.0833
     15 O           1.5105    1.8300    0.0411 O.3     1  LIG1       -0.5056
     16 H           2.2061    2.4994    0.0520 H       1  LIG1        0.2922
     17 H           0.9652    4.5730    0.0285 H       1  LIG1        0.0666
     18 C          -1.7047    5.6138   -0.0173 C.ar    1  LIG1        0.0680
     19 C          -1.0050    6.8119   -0.0051 C.ar    1  LIG1        0.1327
     20 C          -1.8193    7.9712   -0.0206 C.ar    1  LIG1       -0.0041
     21 C          -3.1712    7.6886   -0.0452 C.ar    1  LIG1        0.0336
     22 S          -3.4308    5.9532   -0.0487 S.2     1  LIG1       -0.0833
     23 O           0.3620    6.8367    0.0196 O.3     1  LIG1       -0.5056
     24 H           0.6544    7.7569    0.0256 H       1  LIG1        0.2922
     25 H          -1.4331    8.9824   -0.0143 H       1  LIG1        0.0666
     26 C          -4.2775    8.6143   -0.0657 C.ar    1  LIG1        0.0674
     27 C          -4.2330   10.0002   -0.0586 C.ar    1  LIG1        0.1321
     28 C          -5.5154   10.6218   -0.0837 C.ar    1  LIG1       -0.0125
     29 C          -6.5366    9.7146   -0.1100 C.ar    1  LIG1       -0.0202
     30 S          -5.9540    8.0855   -0.1052 S.2     1  LIG1       -0.0924
     31 H          -7.5995    9.9071   -0.1323 H       1  LIG1        0.0695
     32 O          -3.0458   10.6777   -0.0299 O.3     1  LIG1       -0.5056
     33 H          -3.2259   11.6262   -0.0243 H       1  LIG1        0.2922
     34 H          -5.6619   11.6972   -0.0821 H       1  LIG1        0.0659
@<TRIPOS>BOND
     1    31    29    1
     2    29    30   ar
     3    29    28   ar
     4    30    26   ar
     5    28    34    1
     6    28    27   ar
     7    26    27   ar
     8    26    21    1
     9    27    32    1
    10    22    21   ar
    11    22    18   ar
    12    21    20   ar
    13    32    33    1
    14    14    13   ar
    15    14    10   ar
    16    20    25    1
    17    20    19   ar
    18    18    13    1
    19    18    19   ar
    20    13    12   ar
    21    19    23    1
    22     6     1    1
    23     5     1   ar
    24     5     4   ar
    25     1     2   ar
    26     4    10    1
    27     4     3   ar
    28    10    11   ar
    29     2     3   ar
    30     2     7    1
    31     3     9    1
    32     7     8    1
    33    12    11   ar
    34    12    17    1
    35    23    24    1
    36    11    15    1
    37    15    16    1
