@<TRIPOS>MOLECULE
mol_data/opt/b3lyp/geoms/mol2/5fa5fa5fa5fa-.out
 34 37 0 0 0
SMALL
GASTEIGER

@<TRIPOS>ATOM
      1 C          -2.0251   -2.0145    0.0038 C.ar    1  LIG1        0.0178
      2 C          -0.6559   -1.9874    0.0030 C.ar    1  LIG1        0.1245
      3 C          -0.1088   -0.6706    0.0018 C.ar    1  LIG1       -0.0047
      4 C          -1.0747    0.3172    0.0017 C.ar    1  LIG1        0.0330
      5 S          -2.6773   -0.4037    0.0043 S.2     1  LIG1       -0.0923
      6 H          -2.6721   -2.8781    0.0044 H       1  LIG1        0.0730
      7 O           0.0893   -3.1347    0.0030 O.3     1  LIG1       -0.5062
      8 H           1.0235   -2.8922    0.0024 H       1  LIG1        0.2922
      9 H           0.9511   -0.4510    0.0005 H       1  LIG1        0.0666
     10 C          -0.8897    1.7477    0.0006 C.ar    1  LIG1        0.0679
     11 C           0.2977    2.4630    0.0159 C.ar    1  LIG1        0.1327
     12 C           0.1410    3.8712    0.0117 C.ar    1  LIG1       -0.0041
     13 C          -1.1814    4.2739   -0.0075 C.ar    1  LIG1        0.0336
     14 S          -2.2412    2.8741   -0.0224 S.2     1  LIG1       -0.0833
     15 O           1.5104    1.8301    0.0347 O.3     1  LIG1       -0.5056
     16 H           2.2061    2.4995    0.0443 H       1  LIG1        0.2922
     17 H           0.9650    4.5729    0.0229 H       1  LIG1        0.0666
     18 C          -1.7051    5.6136   -0.0166 C.ar    1  LIG1        0.0680
     19 C          -1.0051    6.8117   -0.0203 C.ar    1  LIG1        0.1327
     20 C          -1.8193    7.9711   -0.0307 C.ar    1  LIG1       -0.0041
     21 C          -3.1716    7.6887   -0.0349 C.ar    1  LIG1        0.0336
     22 S          -3.4314    5.9534   -0.0248 S.2     1  LIG1       -0.0833
     23 O           0.3621    6.8363   -0.0149 O.3     1  LIG1       -0.5056
     24 H           0.6548    7.7565   -0.0188 H       1  LIG1        0.2922
     25 H          -1.4327    8.9821   -0.0353 H       1  LIG1        0.0666
     26 C          -4.2778    8.6146   -0.0453 C.ar    1  LIG1        0.0674
     27 C          -4.2329   10.0006   -0.0485 C.ar    1  LIG1        0.1321
     28 C          -5.5155   10.6223   -0.0591 C.ar    1  LIG1       -0.0125
     29 C          -6.5372    9.7153   -0.0638 C.ar    1  LIG1       -0.0202
     30 S          -5.9549    8.0861   -0.0560 S.2     1  LIG1       -0.0924
     31 H          -7.6003    9.9081   -0.0717 H       1  LIG1        0.0695
     32 O          -3.0454   10.6778   -0.0422 O.3     1  LIG1       -0.5056
     33 H          -3.2251   11.6264   -0.0426 H       1  LIG1        0.2922
     34 H          -5.6616   11.6976   -0.0629 H       1  LIG1        0.0659
@<TRIPOS>BOND
     1    31    29    1
     2    29    28   ar
     3    29    30   ar
     4    34    28    1
     5    28    27   ar
     6    30    26   ar
     7    27    26   ar
     8    27    32    1
     9    26    21    1
    10    33    32    1
    11    25    20    1
    12    21    20   ar
    13    21    22   ar
    14    20    19   ar
    15    22    18   ar
    16    14    13   ar
    17    14    10   ar
    18    19    18   ar
    19    19    23    1
    20    24    23    1
    21    18    13    1
    22    13    12   ar
    23     9     3    1
    24    10     4    1
    25    10    11   ar
    26     4     3   ar
    27     4     5   ar
    28     3     2   ar
    29     8     7    1
    30     7     2    1
    31     2     1   ar
    32     1     5   ar
    33     1     6    1
    34    12    11   ar
    35    12    17    1
    36    11    15    1
    37    15    16    1
