@<TRIPOS>MOLECULE
mol_data/opt/b3lyp/geoms/mol2/5fa5fa-5fa5fa-.out
 34 37 0 0 0
SMALL
GASTEIGER

@<TRIPOS>ATOM
      1 C          -2.0254   -2.0142    0.0001 C.ar    1  LIG1        0.0178
      2 C          -0.6562   -1.9873   -0.0005 C.ar    1  LIG1        0.1245
      3 C          -0.1089   -0.6705   -0.0001 C.ar    1  LIG1       -0.0047
      4 C          -1.0747    0.3173    0.0008 C.ar    1  LIG1        0.0330
      5 S          -2.6774   -0.4031    0.0011 S.2     1  LIG1       -0.0923
      6 H          -2.6725   -2.8777   -0.0000 H       1  LIG1        0.0730
      7 O           0.0888   -3.1347   -0.0014 O.3     1  LIG1       -0.5062
      8 H           1.0230   -2.8924   -0.0017 H       1  LIG1        0.2922
      9 H           0.9510   -0.4509   -0.0005 H       1  LIG1        0.0666
     10 C          -0.8895    1.7479    0.0014 C.ar    1  LIG1        0.0679
     11 C           0.2979    2.4630    0.0012 C.ar    1  LIG1        0.1327
     12 C           0.1413    3.8713    0.0019 C.ar    1  LIG1       -0.0041
     13 C          -1.1811    4.2740    0.0027 C.ar    1  LIG1        0.0336
     14 S          -2.2412    2.8744    0.0025 S.2     1  LIG1       -0.0833
     15 O           1.5108    1.8300    0.0004 O.3     1  LIG1       -0.5056
     16 H           2.2065    2.4994    0.0004 H       1  LIG1        0.2922
     17 H           0.9654    4.5730    0.0019 H       1  LIG1        0.0666
     18 C          -1.7049    5.6138    0.0035 C.ar    1  LIG1        0.0680
     19 C          -1.0051    6.8119    0.0037 C.ar    1  LIG1        0.1327
     20 C          -1.8195    7.9712    0.0046 C.ar    1  LIG1       -0.0041
     21 C          -3.1716    7.6886    0.0051 C.ar    1  LIG1        0.0336
     22 S          -3.4313    5.9533    0.0045 S.2     1  LIG1       -0.0833
     23 O           0.3622    6.8367    0.0031 O.3     1  LIG1       -0.5056
     24 H           0.6546    7.7569    0.0033 H       1  LIG1        0.2922
     25 H          -1.4332    8.9824    0.0049 H       1  LIG1        0.0666
     26 C          -4.2781    8.6144    0.0061 C.ar    1  LIG1        0.0674
     27 C          -4.2334   10.0003    0.0065 C.ar    1  LIG1        0.1321
     28 C          -5.5161   10.6219    0.0074 C.ar    1  LIG1       -0.0125
     29 C          -6.5377    9.7146    0.0077 C.ar    1  LIG1       -0.0202
     30 S          -5.9551    8.0855    0.0068 S.2     1  LIG1       -0.0924
     31 H          -7.6008    9.9072    0.0083 H       1  LIG1        0.0695
     32 O          -3.0459   10.6778    0.0061 O.3     1  LIG1       -0.5056
     33 H          -3.2258   11.6263    0.0063 H       1  LIG1        0.2922
     34 H          -5.6626   11.6972    0.0078 H       1  LIG1        0.0659
@<TRIPOS>BOND
     1     8     7    1
     2     7     2    1
     3     2     3   ar
     4     2     1   ar
     5     9     3    1
     6     3     4   ar
     7     6     1    1
     8     1     5   ar
     9    16    15    1
    10    15    11    1
    11     4     5   ar
    12     4    10    1
    13    11    10   ar
    14    11    12   ar
    15    10    14   ar
    16    17    12    1
    17    12    13   ar
    18    14    13   ar
    19    13    18    1
    20    23    24    1
    21    23    19    1
    22    18    19   ar
    23    18    22   ar
    24    19    20   ar
    25    22    21   ar
    26    20    25    1
    27    20    21   ar
    28    21    26    1
    29    26    27   ar
    30    26    30   ar
    31    32    33    1
    32    32    27    1
    33    27    28   ar
    34    30    29   ar
    35    28    29   ar
    36    28    34    1
    37    29    31    1
