@<TRIPOS>MOLECULE
mol_data/opt/b3lyp/geoms/mol2/5fa5fa-5fa-.out
 26 28 0 0 0
SMALL
GASTEIGER

@<TRIPOS>ATOM
      1 C          -2.0672   -1.9315   -0.0017 C.ar    1  LIG1        0.0178
      2 C          -0.6981   -1.9010   -0.0014 C.ar    1  LIG1        0.1245
      3 C          -0.1549   -0.5823    0.0000 C.ar    1  LIG1       -0.0047
      4 C          -1.1237    0.4019    0.0008 C.ar    1  LIG1        0.0330
      5 S          -2.7240   -0.3225   -0.0003 S.2     1  LIG1       -0.0923
      6 H          -2.7117   -2.7968   -0.0027 H       1  LIG1        0.0730
      7 O           0.0495   -3.0465   -0.0024 O.3     1  LIG1       -0.5062
      8 H           0.9835   -2.8029   -0.0018 H       1  LIG1        0.2922
      9 H           0.9043   -0.3587    0.0005 H       1  LIG1        0.0666
     10 C          -0.9415    1.8338    0.0021 C.ar    1  LIG1        0.0679
     11 C           0.2435    2.5511    0.0027 C.ar    1  LIG1        0.1327
     12 C           0.0818    3.9606    0.0033 C.ar    1  LIG1       -0.0041
     13 C          -1.2401    4.3576    0.0034 C.ar    1  LIG1        0.0336
     14 S          -2.2957    2.9561    0.0040 S.2     1  LIG1       -0.0833
     15 O           1.4582    1.9216    0.0020 O.3     1  LIG1       -0.5056
     16 H           2.1530    2.5920    0.0025 H       1  LIG1        0.2922
     17 H           0.9042    4.6646    0.0033 H       1  LIG1        0.0666
     18 C          -1.7715    5.6999    0.0038 C.ar    1  LIG1        0.0674
     19 C          -1.0725    6.8967    0.0204 C.ar    1  LIG1        0.1321
     20 C          -1.9040    8.0547    0.0166 C.ar    1  LIG1       -0.0125
     21 C          -3.2343    7.7443   -0.0033 C.ar    1  LIG1       -0.0202
     22 S          -3.4976    6.0341   -0.0183 S.2     1  LIG1       -0.0924
     23 H          -4.0773    8.4199   -0.0103 H       1  LIG1        0.0695
     24 O           0.2946    6.9273    0.0393 O.3     1  LIG1       -0.5056
     25 H           0.5874    7.8471    0.0485 H       1  LIG1        0.2922
     26 H          -1.5205    9.0699    0.0283 H       1  LIG1        0.0659
@<TRIPOS>BOND
     1    22    21   ar
     2    22    18   ar
     3    23    21    1
     4    21    20   ar
     5     6     1    1
     6     7     8    1
     7     7     2    1
     8     1     2   ar
     9     1     5   ar
    10     2     3   ar
    11     5     4   ar
    12     3     9    1
    13     3     4   ar
    14     4    10    1
    15    15    16    1
    16    15    11    1
    17    10    11   ar
    18    10    14   ar
    19    11    12   ar
    20    17    12    1
    21    12    13   ar
    22    13    18    1
    23    13    14   ar
    24    18    19   ar
    25    20    19   ar
    26    20    26    1
    27    19    24    1
    28    24    25    1
