@<TRIPOS>MOLECULE
mol_data/opt/b3lyp/geoms/mol2/5fa5fa5fa-.out
 26 28 0 0 0
SMALL
GASTEIGER

@<TRIPOS>ATOM
      1 C          -2.0672   -1.9315   -0.0012 C.ar    1  LIG1        0.0178
      2 C          -0.6981   -1.9010    0.0006 C.ar    1  LIG1        0.1245
      3 C          -0.1549   -0.5823    0.0013 C.ar    1  LIG1       -0.0047
      4 C          -1.1237    0.4019    0.0001 C.ar    1  LIG1        0.0330
      5 S          -2.7240   -0.3225   -0.0008 S.2     1  LIG1       -0.0923
      6 H          -2.7117   -2.7968   -0.0024 H       1  LIG1        0.0730
      7 O           0.0495   -3.0465    0.0013 O.3     1  LIG1       -0.5062
      8 H           0.9834   -2.8029    0.0032 H       1  LIG1        0.2922
      9 H           0.9043   -0.3587    0.0022 H       1  LIG1        0.0666
     10 C          -0.9414    1.8338    0.0004 C.ar    1  LIG1        0.0679
     11 C           0.2434    2.5511    0.0186 C.ar    1  LIG1        0.1327
     12 C           0.0818    3.9606    0.0143 C.ar    1  LIG1       -0.0041
     13 C          -1.2400    4.3576   -0.0076 C.ar    1  LIG1        0.0336
     14 S          -2.2954    2.9561   -0.0241 S.2     1  LIG1       -0.0833
     15 O           1.4579    1.9216    0.0395 O.3     1  LIG1       -0.5056
     16 H           2.1527    2.5920    0.0496 H       1  LIG1        0.2922
     17 H           0.9040    4.6646    0.0272 H       1  LIG1        0.0666
     18 C          -1.7713    5.6999   -0.0176 C.ar    1  LIG1        0.0674
     19 C          -1.0724    6.8967   -0.0056 C.ar    1  LIG1        0.1321
     20 C          -1.9038    8.0547   -0.0207 C.ar    1  LIG1       -0.0125
     21 C          -3.2340    7.7443   -0.0441 C.ar    1  LIG1       -0.0202
     22 S          -3.4973    6.0340   -0.0484 S.2     1  LIG1       -0.0924
     23 H          -4.0769    8.4198   -0.0592 H       1  LIG1        0.0695
     24 O           0.2947    6.9274    0.0184 O.3     1  LIG1       -0.5056
     25 H           0.5874    7.8473    0.0247 H       1  LIG1        0.2922
     26 H          -1.5202    9.0700   -0.0142 H       1  LIG1        0.0659
@<TRIPOS>BOND
     1    23    21    1
     2    22    21   ar
     3    22    18   ar
     4    21    20   ar
     5    14    13   ar
     6    14    10   ar
     7    20    26    1
     8    20    19   ar
     9    18    13    1
    10    18    19   ar
    11    13    12   ar
    12    19    24    1
    13     6     1    1
    14     1     5   ar
    15     1     2   ar
    16     5     4   ar
    17     4    10    1
    18     4     3   ar
    19    10    11   ar
    20     2     7    1
    21     2     3   ar
    22     7     8    1
    23     3     9    1
    24    12    11   ar
    25    12    17    1
    26    24    25    1
    27    11    15    1
    28    15    16    1
