@<TRIPOS>MOLECULE
mol_data/opt/b3lyp/geoms/mol2/5fd.out
 11 11 0 0 0
SMALL
GASTEIGER

@<TRIPOS>ATOM
      1 C          -2.0948   -1.7320    0.0000 C.ar    1  LIG1        0.0185
      2 C          -0.7279   -1.6897   -0.0004 C.ar    1  LIG1        0.1411
      3 C          -0.2214   -0.3365   -0.0001 C.ar    1  LIG1        0.1001
      4 C          -1.2268    0.6052    0.0004 C.ar    1  LIG1       -0.0033
      5 S          -2.7767   -0.1344    0.0008 S.2     1  LIG1       -0.1000
      6 H          -2.7246   -2.6088   -0.0000 H       1  LIG1        0.0730
      7 H          -1.1189    1.6797    0.0006 H       1  LIG1        0.0707
      8 O           0.0507   -2.7990   -0.0010 O.3     1  LIG1       -0.5049
      9 H           0.9841   -2.5397   -0.0012 H       1  LIG1        0.2922
     10 N           2.3335    0.0596   -0.0009 N.1     1  LIG1       -0.1907
     11 C           1.1753   -0.0672   -0.0004 C.1     1  LIG1        0.1034
@<TRIPOS>BOND
     1     9     8    1
     2     8     2    1
     3    10    11    3
     4     2     3   ar
     5     2     1   ar
     6    11     3    1
     7     3     4   ar
     8     6     1    1
     9     1     5   ar
    10     4     7    1
    11     4     5   ar
