@<TRIPOS>MOLECULE
mol_data/opt/b3lyp/geoms/mol2/5fd5fd5fd-5fd.out
 38 41 0 0 0
SMALL
GASTEIGER

@<TRIPOS>ATOM
      1 C          -2.0298   -1.9436    0.2480 C.ar    1  LIG1        0.0191
      2 C          -0.7194   -1.9533   -0.1404 C.ar    1  LIG1        0.1418
      3 C          -0.1466   -0.6305   -0.2086 C.ar    1  LIG1        0.1084
      4 C          -1.0423    0.3723    0.1463 C.ar    1  LIG1        0.0505
      5 S          -2.5832   -0.3303    0.5663 S.2     1  LIG1       -0.0910
      6 H          -2.6884   -2.7912    0.3596 H       1  LIG1        0.0731
      7 O          -0.0463   -3.0869   -0.4459 O.3     1  LIG1       -0.5049
      8 H           0.8566   -2.8633   -0.7194 H       1  LIG1        0.2922
      9 N           2.2651   -0.4637   -1.1129 N.1     1  LIG1       -0.1907
     10 C           1.1804   -0.4651   -0.6866 C.1     1  LIG1        0.1040
     11 C          -0.8328    1.8007    0.2036 C.ar    1  LIG1        0.0705
     12 C           0.2808    2.4906    0.6412 C.ar    1  LIG1        0.1501
     13 C           0.1231    3.9187    0.6015 C.ar    1  LIG1        0.1090
     14 C          -1.1216    4.3230    0.1287 C.ar    1  LIG1        0.0511
     15 S          -2.0857    2.9318   -0.2899 S.2     1  LIG1       -0.0820
     16 O           1.3732    1.8646    1.1185 O.3     1  LIG1       -0.5043
     17 H           2.0584    2.5123    1.3462 H       1  LIG1        0.2922
     18 N           2.0533    5.3132    1.5982 N.1     1  LIG1       -0.1907
     19 C           1.1524    4.7475    1.1231 C.1     1  LIG1        0.1040
     20 C          -1.6373    5.6578   -0.0504 C.ar    1  LIG1        0.0705
     21 C          -0.9694    6.7870   -0.4877 C.ar    1  LIG1        0.1501
     22 C          -1.8157    7.9422   -0.6035 C.ar    1  LIG1        0.1090
     23 C          -3.1386    7.6939   -0.2539 C.ar    1  LIG1        0.0511
     24 S          -3.3297    6.0355    0.2448 S.2     1  LIG1       -0.0820
     25 O           0.3302    6.7643   -0.8322 O.3     1  LIG1       -0.5043
     26 H           0.6271    7.6508   -1.0914 H       1  LIG1        0.2922
     27 N          -0.7422   10.0651   -1.6070 N.1     1  LIG1       -0.1907
     28 C          -1.2845    9.1471   -1.1375 C.1     1  LIG1        0.1040
     29 C          -4.2608    8.6033   -0.2439 C.ar    1  LIG1        0.0699
     30 C          -4.2800    9.9342    0.1330 C.ar    1  LIG1        0.1494
     31 C          -5.5894   10.5241    0.0332 C.ar    1  LIG1        0.1007
     32 C          -6.5423    9.6318   -0.4041 C.ar    1  LIG1       -0.0027
     33 S          -5.8757    8.0823   -0.7137 S.2     1  LIG1       -0.0910
     34 H          -7.5936    9.8243   -0.5625 H       1  LIG1        0.0708
     35 O          -3.1858   10.5720    0.5869 O.3     1  LIG1       -0.5043
     36 H          -3.3782   11.5096    0.7417 H       1  LIG1        0.2922
     37 N          -5.9143   13.0052    0.6840 N.1     1  LIG1       -0.1907
     38 C          -5.8151   11.8855    0.3799 C.1     1  LIG1        0.1034
@<TRIPOS>BOND
     1    27    28    3
     2    28    22    1
     3     9    10    3
     4    26    25    1
     5    25    21    1
     6     8     7    1
     7    33    32   ar
     8    33    29   ar
     9    10     3    1
    10    22    21   ar
    11    22    23   ar
    12    34    32    1
    13    21    20   ar
    14     7     2    1
    15    32    31   ar
    16    15    14   ar
    17    15    11   ar
    18    23    29    1
    19    23    24   ar
    20    29    30   ar
    21     3     2   ar
    22     3     4   ar
    23     2     1   ar
    24    20    14    1
    25    20    24   ar
    26    31    30   ar
    27    31    38    1
    28    14    13   ar
    29    30    35    1
    30     4    11    1
    31     4     5   ar
    32    11    12   ar
    33     1     6    1
    34     1     5   ar
    35    38    37    3
    36    35    36    1
    37    13    12   ar
    38    13    19    1
    39    12    16    1
    40    16    17    1
    41    19    18    3
