@<TRIPOS>MOLECULE
mol_data/opt/b3lyp/geoms/mol2/5fd5fd-5fd5fd.out
 38 41 0 0 0
SMALL
GASTEIGER

@<TRIPOS>ATOM
      1 C          -2.0312   -1.9461    0.2058 C.ar    1  LIG1        0.0191
      2 C          -0.7239   -1.9523   -0.1931 C.ar    1  LIG1        0.1418
      3 C          -0.1512   -0.6290   -0.2525 C.ar    1  LIG1        0.1084
      4 C          -1.0436    0.3704    0.1200 C.ar    1  LIG1        0.0505
      5 S          -2.5813   -0.3360    0.5451 S.2     1  LIG1       -0.0910
      6 H          -2.6892   -2.7947    0.3140 H       1  LIG1        0.0731
      7 O          -0.0536   -3.0829   -0.5154 O.3     1  LIG1       -0.5049
      8 H           0.8466   -2.8566   -0.7954 H       1  LIG1        0.2922
      9 N           2.2534   -0.4531   -1.1740 N.1     1  LIG1       -0.1907
     10 C           1.1720   -0.4589   -0.7392 C.1     1  LIG1        0.1040
     11 C          -0.8330    1.7981    0.1900 C.ar    1  LIG1        0.0705
     12 C           0.2844    2.4831    0.6257 C.ar    1  LIG1        0.1501
     13 C           0.1270    3.9115    0.6016 C.ar    1  LIG1        0.1090
     14 C          -1.1211    4.3211    0.1428 C.ar    1  LIG1        0.0511
     15 S          -2.0893    2.9345   -0.2819 S.2     1  LIG1       -0.0820
     16 O           1.3801    1.8518    1.0882 O.3     1  LIG1       -0.5043
     17 H           2.0684    2.4967    1.3145 H       1  LIG1        0.2922
     18 N           2.0653    5.2961    1.5968 N.1     1  LIG1       -0.1907
     19 C           1.1607    4.7349    1.1232 C.1     1  LIG1        0.1040
     20 C          -1.6375    5.6579   -0.0187 C.ar    1  LIG1        0.0705
     21 C          -0.9726    6.7911   -0.4501 C.ar    1  LIG1        0.1501
     22 C          -1.8191    7.9478   -0.5473 C.ar    1  LIG1        0.1090
     23 C          -3.1392    7.6967   -0.1895 C.ar    1  LIG1        0.0511
     24 S          -3.3274    6.0335    0.2940 S.2     1  LIG1       -0.0820
     25 O           0.3242    6.7712   -0.8056 O.3     1  LIG1       -0.5043
     26 H           0.6194    7.6601   -1.0582 H       1  LIG1        0.2922
     27 N          -0.7523   10.0801   -1.5379 N.1     1  LIG1       -0.1907
     28 C          -1.2915    9.1578   -1.0735 C.1     1  LIG1        0.1040
     29 C          -4.2607    8.6066   -0.1613 C.ar    1  LIG1        0.0699
     30 C          -4.2761    9.9336    0.2291 C.ar    1  LIG1        0.1494
     31 C          -5.5860   10.5251    0.1457 C.ar    1  LIG1        0.1007
     32 C          -6.5429    9.6377   -0.2927 C.ar    1  LIG1       -0.0027
     33 S          -5.8796    8.0912   -0.6235 S.2     1  LIG1       -0.0910
     34 H          -7.5953    9.8322   -0.4405 H       1  LIG1        0.0708
     35 O          -3.1779   10.5665    0.6801 O.3     1  LIG1       -0.5043
     36 H          -3.3690   11.5021    0.8476 H       1  LIG1        0.2922
     37 N          -5.9042   12.9996    0.8244 N.1     1  LIG1       -0.1907
     38 C          -5.8082   11.8831    0.5080 C.1     1  LIG1        0.1034
@<TRIPOS>BOND
     1    27    28    3
     2     9    10    3
     3    28    22    1
     4    26    25    1
     5    25    21    1
     6     8     7    1
     7    10     3    1
     8    33    32   ar
     9    33    29   ar
    10    22    21   ar
    11    22    23   ar
    12     7     2    1
    13    21    20   ar
    14    34    32    1
    15    32    31   ar
    16    15    14   ar
    17    15    11   ar
    18     3     2   ar
    19     3     4   ar
    20     2     1   ar
    21    23    29    1
    22    23    24   ar
    23    29    30   ar
    24    20    14    1
    25    20    24   ar
    26     4    11    1
    27     4     5   ar
    28    14    13   ar
    29    31    30   ar
    30    31    38    1
    31    11    12   ar
    32     1     6    1
    33     1     5   ar
    34    30    35    1
    35    38    37    3
    36    13    12   ar
    37    13    19    1
    38    12    16    1
    39    35    36    1
    40    16    17    1
    41    19    18    3
