@<TRIPOS>MOLECULE
mol_data/opt/b3lyp/geoms/mol2/5fd5fd-5fd-.out
 29 31 0 0 0
SMALL
GASTEIGER

@<TRIPOS>ATOM
      1 C          -2.0093   -1.9105   -0.2427 C.ar    1  LIG1        0.0191
      2 C          -0.7357   -1.8866    0.2531 C.ar    1  LIG1        0.1418
      3 C          -0.1909   -0.5526    0.3296 C.ar    1  LIG1        0.1084
      4 C          -1.0690    0.4238   -0.1277 C.ar    1  LIG1        0.0505
      5 S          -2.5585   -0.3168   -0.6528 S.2     1  LIG1       -0.0910
      6 H          -2.6435   -2.7724   -0.3837 H       1  LIG1        0.0731
      7 O          -0.0734   -2.9993    0.6461 O.3     1  LIG1       -0.5049
      8 H           0.8003   -2.7527    0.9865 H       1  LIG1        0.2922
      9 N           2.1358   -0.3131    1.4212 N.1     1  LIG1       -0.1907
     10 C           1.0897   -0.3490    0.9089 C.1     1  LIG1        0.1040
     11 C          -0.8758    1.8538   -0.2107 C.ar    1  LIG1        0.0705
     12 C           0.2583    2.5481   -0.5839 C.ar    1  LIG1        0.1501
     13 C           0.0772    3.9740   -0.5979 C.ar    1  LIG1        0.1090
     14 C          -1.2042    4.3705   -0.2323 C.ar    1  LIG1        0.0511
     15 S          -2.1767    2.9784    0.1550 S.2     1  LIG1       -0.0820
     16 O           1.3922    1.9263   -0.9594 O.3     1  LIG1       -0.5043
     17 H           2.0866    2.5774   -1.1456 H       1  LIG1        0.2922
     18 N           2.0530    5.3870   -1.4734 N.1     1  LIG1       -0.1907
     19 C           1.1302    4.8098   -1.0582 C.1     1  LIG1        0.1040
     20 C          -1.7476    5.7062   -0.1347 C.ar    1  LIG1        0.0699
     21 C          -1.1298    6.8489    0.3392 C.ar    1  LIG1        0.1494
     22 C          -1.9882    8.0043    0.3028 C.ar    1  LIG1        0.1007
     23 C          -3.2438    7.7188   -0.1844 C.ar    1  LIG1       -0.0027
     24 S          -3.4019    6.0668   -0.6173 S.2     1  LIG1       -0.0910
     25 H          -4.0674    8.4066   -0.3111 H       1  LIG1        0.0708
     26 O           0.1268    6.8442    0.8217 O.3     1  LIG1       -0.5043
     27 H           0.4088    7.7451    1.0425 H       1  LIG1        0.2922
     28 N          -1.0897   10.2798    1.1396 N.1     1  LIG1       -0.1907
     29 C          -1.5360    9.2763    0.7524 C.1     1  LIG1        0.1034
@<TRIPOS>BOND
     1    18    19    3
     2    17    16    1
     3    19    13    1
     4    16    12    1
     5     5     1   ar
     6     5     4   ar
     7    24    23   ar
     8    24    20   ar
     9    13    12   ar
    10    13    14   ar
    11    12    11   ar
    12     6     1    1
    13    25    23    1
    14     1     2   ar
    15    14    20    1
    16    14    15   ar
    17    11     4    1
    18    11    15   ar
    19    23    22   ar
    20    20    21   ar
    21     4     3   ar
    22     2     3   ar
    23     2     7    1
    24    22    21   ar
    25    22    29    1
    26     3    10    1
    27    21    26    1
    28     7     8    1
    29    29    28    3
    30    26    27    1
    31    10     9    3
