@<TRIPOS>MOLECULE
mol_data/opt/b3lyp/geoms/mol2/5fd5fd-5fd-5fd-.out
 38 41 0 0 0
SMALL
GASTEIGER

@<TRIPOS>ATOM
      1 C          -2.0292   -1.9463   -0.1951 C.ar    1  LIG1        0.0191
      2 C          -0.7223   -1.9518    0.2050 C.ar    1  LIG1        0.1418
      3 C          -0.1499   -0.6284    0.2638 C.ar    1  LIG1        0.1084
      4 C          -1.0422    0.3705   -0.1102 C.ar    1  LIG1        0.0505
      5 S          -2.5794   -0.3365   -0.5361 S.2     1  LIG1       -0.0910
      6 H          -2.6869   -2.7950   -0.3034 H       1  LIG1        0.0731
      7 O          -0.0521   -3.0821    0.5289 O.3     1  LIG1       -0.5049
      8 H           0.8483   -2.8555    0.8081 H       1  LIG1        0.2922
      9 N           2.2535   -0.4514    1.1880 N.1     1  LIG1       -0.1907
     10 C           1.1727   -0.4577    0.7519 C.1     1  LIG1        0.1040
     11 C          -0.8319    1.7982   -0.1810 C.ar    1  LIG1        0.0705
     12 C           0.2859    2.4831   -0.6159 C.ar    1  LIG1        0.1501
     13 C           0.1281    3.9116   -0.5933 C.ar    1  LIG1        0.1090
     14 C          -1.1208    4.3212   -0.1366 C.ar    1  LIG1        0.0511
     15 S          -2.0891    2.9347    0.2881 S.2     1  LIG1       -0.0820
     16 O           1.3824    1.8518   -1.0764 O.3     1  LIG1       -0.5043
     17 H           2.0704    2.4968   -1.3033 H       1  LIG1        0.2922
     18 N           2.0678    5.2949   -1.5873 N.1     1  LIG1       -0.1907
     19 C           1.1625    4.7344   -1.1144 C.1     1  LIG1        0.1040
     20 C          -1.6379    5.6579    0.0231 C.ar    1  LIG1        0.0705
     21 C          -0.9737    6.7920    0.4533 C.ar    1  LIG1        0.1501
     22 C          -1.8206    7.9485    0.5484 C.ar    1  LIG1        0.1090
     23 C          -3.1404    7.6964    0.1900 C.ar    1  LIG1        0.0511
     24 S          -3.3276    6.0325   -0.2913 S.2     1  LIG1       -0.0820
     25 O           0.3228    6.7729    0.8097 O.3     1  LIG1       -0.5043
     26 H           0.6178    7.6623    1.0611 H       1  LIG1        0.2922
     27 N          -0.7559   10.0828    1.5370 N.1     1  LIG1       -0.1907
     28 C          -1.2940    9.1595    1.0733 C.1     1  LIG1        0.1040
     29 C          -4.2621    8.6060    0.1598 C.ar    1  LIG1        0.0699
     30 C          -4.2772    9.9323   -0.2330 C.ar    1  LIG1        0.1494
     31 C          -5.5871   10.5241   -0.1512 C.ar    1  LIG1        0.1007
     32 C          -6.5442    9.6375    0.2886 C.ar    1  LIG1       -0.0027
     33 S          -5.8813    8.0915    0.6221 S.2     1  LIG1       -0.0910
     34 H          -7.5967    9.8324    0.4358 H       1  LIG1        0.0708
     35 O          -3.1790   10.5641   -0.6852 O.3     1  LIG1       -0.5043
     36 H          -3.3692   11.5000   -0.8522 H       1  LIG1        0.2922
     37 N          -5.9050   12.9974   -0.8342 N.1     1  LIG1       -0.1907
     38 C          -5.8091   11.8814   -0.5158 C.1     1  LIG1        0.1034
@<TRIPOS>BOND
     1    18    19    3
     2    17    16    1
     3    19    13    1
     4    16    12    1
     5    36    35    1
     6    37    38    3
     7    35    30    1
     8    12    13   ar
     9    12    11   ar
    10    13    14   ar
    11     5     1   ar
    12     5     4   ar
    13    38    31    1
    14     6     1    1
    15    24    20   ar
    16    24    23   ar
    17    30    31   ar
    18    30    29   ar
    19     1     2   ar
    20    11     4    1
    21    11    15   ar
    22    31    32   ar
    23    14    20    1
    24    14    15   ar
    25     4     3   ar
    26    20    21   ar
    27    29    23    1
    28    29    33   ar
    29    23    22   ar
    30     2     3   ar
    31     2     7    1
    32     3    10    1
    33    32    34    1
    34    32    33   ar
    35    21    22   ar
    36    21    25    1
    37     7     8    1
    38    22    28    1
    39    10     9    3
    40    25    26    1
    41    28    27    3
