@<TRIPOS>MOLECULE
mol_data/opt/b3lyp/geoms/mol2/5fd5fd5fd5fd-.out
 38 41 0 0 0
SMALL
GASTEIGER

@<TRIPOS>ATOM
      1 C          -2.0142   -1.9430    0.2766 C.ar    1  LIG1        0.0191
      2 C          -0.7116   -1.9523   -0.1373 C.ar    1  LIG1        0.1418
      3 C          -0.1422   -0.6290   -0.2215 C.ar    1  LIG1        0.1084
      4 C          -1.0322    0.3739    0.1473 C.ar    1  LIG1        0.0505
      5 S          -2.5636   -0.3293    0.5998 S.2     1  LIG1       -0.0910
      6 H          -2.6694   -2.7911    0.4040 H       1  LIG1        0.0731
      7 O          -0.0430   -3.0861   -0.4520 O.3     1  LIG1       -0.5049
      8 H           0.8542   -2.8622   -0.7434 H       1  LIG1        0.2922
      9 N           2.2512   -0.4612   -1.1730 N.1     1  LIG1       -0.1907
     10 C           1.1750   -0.4632   -0.7257 C.1     1  LIG1        0.1040
     11 C          -0.8236    1.8027    0.1955 C.ar    1  LIG1        0.0705
     12 C           0.2973    2.4957    0.6090 C.ar    1  LIG1        0.1501
     13 C           0.1366    3.9233    0.5681 C.ar    1  LIG1        0.1090
     14 C          -1.1177    4.3244    0.1189 C.ar    1  LIG1        0.0511
     15 S          -2.0878    2.9304   -0.2765 S.2     1  LIG1       -0.0820
     16 O           1.3999    1.8728    1.0666 O.3     1  LIG1       -0.5043
     17 H           2.0886    2.5222    1.2784 H       1  LIG1        0.2922
     18 N           2.0839    5.3244    1.5216 N.1     1  LIG1       -0.1907
     19 C           1.1748    4.7554    1.0664 C.1     1  LIG1        0.1040
     20 C          -1.6390    5.6578   -0.0540 C.ar    1  LIG1        0.0705
     21 C          -0.9818    6.7868   -0.5077 C.ar    1  LIG1        0.1501
     22 C          -1.8321    7.9403   -0.6098 C.ar    1  LIG1        0.1090
     23 C          -3.1473    7.6911   -0.2331 C.ar    1  LIG1        0.0511
     24 S          -3.3259    6.0339    0.2740 S.2     1  LIG1       -0.0820
     25 O           0.3107    6.7652   -0.8780 O.3     1  LIG1       -0.5043
     26 H           0.6008    7.6512   -1.1462 H       1  LIG1        0.2922
     27 N          -0.7825   10.0620   -1.6409 N.1     1  LIG1       -0.1907
     28 C          -1.3137    9.1445   -1.1581 C.1     1  LIG1        0.1040
     29 C          -4.2704    8.5989   -0.2033 C.ar    1  LIG1        0.0699
     30 C          -4.2840    9.9307    0.1703 C.ar    1  LIG1        0.1494
     31 C          -5.5960   10.5186    0.0949 C.ar    1  LIG1        0.1007
     32 C          -6.5561    9.6238   -0.3210 C.ar    1  LIG1       -0.0027
     33 S          -5.8936    8.0744   -0.6396 S.2     1  LIG1       -0.0910
     34 H          -7.6106    9.8144   -0.4590 H       1  LIG1        0.0708
     35 O          -3.1819   10.5714    0.6004 O.3     1  LIG1       -0.5043
     36 H          -3.3729   11.5089    0.7576 H       1  LIG1        0.2922
     37 N          -5.9115   13.0010    0.7455 N.1     1  LIG1       -0.1907
     38 C          -5.8168   11.8806    0.4424 C.1     1  LIG1        0.1034
@<TRIPOS>BOND
     1    27    28    3
     2     9    10    3
     3    28    22    1
     4    26    25    1
     5    25    21    1
     6     8     7    1
     7    10     3    1
     8    33    32   ar
     9    33    29   ar
    10    22    21   ar
    11    22    23   ar
    12    21    20   ar
    13    34    32    1
    14     7     2    1
    15    32    31   ar
    16    15    14   ar
    17    15    11   ar
    18    23    29    1
    19    23    24   ar
    20     3     2   ar
    21     3     4   ar
    22    29    30   ar
    23     2     1   ar
    24    20    14    1
    25    20    24   ar
    26    31    30   ar
    27    31    38    1
    28    14    13   ar
    29     4    11    1
    30     4     5   ar
    31    30    35    1
    32    11    12   ar
    33     1     6    1
    34     1     5   ar
    35    38    37    3
    36    13    12   ar
    37    13    19    1
    38    35    36    1
    39    12    16    1
    40    19    18    3
    41    16    17    1
