@<TRIPOS>MOLECULE
mol_data/opt/b3lyp/geoms/mol2/5fd5fd.out
 20 21 0 0 0
SMALL
GASTEIGER

@<TRIPOS>ATOM
      1 C          -2.0369   -1.7975    0.4864 C.ar    1  LIG1        0.0191
      2 C          -0.7325   -1.8260    0.0786 C.ar    1  LIG1        0.1418
      3 C          -0.1996   -0.5096   -0.1769 C.ar    1  LIG1        0.1084
      4 C          -1.1181    0.5068    0.0558 C.ar    1  LIG1        0.0504
      5 S          -2.6298   -0.1710    0.5958 S.2     1  LIG1       -0.0910
      6 H          -2.6696   -2.6391    0.7233 H       1  LIG1        0.0731
      7 O          -0.0321   -2.9728   -0.0828 O.3     1  LIG1       -0.5049
      8 H           0.8601   -2.7657   -0.4004 H       1  LIG1        0.2922
      9 N           2.1990   -0.3793   -1.1234 N.1     1  LIG1       -0.1907
     10 C           1.1178   -0.3671   -0.6887 C.1     1  LIG1        0.1040
     11 C          -0.9422    1.9372   -0.0845 C.ar    1  LIG1        0.0699
     12 C           0.1504    2.7030    0.2724 C.ar    1  LIG1        0.1494
     13 C          -0.0320    4.1040   -0.0085 C.ar    1  LIG1        0.1007
     14 C          -1.2617    4.3800   -0.5627 C.ar    1  LIG1       -0.0027
     15 S          -2.2019    2.9599   -0.7656 S.2     1  LIG1       -0.0911
     16 H          -1.6428    5.3464   -0.8595 H       1  LIG1        0.0708
     17 O           1.2429    2.1769    0.8612 O.3     1  LIG1       -0.5043
     18 H           1.9298    2.8533    0.9608 H       1  LIG1        0.2922
     19 N           1.8570    5.7720    0.5706 N.1     1  LIG1       -0.1907
     20 C           0.9804    5.0572    0.2931 C.1     1  LIG1        0.1034
@<TRIPOS>BOND
     1     9    10    3
     2    16    14    1
     3    15    14   ar
     4    15    11   ar
     5    10     3    1
     6    14    13   ar
     7     8     7    1
     8     3     4   ar
     9     3     2   ar
    10    11     4    1
    11    11    12   ar
    12     7     2    1
    13    13    12   ar
    14    13    20    1
    15     4     5   ar
    16     2     1   ar
    17    12    17    1
    18    20    19    3
    19     1     5   ar
    20     1     6    1
    21    17    18    1
