@<TRIPOS>MOLECULE
mol_data/opt/b3lyp/geoms/mol2/5fd5fd5fd5fd.out
 38 41 0 0 0
SMALL
GASTEIGER

@<TRIPOS>ATOM
      1 C          -2.0213   -1.9438    0.2606 C.ar    1  LIG1        0.0191
      2 C          -0.7165   -1.9528   -0.1464 C.ar    1  LIG1        0.1418
      3 C          -0.1458   -0.6296   -0.2237 C.ar    1  LIG1        0.1084
      4 C          -1.0371    0.3728    0.1433 C.ar    1  LIG1        0.0505
      5 S          -2.5712   -0.3307    0.5858 S.2     1  LIG1       -0.0910
      6 H          -2.6775   -2.7918    0.3822 H       1  LIG1        0.0731
      7 O          -0.0469   -3.0862   -0.4607 O.3     1  LIG1       -0.5049
      8 H           0.8516   -2.8619   -0.7477 H       1  LIG1        0.2922
      9 N           2.2526   -0.4614   -1.1626 N.1     1  LIG1       -0.1907
     10 C           1.1741   -0.4634   -0.7206 C.1     1  LIG1        0.1040
     11 C          -0.8278    1.8013    0.1967 C.ar    1  LIG1        0.0705
     12 C           0.2913    2.4922    0.6184 C.ar    1  LIG1        0.1501
     13 C           0.1320    3.9202    0.5803 C.ar    1  LIG1        0.1090
     14 C          -1.1195    4.3234    0.1248 C.ar    1  LIG1        0.0511
     15 S          -2.0883    2.9313   -0.2797 S.2     1  LIG1       -0.0820
     16 O           1.3909    1.8673    1.0804 O.3     1  LIG1       -0.5043
     17 H           2.0783    2.5157    1.2992 H       1  LIG1        0.2922
     18 N           2.0747    5.3168    1.5495 N.1     1  LIG1       -0.1907
     19 C           1.1678    4.7500    1.0871 C.1     1  LIG1        0.1040
     20 C          -1.6385    5.6577   -0.0478 C.ar    1  LIG1        0.0705
     21 C          -0.9775    6.7872   -0.4946 C.ar    1  LIG1        0.1501
     22 C          -1.8260    7.9418   -0.5989 C.ar    1  LIG1        0.1090
     23 C          -3.1438    7.6929   -0.2309 C.ar    1  LIG1        0.0511
     24 S          -3.3270    6.0345    0.2708 S.2     1  LIG1       -0.0820
     25 O           0.3172    6.7652   -0.8574 O.3     1  LIG1       -0.5043
     26 H           0.6101    7.6519   -1.1203 H       1  LIG1        0.2922
     27 N          -0.7680   10.0651   -1.6180 N.1     1  LIG1       -0.1907
     28 C          -1.3030    9.1470   -1.1407 C.1     1  LIG1        0.1040
     29 C          -4.2661    8.6017   -0.2053 C.ar    1  LIG1        0.0699
     30 C          -4.2807    9.9326    0.1718 C.ar    1  LIG1        0.1494
     31 C          -5.5918   10.5217    0.0905 C.ar    1  LIG1        0.1007
     32 C          -6.5502    9.6288   -0.3332 C.ar    1  LIG1       -0.0027
     33 S          -5.8872    8.0797   -0.6520 S.2     1  LIG1       -0.0910
     34 H          -7.6038    9.8207   -0.4767 H       1  LIG1        0.0708
     35 O          -3.1807   10.5712    0.6100 O.3     1  LIG1       -0.5043
     36 H          -3.3715   11.5085    0.7680 H       1  LIG1        0.2922
     37 N          -5.9090   13.0027    0.7458 N.1     1  LIG1       -0.1907
     38 C          -5.8134   11.8831    0.4403 C.1     1  LIG1        0.1034
@<TRIPOS>BOND
     1    27    28    3
     2     9    10    3
     3    28    22    1
     4    26    25    1
     5    25    21    1
     6     8     7    1
     7    10     3    1
     8    33    32   ar
     9    33    29   ar
    10    22    21   ar
    11    22    23   ar
    12    21    20   ar
    13    34    32    1
    14     7     2    1
    15    32    31   ar
    16    15    14   ar
    17    15    11   ar
    18    23    29    1
    19    23    24   ar
    20     3     2   ar
    21     3     4   ar
    22    29    30   ar
    23     2     1   ar
    24    20    14    1
    25    20    24   ar
    26    31    30   ar
    27    31    38    1
    28    14    13   ar
    29     4    11    1
    30     4     5   ar
    31    30    35    1
    32    11    12   ar
    33     1     6    1
    34     1     5   ar
    35    38    37    3
    36    13    12   ar
    37    13    19    1
    38    35    36    1
    39    12    16    1
    40    16    17    1
    41    19    18    3
