@<TRIPOS>MOLECULE
mol_data/opt/b3lyp/geoms/mol2/5fd5fd5fd-.out
 29 31 0 0 0
SMALL
GASTEIGER

@<TRIPOS>ATOM
      1 C          -1.9389   -1.8208    0.9144 C.ar    1  LIG1        0.0191
      2 C          -0.7929   -1.8994    0.1732 C.ar    1  LIG1        0.1418
      3 C          -0.2684   -0.6034   -0.1831 C.ar    1  LIG1        0.1084
      4 C          -1.0298    0.4498    0.3115 C.ar    1  LIG1        0.0505
      5 S          -2.3833   -0.1720    1.2183 S.2     1  LIG1       -0.0910
      6 H          -2.5351   -2.6378    1.2909 H       1  LIG1        0.0731
      7 O          -0.2308   -3.0731   -0.1983 O.3     1  LIG1       -0.5049
      8 H           0.5573   -2.8989   -0.7354 H       1  LIG1        0.2922
      9 N           1.7867   -0.5742   -1.7447 N.1     1  LIG1       -0.1907
     10 C           0.8677   -0.5137   -1.0306 C.1     1  LIG1        0.1040
     11 C          -0.8165    1.8725    0.1652 C.ar    1  LIG1        0.0705
     12 C           0.3743    2.5703    0.2047 C.ar    1  LIG1        0.1501
     13 C           0.2145    3.9858    0.0114 C.ar    1  LIG1        0.1090
     14 C          -1.1105    4.3740   -0.1496 C.ar    1  LIG1        0.0511
     15 S          -2.1579    2.9841   -0.0735 S.2     1  LIG1       -0.0820
     16 O           1.5571    1.9653    0.4259 O.3     1  LIG1       -0.5043
     17 H           2.2832    2.6004    0.3251 H       1  LIG1        0.2922
     18 N           2.3750    5.3935   -0.1199 N.1     1  LIG1       -0.1907
     19 C           1.3634    4.8190   -0.0593 C.1     1  LIG1        0.1040
     20 C          -1.6476    5.7008   -0.3540 C.ar    1  LIG1        0.0699
     21 C          -1.2538    6.8832    0.2442 C.ar    1  LIG1        0.1494
     22 C          -2.0287    8.0158   -0.1919 C.ar    1  LIG1        0.1007
     23 C          -3.0032    7.6741   -1.1025 C.ar    1  LIG1       -0.0027
     24 S          -2.9892    5.9960   -1.4553 S.2     1  LIG1       -0.0910
     25 H          -3.7134    8.3351   -1.5781 H       1  LIG1        0.0708
     26 O          -0.2779    6.9353    1.1702 O.3     1  LIG1       -0.5043
     27 H          -0.0931    7.8546    1.4162 H       1  LIG1        0.2922
     28 N          -1.5104   10.3555    0.7787 N.1     1  LIG1       -0.1907
     29 C          -1.7786    9.3218    0.3143 C.1     1  LIG1        0.1034
@<TRIPOS>BOND
     1     9    10    3
     2    25    23    1
     3    24    23   ar
     4    24    20   ar
     5    23    22   ar
     6    10     3    1
     7     8     7    1
     8    20    14    1
     9    20    21   ar
    10     7     2    1
    11    22    21   ar
    12    22    29    1
    13     3     2   ar
    14     3     4   ar
    15    14    15   ar
    16    14    13   ar
    17    18    19    3
    18    15    11   ar
    19    19    13    1
    20    13    12   ar
    21    11    12   ar
    22    11     4    1
    23     2     1   ar
    24    12    16    1
    25    21    26    1
    26     4     5   ar
    27    29    28    3
    28    17    16    1
    29     1     5   ar
    30     1     6    1
    31    26    27    1
