@<TRIPOS>MOLECULE
mol_data/opt/b3lyp/geoms/mol2/5fd5fd-5fd.out
 29 31 0 0 0
SMALL
GASTEIGER

@<TRIPOS>ATOM
      1 C          -2.2010   -1.7885    0.0011 C.ar    1  LIG1        0.0191
      2 C          -0.8419   -1.9096   -0.0002 C.ar    1  LIG1        0.1418
      3 C          -0.1538   -0.6352   -0.0002 C.ar    1  LIG1        0.1084
      4 C          -1.0258    0.4573    0.0010 C.ar    1  LIG1        0.0505
      5 S          -2.6781   -0.1231    0.0023 S.2     1  LIG1       -0.0910
      6 H          -2.9357   -2.5786    0.0014 H       1  LIG1        0.0731
      7 O          -0.2086   -3.1034   -0.0013 O.3     1  LIG1       -0.5049
      8 H           0.7517   -2.9584   -0.0021 H       1  LIG1        0.2922
      9 N           2.3888   -1.0196   -0.0031 N.1     1  LIG1       -0.1907
     10 C           1.2653   -0.7060   -0.0017 C.1     1  LIG1        0.1040
     11 C          -0.7919    1.8818    0.0014 C.ar    1  LIG1        0.0705
     12 C           0.3896    2.5992    0.0013 C.ar    1  LIG1        0.1501
     13 C           0.2193    4.0303    0.0018 C.ar    1  LIG1        0.1090
     14 C          -1.1188    4.4272    0.0024 C.ar    1  LIG1        0.0511
     15 S          -2.1439    3.0109    0.0023 S.2     1  LIG1       -0.0820
     16 O           1.5900    2.0003    0.0008 O.3     1  LIG1       -0.5043
     17 H           2.3033    2.6606    0.0007 H       1  LIG1        0.2922
     18 N           2.5210    5.1798    0.0011 N.1     1  LIG1       -0.1907
     19 C           1.4231    4.7872    0.0015 C.1     1  LIG1        0.1040
     20 C          -1.7446    5.7283    0.0030 C.ar    1  LIG1        0.0699
     21 C          -1.1768    6.9937    0.0037 C.ar    1  LIG1        0.1494
     22 C          -2.1481    8.0548    0.0042 C.ar    1  LIG1        0.1007
     23 C          -3.4427    7.5910    0.0039 C.ar    1  LIG1       -0.0027
     24 S          -3.5056    5.8784    0.0030 S.2     1  LIG1       -0.0910
     25 H          -4.3501    8.1771    0.0042 H       1  LIG1        0.0708
     26 O           0.1510    7.1919    0.0040 O.3     1  LIG1       -0.5043
     27 H           0.3614    8.1386    0.0044 H       1  LIG1        0.2922
     28 N          -1.3322   10.5080    0.0056 N.1     1  LIG1       -0.1907
     29 C          -1.7464    9.4197    0.0050 C.1     1  LIG1        0.1034
@<TRIPOS>BOND
     1     9    10    3
     2     8     7    1
     3    10     3    1
     4     7     2    1
     5     3     2   ar
     6     3     4   ar
     7     2     1   ar
     8    17    16    1
     9    16    12    1
    10     4    11    1
    11     4     5   ar
    12     1     6    1
    13     1     5   ar
    14    18    19    3
    15    12    11   ar
    16    12    13   ar
    17    11    15   ar
    18    19    13    1
    19    13    14   ar
    20    15    14   ar
    21    14    20    1
    22    24    20   ar
    23    24    23   ar
    24    20    21   ar
    25    21    26    1
    26    21    22   ar
    27    23    25    1
    28    23    22   ar
    29    26    27    1
    30    22    29    1
    31    29    28    3
