@<TRIPOS>MOLECULE
mol_data/opt/b3lyp/geoms/mol2/5fd5fd5fd-5fd-.out
 38 41 0 0 0
SMALL
GASTEIGER

@<TRIPOS>ATOM
      1 C          -1.6090   -1.9044    1.1625 C.ar    1  LIG1        0.0191
      2 C          -0.7377   -1.9432    0.1098 C.ar    1  LIG1        0.1418
      3 C          -0.3256   -0.6299   -0.3230 C.ar    1  LIG1        0.1084
      4 C          -0.8901    0.3958    0.4274 C.ar    1  LIG1        0.0505
      5 S          -1.9195   -0.2737    1.6659 S.2     1  LIG1       -0.0910
      6 H          -2.0772   -2.7404    1.6590 H       1  LIG1        0.0731
      7 O          -0.3285   -3.0956   -0.4701 O.3     1  LIG1       -0.5049
      8 H           0.2651   -2.8927   -1.2093 H       1  LIG1        0.2922
      9 N           1.1675   -0.5214   -2.4257 N.1     1  LIG1       -0.1907
     10 C           0.5058   -0.4966   -1.4666 C.1     1  LIG1        0.1040
     11 C          -0.7104    1.8241    0.2953 C.ar    1  LIG1        0.0705
     12 C           0.4466    2.5213    0.0094 C.ar    1  LIG1        0.1501
     13 C           0.2581    3.9449   -0.0536 C.ar    1  LIG1        0.1090
     14 C          -1.0484    4.3403    0.2153 C.ar    1  LIG1        0.0511
     15 S          -2.0456    2.9448    0.5309 S.2     1  LIG1       -0.0820
     16 O           1.6318    1.9073   -0.1688 O.3     1  LIG1       -0.5043
     17 H           2.3032    2.5490   -0.4489 H       1  LIG1        0.2922
     18 N           2.3055    5.3413   -0.7759 N.1     1  LIG1       -0.1907
     19 C           1.3463    4.7754   -0.4335 C.1     1  LIG1        0.1040
     20 C          -1.6060    5.6705    0.2527 C.ar    1  LIG1        0.0705
     21 C          -1.0297    6.8311    0.7346 C.ar    1  LIG1        0.1501
     22 C          -1.8986    7.9731    0.6631 C.ar    1  LIG1        0.1090
     23 C          -3.1471    7.6827    0.1241 C.ar    1  LIG1        0.0511
     24 S          -3.2363    6.0006   -0.3197 S.2     1  LIG1       -0.0820
     25 O           0.1998    6.8504    1.2796 O.3     1  LIG1       -0.5043
     26 H           0.4451    7.7554    1.5285 H       1  LIG1        0.2922
     27 N          -1.0229   10.1594    1.7211 N.1     1  LIG1       -0.1907
     28 C          -1.4733    9.2110    1.2164 C.1     1  LIG1        0.1040
     29 C          -4.2660    8.5683   -0.1005 C.ar    1  LIG1        0.0699
     30 C          -4.2435    9.8805   -0.5377 C.ar    1  LIG1        0.1494
     31 C          -5.5599   10.4496   -0.6640 C.ar    1  LIG1        0.1007
     32 C          -6.5574    9.5599   -0.3341 C.ar    1  LIG1       -0.0027
     33 S          -5.9271    8.0384    0.1440 S.2     1  LIG1       -0.0910
     34 H          -7.6228    9.7395   -0.3453 H       1  LIG1        0.0708
     35 O          -3.1009   10.5183   -0.8498 O.3     1  LIG1       -0.5043
     36 H          -3.2790   11.4442   -1.0759 H       1  LIG1        0.2922
     37 N          -5.8118   12.8930   -1.4710 N.1     1  LIG1       -0.1907
     38 C          -5.7466   11.7899   -1.1039 C.1     1  LIG1        0.1034
@<TRIPOS>BOND
     1     9    10    3
     2    37    38    3
     3    10     3    1
     4     8     7    1
     5    38    31    1
     6    36    35    1
     7    35    30    1
     8    18    19    3
     9    31    30   ar
    10    31    32   ar
    11    30    29   ar
    12     7     2    1
    13    17    16    1
    14    19    13    1
    15    34    32    1
    16    32    33   ar
    17     3     2   ar
    18     3     4   ar
    19    24    23   ar
    20    24    20   ar
    21    16    12    1
    22    29    23    1
    23    29    33   ar
    24    13    12   ar
    25    13    14   ar
    26    12    11   ar
    27     2     1   ar
    28    23    22   ar
    29    14    20    1
    30    14    15   ar
    31    20    21   ar
    32    11     4    1
    33    11    15   ar
    34     4     5   ar
    35    22    21   ar
    36    22    28    1
    37    21    25    1
    38     1     6    1
    39     1     5   ar
    40    28    27    3
    41    25    26    1
