@<TRIPOS>MOLECULE
mol_data/opt/b3lyp/geoms/mol2/5fd5fd-5fd5fd-.out
 38 41 0 0 0
SMALL
GASTEIGER

@<TRIPOS>ATOM
      1 C          -2.3576   -1.7008    0.0015 C.ar    1  LIG1        0.0191
      2 C          -1.0082   -1.9027    0.0001 C.ar    1  LIG1        0.1418
      3 C          -0.2447   -0.6722   -0.0001 C.ar    1  LIG1        0.1084
      4 C          -1.0495    0.4712    0.0012 C.ar    1  LIG1        0.0505
      5 S          -2.7340   -0.0093    0.0027 S.2     1  LIG1       -0.0910
      6 H          -3.1382   -2.4458    0.0019 H       1  LIG1        0.0731
      7 O          -0.4472   -3.1325   -0.0011 O.3     1  LIG1       -0.5049
      8 H           0.5200   -3.0441   -0.0021 H       1  LIG1        0.2922
      9 N           2.2702   -1.2094   -0.0033 N.1     1  LIG1       -0.1907
     10 C           1.1675   -0.8285   -0.0018 C.1     1  LIG1        0.1040
     11 C          -0.7318    1.8784    0.0015 C.ar    1  LIG1        0.0705
     12 C           0.4905    2.5254    0.0011 C.ar    1  LIG1        0.1501
     13 C           0.4071    3.9629    0.0016 C.ar    1  LIG1        0.1090
     14 C          -0.9067    4.4399    0.0025 C.ar    1  LIG1        0.0511
     15 S          -2.0153    3.0860    0.0027 S.2     1  LIG1       -0.0820
     16 O           1.6527    1.8552    0.0003 O.3     1  LIG1       -0.5043
     17 H           2.4037    2.4725   -0.0001 H       1  LIG1        0.2922
     18 N           2.7736    4.9712    0.0004 N.1     1  LIG1       -0.1907
     19 C           1.6537    4.6462    0.0010 C.1     1  LIG1        0.1040
     20 C          -1.4530    5.7703    0.0034 C.ar    1  LIG1        0.0705
     21 C          -0.8206    7.0024    0.0037 C.ar    1  LIG1        0.1501
     22 C          -1.7140    8.1308    0.0045 C.ar    1  LIG1        0.1090
     23 C          -3.0629    7.7679    0.0048 C.ar    1  LIG1        0.0511
     24 S          -3.1972    6.0244    0.0041 S.2     1  LIG1       -0.0820
     25 O           0.5139    7.1185    0.0034 O.3     1  LIG1       -0.5043
     26 H           0.7787    8.0542    0.0036 H       1  LIG1        0.2922
     27 N          -0.3518   10.3132    0.0048 N.1     1  LIG1       -0.1907
     28 C          -1.0838    9.4058    0.0047 C.1     1  LIG1        0.1040
     29 C          -4.2757    8.5489    0.0056 C.ar    1  LIG1        0.0699
     30 C          -4.4520    9.9255    0.0064 C.ar    1  LIG1        0.1494
     31 C          -5.8341   10.3230    0.0070 C.ar    1  LIG1        0.1007
     32 C          -6.6955    9.2509    0.0066 C.ar    1  LIG1       -0.0027
     33 S          -5.8560    7.7571    0.0055 S.2     1  LIG1       -0.0910
     34 H          -7.7759    9.2769    0.0068 H       1  LIG1        0.0708
     35 O          -3.4233   10.7866    0.0067 O.3     1  LIG1       -0.5043
     36 H          -3.7365   11.7046    0.0072 H       1  LIG1        0.2922
     37 N          -6.4169   12.8418    0.0086 N.1     1  LIG1       -0.1907
     38 C          -6.2039   11.6970    0.0078 C.1     1  LIG1        0.1034
@<TRIPOS>BOND
     1     9    10    3
     2     8     7    1
     3    10     3    1
     4     7     2    1
     5     3     2   ar
     6     3     4   ar
     7    17    16    1
     8     2     1   ar
     9    16    12    1
    10    18    19    3
    11    19    13    1
    12    12    11   ar
    13    12    13   ar
    14     4    11    1
    15     4     5   ar
    16     1     6    1
    17     1     5   ar
    18    11    15   ar
    19    13    14   ar
    20    14    15   ar
    21    14    20    1
    22    20    21   ar
    23    20    24   ar
    24    25    26    1
    25    25    21    1
    26    21    22   ar
    27    24    23   ar
    28    22    28    1
    29    22    23   ar
    30    28    27    3
    31    23    29    1
    32    33    29   ar
    33    33    32   ar
    34    29    30   ar
    35    30    35    1
    36    30    31   ar
    37    32    34    1
    38    32    31   ar
    39    35    36    1
    40    31    38    1
    41    38    37    3
