@<TRIPOS>MOLECULE
mol_data/opt/b3lyp/geoms/mol2/5fd5fd5fd.out
 29 31 0 0 0
SMALL
GASTEIGER

@<TRIPOS>ATOM
      1 C          -2.0083   -1.9102    0.2507 C.ar    1  LIG1        0.0191
      2 C          -0.7309   -1.8873   -0.2352 C.ar    1  LIG1        0.1418
      3 C          -0.1862   -0.5532   -0.3120 C.ar    1  LIG1        0.1084
      4 C          -1.0683    0.4241    0.1353 C.ar    1  LIG1        0.0505
      5 S          -2.5615   -0.3154    0.6509 S.2     1  LIG1       -0.0910
      6 H          -2.6429   -2.7720    0.3900 H       1  LIG1        0.0731
      7 O          -0.0649   -3.0011   -0.6191 O.3     1  LIG1       -0.5049
      8 H           0.8114   -2.7552   -0.9532 H       1  LIG1        0.2922
      9 N           2.1489   -0.3165   -1.3862 N.1     1  LIG1       -0.1907
     10 C           1.0988   -0.3509   -0.8820 C.1     1  LIG1        0.1040
     11 C          -0.8765    1.8546    0.2148 C.ar    1  LIG1        0.0705
     12 C           0.2542    2.5506    0.5951 C.ar    1  LIG1        0.1501
     13 C           0.0721    3.9765    0.6029 C.ar    1  LIG1        0.1090
     14 C          -1.2065    4.3709    0.2255 C.ar    1  LIG1        0.0511
     15 S          -2.1749    2.9771   -0.1653 S.2     1  LIG1       -0.0820
     16 O           1.3854    1.9307    0.9815 O.3     1  LIG1       -0.5043
     17 H           2.0772    2.5829    1.1732 H       1  LIG1        0.2922
     18 N           2.0402    5.3923    1.4910 N.1     1  LIG1       -0.1907
     19 C           1.1209    4.8141    1.0694 C.1     1  LIG1        0.1040
     20 C          -1.7499    5.7060    0.1192 C.ar    1  LIG1        0.0699
     21 C          -1.1290    6.8476   -0.3532 C.ar    1  LIG1        0.1494
     22 C          -1.9883    8.0026   -0.3273 C.ar    1  LIG1        0.1007
     23 C          -3.2477    7.7179    0.1506 C.ar    1  LIG1       -0.0027
     24 S          -3.4082    6.0672    0.5875 S.2     1  LIG1       -0.0910
     25 H          -4.0727    8.4055    0.2684 H       1  LIG1        0.0708
     26 O           0.1316    6.8423   -0.8255 O.3     1  LIG1       -0.5043
     27 H           0.4141    7.7425   -1.0483 H       1  LIG1        0.2922
     28 N          -1.0843   10.2758   -1.1644 N.1     1  LIG1       -0.1907
     29 C          -1.5332    9.2734   -0.7773 C.1     1  LIG1        0.1034
@<TRIPOS>BOND
     1     9    10    3
     2    28    29    3
     3    27    26    1
     4     8     7    1
     5    10     3    1
     6    26    21    1
     7    29    22    1
     8     7     2    1
     9    21    22   ar
    10    21    20   ar
    11    22    23   ar
    12     3     2   ar
    13     3     4   ar
    14     2     1   ar
    15    15    11   ar
    16    15    14   ar
    17    20    14    1
    18    20    24   ar
    19     4    11    1
    20     4     5   ar
    21    23    25    1
    22    23    24   ar
    23    11    12   ar
    24    14    13   ar
    25     1     6    1
    26     1     5   ar
    27    12    13   ar
    28    12    16    1
    29    13    19    1
    30    16    17    1
    31    19    18    3
