@<TRIPOS>MOLECULE
mol_data/opt/b3lyp/geoms/mol2/5fd5fd-.out
 20 21 0 0 0
SMALL
GASTEIGER

@<TRIPOS>ATOM
      1 C          -2.0312   -1.7988    0.4932 C.ar    1  LIG1        0.0191
      2 C          -0.7309   -1.8263    0.0725 C.ar    1  LIG1        0.1418
      3 C          -0.2010   -0.5094   -0.1865 C.ar    1  LIG1        0.1084
      4 C          -1.1175    0.5064    0.0569 C.ar    1  LIG1        0.0504
      5 S          -2.6235   -0.1727    0.6107 S.2     1  LIG1       -0.0910
      6 H          -2.6611   -2.6410    0.7355 H       1  LIG1        0.0731
      7 O          -0.0319   -2.9727   -0.0979 O.3     1  LIG1       -0.5049
      8 H           0.8583   -2.7645   -0.4205 H       1  LIG1        0.2922
      9 N           2.1881   -0.3766   -1.1563 N.1     1  LIG1       -0.1907
     10 C           1.1111   -0.3656   -0.7112 C.1     1  LIG1        0.1040
     11 C          -0.9434    1.9371   -0.0835 C.ar    1  LIG1        0.0699
     12 C           0.1524    2.7027    0.2637 C.ar    1  LIG1        0.1494
     13 C          -0.0327    4.1040   -0.0140 C.ar    1  LIG1        0.1007
     14 C          -1.2678    4.3804   -0.5561 C.ar    1  LIG1       -0.0027
     15 S          -2.2096    2.9604   -0.7517 S.2     1  LIG1       -0.0911
     16 H          -1.6518    5.3470   -0.8482 H       1  LIG1        0.0708
     17 O           1.2507    2.1763    0.8412 O.3     1  LIG1       -0.5043
     18 H           1.9372    2.8536    0.9377 H       1  LIG1        0.2922
     19 N           1.8613    5.7714    0.5495 N.1     1  LIG1       -0.1907
     20 C           0.9822    5.0570    0.2792 C.1     1  LIG1        0.1034
@<TRIPOS>BOND
     1     9    10    3
     2    16    14    1
     3    15    14   ar
     4    15    11   ar
     5    10     3    1
     6    14    13   ar
     7     8     7    1
     8     3     4   ar
     9     3     2   ar
    10     7     2    1
    11    11     4    1
    12    11    12   ar
    13    13    12   ar
    14    13    20    1
    15     4     5   ar
    16     2     1   ar
    17    12    17    1
    18    20    19    3
    19     1     5   ar
    20     1     6    1
    21    17    18    1
