@<TRIPOS>MOLECULE
mol_data/opt/b3lyp/geoms/mol2/5fd5fd-5fd-5fd.out
 38 41 0 0 0
SMALL
GASTEIGER

@<TRIPOS>ATOM
      1 C          -2.0855   -1.9103    0.1650 C.ar    1  LIG1        0.0191
      2 C          -0.7715   -1.9042    0.5414 C.ar    1  LIG1        0.1418
      3 C          -0.1812   -0.5885    0.4894 C.ar    1  LIG1        0.1084
      4 C          -1.0674    0.3918    0.0564 C.ar    1  LIG1        0.0505
      5 S          -2.6214   -0.3233   -0.2867 S.2     1  LIG1       -0.0910
      6 H          -2.7562   -2.7552    0.1338 H       1  LIG1        0.0731
      7 O          -0.1100   -3.0162    0.9383 O.3     1  LIG1       -0.5049
      8 H           0.7983   -2.7822    1.1834 H       1  LIG1        0.2922
      9 N           2.2425   -0.3749    1.3511 N.1     1  LIG1       -0.1907
     10 C           1.1531   -0.3998    0.9377 C.1     1  LIG1        0.1040
     11 C          -0.8391    1.8065   -0.1297 C.ar    1  LIG1        0.0705
     12 C           0.2780    2.4373   -0.6414 C.ar    1  LIG1        0.1501
     13 C           0.1400    3.8651   -0.7297 C.ar    1  LIG1        0.1090
     14 C          -1.0930    4.3288   -0.2817 C.ar    1  LIG1        0.0511
     15 S          -2.0688    2.9960    0.2751 S.2     1  LIG1       -0.0820
     16 O           1.3549    1.7545   -1.0739 O.3     1  LIG1       -0.5043
     17 H           2.0461    2.3685   -1.3672 H       1  LIG1        0.2922
     18 N           2.0729    5.1355   -1.8762 N.1     1  LIG1       -0.1907
     19 C           1.1724    4.6282   -1.3385 C.1     1  LIG1        0.1040
     20 C          -1.5889    5.6825   -0.2224 C.ar    1  LIG1        0.0705
     21 C          -0.8983    6.8376    0.0943 C.ar    1  LIG1        0.1501
     22 C          -1.7138    8.0198    0.0543 C.ar    1  LIG1        0.1090
     23 C          -3.0419    7.7628   -0.2670 C.ar    1  LIG1        0.0511
     24 S          -3.2806    6.0570   -0.5291 S.2     1  LIG1       -0.0820
     25 O           0.4047    6.8273    0.4272 O.3     1  LIG1       -0.5043
     26 H           0.7334    7.7336    0.5363 H       1  LIG1        0.2922
     27 N          -0.5105   10.2714    0.4397 N.1     1  LIG1       -0.1907
     28 C          -1.1158    9.2909    0.2686 C.1     1  LIG1        0.1040
     29 C          -4.1404    8.6936   -0.3935 C.ar    1  LIG1        0.0699
     30 C          -4.4213    9.7952    0.3939 C.ar    1  LIG1        0.1494
     31 C          -5.6154   10.4863   -0.0178 C.ar    1  LIG1        0.1007
     32 C          -6.2263    9.8931   -1.0996 C.ar    1  LIG1       -0.0027
     33 S          -5.3681    8.5112   -1.6421 S.2     1  LIG1       -0.0910
     34 H          -7.1301   10.2148   -1.5968 H       1  LIG1        0.0708
     35 O          -3.6692   10.1351    1.4567 O.3     1  LIG1       -0.5043
     36 H          -3.9813   10.9689    1.8406 H       1  LIG1        0.2922
     37 N          -6.3804   12.5813    1.2901 N.1     1  LIG1       -0.1907
     38 C          -6.0741   11.6436    0.6712 C.1     1  LIG1        0.1034
@<TRIPOS>BOND
     1    18    19    3
     2    33    32   ar
     3    33    29   ar
     4    34    32    1
     5    17    16    1
     6    19    13    1
     7    32    31   ar
     8    16    12    1
     9    13    12   ar
    10    13    14   ar
    11    12    11   ar
    12    24    23   ar
    13    24    20   ar
    14    29    23    1
    15    29    30   ar
    16     5     4   ar
    17     5     1   ar
    18    14    20    1
    19    14    15   ar
    20    23    22   ar
    21    20    21   ar
    22    11     4    1
    23    11    15   ar
    24    31    30   ar
    25    31    38    1
    26    22    21   ar
    27    22    28    1
    28     4     3   ar
    29    21    25    1
    30     6     1    1
    31     1     2   ar
    32    28    27    3
    33    30    35    1
    34    25    26    1
    35     3     2   ar
    36     3    10    1
    37     2     7    1
    38    38    37    3
    39    10     9    3
    40     7     8    1
    41    35    36    1
