@<TRIPOS>MOLECULE
mol_data/opt/b3lyp/geoms/mol2/5fe.out
 12 12 0 0 0
SMALL
GASTEIGER

@<TRIPOS>ATOM
      1 C          -2.0980   -1.7435    0.0002 C.ar    1  LIG1        0.0184
      2 C          -0.7333   -1.6796   -0.0004 C.ar    1  LIG1        0.1391
      3 C          -0.2317   -0.3218   -0.0003 C.ar    1  LIG1        0.0730
      4 C          -1.2514    0.6034    0.0004 C.ar    1  LIG1       -0.0053
      5 S          -2.8002   -0.1522    0.0009 S.2     1  LIG1       -0.1001
      6 H          -2.7173   -2.6272    0.0002 H       1  LIG1        0.0730
      7 H          -1.1591    1.6794    0.0006 H       1  LIG1        0.0707
      8 O           0.0734   -2.7709   -0.0010 O.3     1  LIG1       -0.5050
      9 H           0.9929   -2.4616   -0.0013 H       1  LIG1        0.2922
     10 C           1.1630   -0.0534   -0.0008 C.1     1  LIG1       -0.0655
     11 C           2.3678    0.0798   -0.0012 C.1     1  LIG1       -0.1138
     12 H           3.4216    0.2380   -0.0015 H       1  LIG1        0.1232
@<TRIPOS>BOND
     1    12    11    1
     2     9     8    1
     3    11    10    3
     4     8     2    1
     5    10     3    1
     6     2     3   ar
     7     2     1   ar
     8     3     4   ar
     9     1     6    1
    10     1     5   ar
    11     4     7    1
    12     4     5   ar
