@<TRIPOS>MOLECULE
mol_data/opt/b3lyp/geoms/mol2/5fe5fe-5fe.out
 32 34 0 0 0
SMALL
GASTEIGER

@<TRIPOS>ATOM
      1 C          -1.9334   -1.7287    1.1567 C.ar    1  LIG1        0.0190
      2 C          -0.7823   -1.8524    0.4332 C.ar    1  LIG1        0.1398
      3 C          -0.2251   -0.5849    0.0194 C.ar    1  LIG1        0.0814
      4 C          -0.9764    0.4972    0.4606 C.ar    1  LIG1        0.0484
      5 S          -2.3566   -0.0589    1.3808 S.2     1  LIG1       -0.0910
      6 H          -2.5468   -2.5196    1.5604 H       1  LIG1        0.0731
      7 O          -0.2211   -3.0445    0.1103 O.3     1  LIG1       -0.5050
      8 H           0.5683   -2.8628   -0.4250 H       1  LIG1        0.2922
      9 C           0.9238   -0.5586   -0.8109 C.1     1  LIG1       -0.0648
     10 C           1.8944   -0.6685   -1.5294 C.1     1  LIG1       -0.1138
     11 H           2.7507   -0.7104   -2.1619 H       1  LIG1        0.1232
     12 C          -0.7452    1.9115    0.2563 C.ar    1  LIG1        0.0704
     13 C           0.4341    2.6196    0.3441 C.ar    1  LIG1        0.1481
     14 C           0.2958    4.0276    0.0717 C.ar    1  LIG1        0.0820
     15 C          -1.0155    4.3977   -0.1973 C.ar    1  LIG1        0.0490
     16 S          -2.0686    3.0061   -0.1334 S.2     1  LIG1       -0.0820
     17 O           1.6155    2.0524    0.6724 O.3     1  LIG1       -0.5044
     18 H           2.2936    2.7478    0.6593 H       1  LIG1        0.2922
     19 C           1.4477    4.8548    0.0535 C.1     1  LIG1       -0.0648
     20 C           2.5022    5.4529    0.0505 C.1     1  LIG1       -0.1138
     21 H           3.4023    6.0230    0.0393 H       1  LIG1        0.1232
     22 C          -1.5451    5.7104   -0.5010 C.ar    1  LIG1        0.0698
     23 C          -1.2677    6.9178    0.1059 C.ar    1  LIG1        0.1474
     24 C          -2.0073    8.0260   -0.4488 C.ar    1  LIG1        0.0737
     25 C          -2.8478    7.6317   -1.4650 C.ar    1  LIG1       -0.0047
     26 S          -2.7433    5.9427   -1.7736 S.2     1  LIG1       -0.0911
     27 H          -3.5121    8.2584   -2.0420 H       1  LIG1        0.0707
     28 O          -0.4178    7.0481    1.1479 O.3     1  LIG1       -0.5044
     29 H          -0.4067    7.9819    1.4130 H       1  LIG1        0.2922
     30 C          -1.8479    9.3409    0.0642 C.1     1  LIG1       -0.0655
     31 C          -1.6504   10.4273    0.5637 C.1     1  LIG1       -0.1138
     32 H          -1.5036   11.3984    0.9777 H       1  LIG1        0.1232
@<TRIPOS>BOND
     1    11    10    1
     2    27    25    1
     3    26    25   ar
     4    26    22   ar
     5    10     9    3
     6    25    24   ar
     7     9     3    1
     8    22    15    1
     9    22    23   ar
    10    24    30    1
    11    24    23   ar
    12     8     7    1
    13    15    16   ar
    14    15    14   ar
    15    16    12   ar
    16     3     2   ar
    17     3     4   ar
    18    21    20    1
    19    20    19    3
    20    19    14    1
    21    30    31    3
    22    14    13   ar
    23    23    28    1
    24     7     2    1
    25    12    13   ar
    26    12     4    1
    27    13    17    1
    28     2     1   ar
    29     4     5   ar
    30    31    32    1
    31    18    17    1
    32    28    29    1
    33     1     5   ar
    34     1     6    1
