@<TRIPOS>MOLECULE
mol_data/opt/b3lyp/geoms/mol2/5fe5fe-5fe5fe-.out
 42 45 0 0 0
SMALL
GASTEIGER

@<TRIPOS>ATOM
      1 C          -2.4165   -1.5662    0.0141 C.ar    1  LIG1        0.0190
      2 C          -1.0761   -1.8099    0.0045 C.ar    1  LIG1        0.1398
      3 C          -0.2595   -0.6108   -0.0001 C.ar    1  LIG1        0.0814
      4 C          -1.0262    0.5583    0.0065 C.ar    1  LIG1        0.0484
      5 S          -2.7338    0.1393    0.0183 S.2     1  LIG1       -0.0910
      6 H          -3.2223   -2.2837    0.0188 H       1  LIG1        0.0731
      7 O          -0.5435   -3.0552   -0.0008 O.3     1  LIG1       -0.5050
      8 H           0.4245   -2.9553   -0.0078 H       1  LIG1        0.2922
      9 C           1.1445   -0.8126   -0.0120 C.1     1  LIG1       -0.0648
     10 C           2.2828   -1.2357   -0.0228 C.1     1  LIG1       -0.1138
     11 H           3.3134   -1.5052   -0.0330 H       1  LIG1        0.1232
     12 C          -0.6735    1.9602    0.0054 C.ar    1  LIG1        0.0704
     13 C           0.5494    2.6034    0.0042 C.ar    1  LIG1        0.1481
     14 C           0.4837    4.0461    0.0036 C.ar    1  LIG1        0.0820
     15 C          -0.8267    4.5304    0.0046 C.ar    1  LIG1        0.0491
     16 S          -1.9478    3.1816    0.0060 S.2     1  LIG1       -0.0820
     17 O           1.7279    1.9533    0.0045 O.3     1  LIG1       -0.5044
     18 H           2.4342    2.6245    0.0037 H       1  LIG1        0.2922
     19 C           1.7299    4.7251    0.0016 C.1     1  LIG1       -0.0648
     20 C           2.8936    5.0713   -0.0002 C.1     1  LIG1       -0.1138
     21 H           3.8807    5.4725   -0.0015 H       1  LIG1        0.1232
     22 C          -1.3785    5.8622    0.0047 C.ar    1  LIG1        0.0704
     23 C          -0.7791    7.1090    0.0068 C.ar    1  LIG1        0.1481
     24 C          -1.6933    8.2263    0.0061 C.ar    1  LIG1        0.0820
     25 C          -3.0326    7.8328    0.0035 C.ar    1  LIG1        0.0490
     26 S          -3.1299    6.0830    0.0019 S.2     1  LIG1       -0.0820
     27 O           0.5530    7.2899    0.0098 O.3     1  LIG1       -0.5044
     28 H           0.7210    8.2499    0.0109 H       1  LIG1        0.2922
     29 C          -1.0985    9.5153    0.0079 C.1     1  LIG1       -0.0648
     30 C          -0.3725   10.4882    0.0096 C.1     1  LIG1       -0.1138
     31 H           0.1809   11.3989    0.0105 H       1  LIG1        0.1232
     32 C          -4.2722    8.5771    0.0020 C.ar    1  LIG1        0.0698
     33 C          -4.5257    9.9398    0.0044 C.ar    1  LIG1        0.1474
     34 C          -5.9282   10.2756    0.0016 C.ar    1  LIG1        0.0737
     35 C          -6.7312    9.1603   -0.0030 C.ar    1  LIG1       -0.0047
     36 S          -5.8152    7.7070   -0.0040 S.2     1  LIG1       -0.0911
     37 H          -7.8108    9.1290   -0.0058 H       1  LIG1        0.0707
     38 O          -3.5670   10.8867    0.0093 O.3     1  LIG1       -0.5044
     39 H          -4.0011   11.7560    0.0102 H       1  LIG1        0.2922
     40 C          -6.3497   11.6320    0.0036 C.1     1  LIG1       -0.0655
     41 C          -6.6168   12.8140    0.0058 C.1     1  LIG1       -0.1138
     42 H          -6.8922   13.8438    0.0088 H       1  LIG1        0.1232
@<TRIPOS>BOND
     1    11    10    1
     2    10     9    3
     3     9     3    1
     4     8     7    1
     5    37    35    1
     6    36    35   ar
     7    36    32   ar
     8    35    34   ar
     9    21    20    1
    10     7     2    1
    11    20    19    3
    12     3     2   ar
    13     3     4   ar
    14    34    40    1
    15    34    33   ar
    16    19    14    1
    17    26    25   ar
    18    26    22   ar
    19    32    25    1
    20    32    33   ar
    21    25    24   ar
    22    14    13   ar
    23    14    15   ar
    24    40    41    3
    25    18    17    1
    26    13    17    1
    27    13    12   ar
    28    33    38    1
    29     2     1   ar
    30    15    22    1
    31    15    16   ar
    32    22    23   ar
    33    12    16   ar
    34    12     4    1
    35    41    42    1
    36    24    23   ar
    37    24    29    1
    38     4     5   ar
    39    23    27    1
    40    29    30    3
    41    38    39    1
    42    30    31    1
    43    27    28    1
    44     1     5   ar
    45     1     6    1
