@<TRIPOS>MOLECULE
mol_data/opt/b3lyp/geoms/mol2/5fe5fe5fe.out
 32 34 0 0 0
SMALL
GASTEIGER

@<TRIPOS>ATOM
      1 C          -1.9681   -1.8898    0.3711 C.ar    1  LIG1        0.0190
      2 C          -0.7163   -1.8636   -0.1727 C.ar    1  LIG1        0.1398
      3 C          -0.1617   -0.5330   -0.2746 C.ar    1  LIG1        0.0814
      4 C          -1.0201    0.4413    0.2193 C.ar    1  LIG1        0.0484
      5 S          -2.4979   -0.2924    0.8030 S.2     1  LIG1       -0.0910
      6 H          -2.5988   -2.7503    0.5340 H       1  LIG1        0.0731
      7 O          -0.0580   -2.9704   -0.5991 O.3     1  LIG1       -0.5050
      8 H           0.7940   -2.6830   -0.9657 H       1  LIG1        0.2922
      9 C           1.0972   -0.3408   -0.8977 C.1     1  LIG1       -0.0648
     10 C           2.1695   -0.3050   -1.4627 C.1     1  LIG1       -0.1138
     11 H           3.1128   -0.2187   -1.9503 H       1  LIG1        0.1232
     12 C          -0.8257    1.8729    0.2977 C.ar    1  LIG1        0.0704
     13 C           0.2927    2.5780    0.6890 C.ar    1  LIG1        0.1481
     14 C           0.1131    4.0074    0.6967 C.ar    1  LIG1        0.0820
     15 C          -1.1623    4.3920    0.3031 C.ar    1  LIG1        0.0490
     16 S          -2.1255    2.9921   -0.0991 S.2     1  LIG1       -0.0820
     17 O           1.4372    1.9850    1.0928 O.3     1  LIG1       -0.5044
     18 H           2.0566    2.6841    1.3601 H       1  LIG1        0.2922
     19 C           1.1577    4.8412    1.1710 C.1     1  LIG1       -0.0648
     20 C           2.1133    5.4434    1.6113 C.1     1  LIG1       -0.1138
     21 H           2.9267    6.0179    1.9904 H       1  LIG1        0.1232
     22 C          -1.7173    5.7235    0.1910 C.ar    1  LIG1        0.0698
     23 C          -1.1406    6.8627   -0.3323 C.ar    1  LIG1        0.1474
     24 C          -2.0080    8.0154   -0.3001 C.ar    1  LIG1        0.0737
     25 C          -3.2400    7.7226    0.2393 C.ar    1  LIG1       -0.0047
     26 S          -3.3600    6.0770    0.7259 S.2     1  LIG1       -0.0911
     27 H          -4.0706    8.4001    0.3746 H       1  LIG1        0.0707
     28 O           0.1015    6.8904   -0.8632 O.3     1  LIG1       -0.5044
     29 H           0.2727    7.7911   -1.1823 H       1  LIG1        0.2922
     30 C          -1.5754    9.2702   -0.8062 C.1     1  LIG1       -0.0655
     31 C          -1.1249   10.2996   -1.2600 C.1     1  LIG1       -0.1138
     32 H          -0.7639   11.2231   -1.6510 H       1  LIG1        0.1232
@<TRIPOS>BOND
     1    11    10    1
     2    32    31    1
     3    10     9    3
     4    31    30    3
     5    29    28    1
     6     8     7    1
     7     9     3    1
     8    28    23    1
     9    30    24    1
    10     7     2    1
    11    23    24   ar
    12    23    22   ar
    13    24    25   ar
    14     3     2   ar
    15     3     4   ar
    16     2     1   ar
    17    16    12   ar
    18    16    15   ar
    19    22    15    1
    20    22    26   ar
    21     4    12    1
    22     4     5   ar
    23    25    27    1
    24    25    26   ar
    25    12    13   ar
    26    15    14   ar
    27     1     6    1
    28     1     5   ar
    29    13    14   ar
    30    13    17    1
    31    14    19    1
    32    17    18    1
    33    19    20    3
    34    20    21    1
