@<TRIPOS>MOLECULE
mol_data/opt/b3lyp/geoms/mol2/5fe5fe-5fe-5fe.out
 42 45 0 0 0
SMALL
GASTEIGER

@<TRIPOS>ATOM
      1 C          -2.1267   -1.8433    0.0825 C.ar    1  LIG1        0.0190
      2 C          -0.8433   -1.8468    0.5473 C.ar    1  LIG1        0.1398
      3 C          -0.2206   -0.5428    0.5264 C.ar    1  LIG1        0.0814
      4 C          -1.0612    0.4412    0.0206 C.ar    1  LIG1        0.0484
      5 S          -2.6063   -0.2513   -0.4230 S.2     1  LIG1       -0.0910
      6 H          -2.8068   -2.6786    0.0163 H       1  LIG1        0.0731
      7 O          -0.2127   -2.9563    1.0076 O.3     1  LIG1       -0.5050
      8 H           0.6735   -2.6897    1.3017 H       1  LIG1        0.2922
      9 C           1.0825   -0.3771    1.0594 C.1     1  LIG1       -0.0648
     10 C           2.1885   -0.3622    1.5565 C.1     1  LIG1       -0.1138
     11 H           3.1635   -0.2942    1.9802 H       1  LIG1        0.1232
     12 C          -0.8039    1.8522   -0.1668 C.ar    1  LIG1        0.0704
     13 C           0.3216    2.4712   -0.6680 C.ar    1  LIG1        0.1481
     14 C           0.2106    3.9039   -0.7669 C.ar    1  LIG1        0.0820
     15 C          -1.0206    4.3805   -0.3320 C.ar    1  LIG1        0.0491
     16 S          -2.0238    3.0610    0.2213 S.2     1  LIG1       -0.0820
     17 O           1.4106    1.7944   -1.0933 O.3     1  LIG1       -0.5044
     18 H           2.0428    2.4419   -1.4472 H       1  LIG1        0.2922
     19 C           1.2633    4.6439   -1.3631 C.1     1  LIG1       -0.0648
     20 C           2.2197    5.1554   -1.9050 C.1     1  LIG1       -0.1138
     21 H           3.0354    5.6548   -2.3747 H       1  LIG1        0.1232
     22 C          -1.5073    5.7403   -0.2841 C.ar    1  LIG1        0.0704
     23 C          -0.8434    6.8888    0.0952 C.ar    1  LIG1        0.1481
     24 C          -1.6465    8.0820    0.0235 C.ar    1  LIG1        0.0820
     25 C          -2.9498    7.8302   -0.3861 C.ar    1  LIG1        0.0490
     26 S          -3.1753    6.1270   -0.6992 S.2     1  LIG1       -0.0820
     27 O           0.4394    6.8974    0.5157 O.3     1  LIG1       -0.5044
     28 H           0.6802    7.8162    0.7199 H       1  LIG1        0.2922
     29 C          -1.0576    9.3401    0.3095 C.1     1  LIG1       -0.0648
     30 C          -0.4393   10.3520    0.5610 C.1     1  LIG1       -0.1138
     31 H           0.0593   11.2689    0.7761 H       1  LIG1        0.1232
     32 C          -4.0416    8.7629   -0.5661 C.ar    1  LIG1        0.0698
     33 C          -4.4315    9.8067    0.2479 C.ar    1  LIG1        0.1474
     34 C          -5.5916   10.5144   -0.2375 C.ar    1  LIG1        0.0737
     35 C          -6.0699    9.9810   -1.4129 C.ar    1  LIG1       -0.0047
     36 S          -5.1269    8.6469   -1.9509 S.2     1  LIG1       -0.0911
     37 H          -6.9246   10.3175   -1.9814 H       1  LIG1        0.0707
     38 O          -3.8152   10.1126    1.4100 O.3     1  LIG1       -0.5044
     39 H          -4.2825   10.8630    1.8114 H       1  LIG1        0.2922
     40 C          -6.1325   11.6126    0.4828 C.1     1  LIG1       -0.0655
     41 C          -6.5267   12.5359    1.1615 C.1     1  LIG1       -0.1138
     42 H          -6.9034   13.3537    1.7320 H       1  LIG1        0.1232
@<TRIPOS>BOND
     1    21    20    1
     2    37    35    1
     3    36    35   ar
     4    36    32   ar
     5    20    19    3
     6    18    17    1
     7    35    34   ar
     8    19    14    1
     9    17    13    1
    10    14    13   ar
    11    14    15   ar
    12    26    25   ar
    13    26    22   ar
    14    13    12   ar
    15    32    25    1
    16    32    33   ar
    17     5     4   ar
    18     5     1   ar
    19    25    24   ar
    20    15    22    1
    21    15    16   ar
    22    22    23   ar
    23    34    33   ar
    24    34    40    1
    25    12     4    1
    26    12    16   ar
    27     6     1    1
    28     4     3   ar
    29    24    23   ar
    30    24    29    1
    31     1     2   ar
    32    23    27    1
    33    33    38    1
    34    29    30    3
    35    40    41    3
    36    27    28    1
    37     3     2   ar
    38     3     9    1
    39     2     7    1
    40    30    31    1
    41     7     8    1
    42     9    10    3
    43    41    42    1
    44    38    39    1
    45    10    11    1
