@<TRIPOS>MOLECULE
mol_data/opt/b3lyp/geoms/mol2/5fe5fe5fe-5fe.out
 42 45 0 0 0
SMALL
GASTEIGER

@<TRIPOS>ATOM
      1 C          -1.6421   -1.6328    1.8383 C.ar    1  LIG1        0.0190
      2 C          -0.8102   -1.8185    0.7719 C.ar    1  LIG1        0.1398
      3 C          -0.3507   -0.5830    0.1798 C.ar    1  LIG1        0.0814
      4 C          -0.8452    0.5384    0.8342 C.ar    1  LIG1        0.0484
      5 S          -1.8662    0.0575    2.1714 S.2     1  LIG1       -0.0910
      6 H          -2.1301   -2.3892    2.4337 H       1  LIG1        0.0731
      7 O          -0.4614   -3.0393    0.2937 O.3     1  LIG1       -0.5050
      8 H           0.1100   -2.9000   -0.4790 H       1  LIG1        0.2922
      9 C           0.4514   -0.6188   -0.9888 C.1     1  LIG1       -0.0648
     10 C           1.1151   -0.7819   -1.9905 C.1     1  LIG1       -0.1138
     11 H           1.7045   -0.8697   -2.8736 H       1  LIG1        0.1232
     12 C          -0.6135    1.9380    0.5474 C.ar    1  LIG1        0.0704
     13 C           0.5661    2.5737    0.2241 C.ar    1  LIG1        0.1481
     14 C           0.4287    3.9898   -0.0020 C.ar    1  LIG1        0.0820
     15 C          -0.8725    4.4413    0.1837 C.ar    1  LIG1        0.0491
     16 S          -1.9230    3.1135    0.6159 S.2     1  LIG1       -0.0820
     17 O           1.7527    1.9334    0.1404 O.3     1  LIG1       -0.5044
     18 H           2.4261    2.5871   -0.1110 H       1  LIG1        0.2922
     19 C           1.5546    4.7414   -0.4246 C.1     1  LIG1       -0.0648
     20 C           2.5819    5.2663   -0.7974 C.1     1  LIG1       -0.1138
     21 H           3.4584    5.7759   -1.1248 H       1  LIG1        0.1232
     22 C          -1.3977    5.7828    0.0600 C.ar    1  LIG1        0.0704
     23 C          -0.8515    6.9727    0.4941 C.ar    1  LIG1        0.1481
     24 C          -1.6588    8.1298    0.2042 C.ar    1  LIG1        0.0820
     25 C          -2.8510    7.8087   -0.4319 C.ar    1  LIG1        0.0490
     26 S          -2.9641    6.0850   -0.6876 S.2     1  LIG1       -0.0820
     27 O           0.3252    7.0508    1.1512 O.3     1  LIG1       -0.5044
     28 H           0.4969    7.9871    1.3454 H       1  LIG1        0.2922
     29 C          -1.1724    9.4219    0.5286 C.1     1  LIG1       -0.0648
     30 C          -0.6439   10.4681    0.8380 C.1     1  LIG1       -0.1138
     31 H          -0.2229   11.4128    1.0943 H       1  LIG1        0.1232
     32 C          -3.9137    8.6893   -0.8682 C.ar    1  LIG1        0.0698
     33 C          -4.4863    9.7519   -0.1998 C.ar    1  LIG1        0.1474
     34 C          -5.5494   10.3916   -0.9367 C.ar    1  LIG1        0.0737
     35 C          -5.7722    9.7886   -2.1537 C.ar    1  LIG1       -0.0047
     36 S          -4.7033    8.4694   -2.4294 S.2     1  LIG1       -0.0911
     37 H          -6.5088   10.0659   -2.8937 H       1  LIG1        0.0707
     38 O          -4.1191   10.1332    1.0428 O.3     1  LIG1       -0.5044
     39 H          -4.6795   10.8808    1.3066 H       1  LIG1        0.2922
     40 C          -6.2530   11.4985   -0.3914 C.1     1  LIG1       -0.0655
     41 C          -6.7992   12.4346    0.1508 C.1     1  LIG1       -0.1138
     42 H          -7.3042   13.2609    0.5960 H       1  LIG1        0.1232
@<TRIPOS>BOND
     1    37    35    1
     2    11    10    1
     3    36    35   ar
     4    36    32   ar
     5    35    34   ar
     6    10     9    3
     7    21    20    1
     8     9     3    1
     9    34    40    1
    10    34    33   ar
    11    32    25    1
    12    32    33   ar
    13    20    19    3
    14    26    25   ar
    15    26    22   ar
    16     8     7    1
    17    25    24   ar
    18    19    14    1
    19    40    41    3
    20    33    38    1
    21    18    17    1
    22    14    15   ar
    23    14    13   ar
    24    22    15    1
    25    22    23   ar
    26    17    13    1
    27    41    42    1
    28     3     2   ar
    29     3     4   ar
    30    15    16   ar
    31    24    23   ar
    32    24    29    1
    33    13    12   ar
    34     7     2    1
    35    23    27    1
    36    29    30    3
    37    12    16   ar
    38    12     4    1
    39     2     1   ar
    40     4     5   ar
    41    30    31    1
    42    38    39    1
    43    27    28    1
    44     1     5   ar
    45     1     6    1
