@<TRIPOS>MOLECULE
mol_data/opt/b3lyp/geoms/mol2/5fe5fe-.out
 22 23 0 0 0
SMALL
GASTEIGER

@<TRIPOS>ATOM
      1 C          -2.0358   -1.7528    0.6135 C.ar    1  LIG1        0.0190
      2 C          -0.7214   -1.8054    0.2478 C.ar    1  LIG1        0.1398
      3 C          -0.1639   -0.5118   -0.0751 C.ar    1  LIG1        0.0814
      4 C          -1.0855    0.5165    0.0693 C.ar    1  LIG1        0.0484
      5 S          -2.6245   -0.1184    0.6037 S.2     1  LIG1       -0.0910
      6 H          -2.6793   -2.5769    0.8811 H       1  LIG1        0.0731
      7 O          -0.0074   -2.9561    0.1717 O.3     1  LIG1       -0.5050
      8 H           0.8860   -2.7295   -0.1334 H       1  LIG1        0.2922
      9 C           1.1695   -0.4148   -0.5477 C.1     1  LIG1       -0.0648
     10 C           2.3110   -0.4608   -0.9535 C.1     1  LIG1       -0.1138
     11 H           3.3137   -0.4488   -1.3136 H       1  LIG1        0.1232
     12 C          -0.9052    1.9372   -0.1524 C.ar    1  LIG1        0.0698
     13 C           0.1379    2.7488    0.2402 C.ar    1  LIG1        0.1474
     14 C          -0.0278    4.1298   -0.1462 C.ar    1  LIG1        0.0737
     15 C          -1.2092    4.3419   -0.8199 C.ar    1  LIG1       -0.0047
     16 S          -2.1141    2.8912   -1.0102 S.2     1  LIG1       -0.0911
     17 H          -1.5779    5.2791   -1.2106 H       1  LIG1        0.0707
     18 O           1.1976    2.3047    0.9522 O.3     1  LIG1       -0.5044
     19 H           1.7855    3.0587    1.1192 H       1  LIG1        0.2922
     20 C           0.9502    5.1050    0.1857 C.1     1  LIG1       -0.0655
     21 C           1.8331    5.8690    0.5105 C.1     1  LIG1       -0.1138
     22 H           2.5888    6.5707    0.7797 H       1  LIG1        0.1232
@<TRIPOS>BOND
     1    11    10    1
     2    17    15    1
     3    16    15   ar
     4    16    12   ar
     5    10     9    3
     6    15    14   ar
     7     9     3    1
     8    12     4    1
     9    12    13   ar
    10    14    20    1
    11    14    13   ar
    12     8     7    1
    13     3     4   ar
    14     3     2   ar
    15     4     5   ar
    16     7     2    1
    17    20    21    3
    18    13    18    1
    19     2     1   ar
    20    21    22    1
    21     5     1   ar
    22     1     6    1
    23    18    19    1
