@<TRIPOS>MOLECULE
mol_data/opt/b3lyp/geoms/mol2/5fe5fe-5fe-.out
 32 34 0 0 0
SMALL
GASTEIGER

@<TRIPOS>ATOM
      1 C          -1.9653   -1.8899   -0.3804 C.ar    1  LIG1        0.0190
      2 C          -0.7242   -1.8629    0.1875 C.ar    1  LIG1        0.1398
      3 C          -0.1708   -0.5324    0.2963 C.ar    1  LIG1        0.0814
      4 C          -1.0187    0.4411   -0.2171 C.ar    1  LIG1        0.0484
      5 S          -2.4854   -0.2934   -0.8274 S.2     1  LIG1       -0.0910
      6 H          -2.5933   -2.7504   -0.5531 H       1  LIG1        0.0731
      7 O          -0.0752   -2.9689    0.6299 O.3     1  LIG1       -0.5050
      8 H           0.7698   -2.6810    1.0120 H       1  LIG1        0.2922
      9 C           1.0758   -0.3391    0.9432 C.1     1  LIG1       -0.0648
     10 C           2.1370   -0.3023    1.5288 C.1     1  LIG1       -0.1138
     11 H           3.0707   -0.2152    2.0343 H       1  LIG1        0.1232
     12 C          -0.8216    1.8723   -0.2961 C.ar    1  LIG1        0.0704
     13 C           0.3048    2.5750   -0.6679 C.ar    1  LIG1        0.1481
     14 C           0.1267    4.0046   -0.6839 C.ar    1  LIG1        0.0820
     15 C          -1.1558    4.3915   -0.3166 C.ar    1  LIG1        0.0490
     16 S          -2.1279    2.9938    0.0715 S.2     1  LIG1       -0.0820
     17 O           1.4565    1.9798   -1.0473 O.3     1  LIG1       -0.5044
     18 H           2.0814    2.6774   -1.3053 H       1  LIG1        0.2922
     19 C           1.1811    4.8359   -1.1407 C.1     1  LIG1       -0.0648
     20 C           2.1456    5.4358   -1.5644 C.1     1  LIG1       -0.1138
     21 H           2.9666    6.0084   -1.9297 H       1  LIG1        0.1232
     22 C          -1.7116    5.7239   -0.2197 C.ar    1  LIG1        0.0698
     23 C          -1.1439    6.8644    0.3107 C.ar    1  LIG1        0.1474
     24 C          -2.0093    8.0179    0.2577 C.ar    1  LIG1        0.0737
     25 C          -3.2309    7.7244   -0.3044 C.ar    1  LIG1       -0.0047
     26 S          -3.3432    6.0773   -0.7877 S.2     1  LIG1       -0.0911
     27 H          -4.0580    8.4022   -0.4580 H       1  LIG1        0.0707
     28 O           0.0877    6.8927    0.8653 O.3     1  LIG1       -0.5044
     29 H           0.2536    7.7942    1.1849 H       1  LIG1        0.2922
     30 C          -1.5851    9.2739    0.7678 C.1     1  LIG1       -0.0655
     31 C          -1.1425   10.3044    1.2268 C.1     1  LIG1       -0.1138
     32 H          -0.7880   11.2289    1.6214 H       1  LIG1        0.1232
@<TRIPOS>BOND
     1    21    20    1
     2    20    19    3
     3    18    17    1
     4    19    14    1
     5    17    13    1
     6     5     1   ar
     7     5     4   ar
     8    26    25   ar
     9    26    22   ar
    10    14    13   ar
    11    14    15   ar
    12    13    12   ar
    13     6     1    1
    14    27    25    1
    15     1     2   ar
    16    15    22    1
    17    15    16   ar
    18    25    24   ar
    19    12     4    1
    20    12    16   ar
    21    22    23   ar
    22     4     3   ar
    23     2     3   ar
    24     2     7    1
    25    24    23   ar
    26    24    30    1
    27     3     9    1
    28    23    28    1
    29     7     8    1
    30    30    31    3
    31    28    29    1
    32     9    10    3
    33    31    32    1
    34    10    11    1
