@<TRIPOS>MOLECULE
mol_data/opt/b3lyp/geoms/mol2/5fe5fe-5fe-5fe-.out
 42 45 0 0 0
SMALL
GASTEIGER

@<TRIPOS>ATOM
      1 C          -2.0187   -1.9059   -0.2364 C.ar    1  LIG1        0.0190
      2 C          -0.7162   -1.9135    0.1719 C.ar    1  LIG1        0.1398
      3 C          -0.1252   -0.5961    0.2336 C.ar    1  LIG1        0.0814
      4 C          -1.0096    0.4037   -0.1523 C.ar    1  LIG1        0.0484
      5 S          -2.5565   -0.2911   -0.5869 S.2     1  LIG1       -0.0910
      6 H          -2.6816   -2.7508   -0.3435 H       1  LIG1        0.0731
      7 O          -0.0404   -3.0400    0.5109 O.3     1  LIG1       -0.5050
      8 H           0.8509   -2.7747    0.7905 H       1  LIG1        0.2922
      9 C           1.1957   -0.4408    0.7245 C.1     1  LIG1       -0.0648
     10 C           2.3214   -0.4386    1.1752 C.1     1  LIG1       -0.1138
     11 H           3.3121   -0.3806    1.5628 H       1  LIG1        0.1232
     12 C          -0.7948    1.8319   -0.2282 C.ar    1  LIG1        0.0704
     13 C           0.2943    2.5232   -0.7150 C.ar    1  LIG1        0.1481
     14 C           0.1449    3.9555   -0.6830 C.ar    1  LIG1        0.0820
     15 C          -1.0791    4.3581   -0.1615 C.ar    1  LIG1        0.0491
     16 S          -2.0286    2.9681    0.3088 S.2     1  LIG1       -0.0820
     17 O           1.3819    1.9165   -1.2384 O.3     1  LIG1       -0.5044
     18 H           1.9838    2.6096   -1.5568 H       1  LIG1        0.2922
     19 C           1.1551    4.7743   -1.2486 C.1     1  LIG1       -0.0648
     20 C           2.0763    5.3603   -1.7759 C.1     1  LIG1       -0.1138
     21 H           2.8600    5.9236   -2.2273 H       1  LIG1        0.1232
     22 C          -1.5953    5.6938    0.0272 C.ar    1  LIG1        0.0704
     23 C          -0.9467    6.8211    0.4888 C.ar    1  LIG1        0.1481
     24 C          -1.7952    7.9781    0.6107 C.ar    1  LIG1        0.0820
     25 C          -3.1086    7.7249    0.2350 C.ar    1  LIG1        0.0490
     26 S          -3.2865    6.0691   -0.2908 S.2     1  LIG1       -0.0820
     27 O           0.3511    6.8275    0.8603 O.3     1  LIG1       -0.5044
     28 H           0.5600    7.7145    1.1978 H       1  LIG1        0.2922
     29 C          -1.2708    9.1734    1.1655 C.1     1  LIG1       -0.0648
     30 C          -0.7128   10.1255    1.6672 C.1     1  LIG1       -0.1138
     31 H          -0.2679   10.9900    2.1035 H       1  LIG1        0.1232
     32 C          -4.2413    8.6243    0.2218 C.ar    1  LIG1        0.0698
     33 C          -4.3007    9.9385   -0.1959 C.ar    1  LIG1        0.1474
     34 C          -5.6177   10.5182   -0.0902 C.ar    1  LIG1        0.0737
     35 C          -6.5413    9.6214    0.3968 C.ar    1  LIG1       -0.0047
     36 S          -5.8380    8.0913    0.7474 S.2     1  LIG1       -0.0911
     37 H          -7.5933    9.7970    0.5687 H       1  LIG1        0.0707
     38 O          -3.2398   10.6079   -0.6965 O.3     1  LIG1       -0.5044
     39 H          -3.5341   11.5001   -0.9410 H       1  LIG1        0.2922
     40 C          -5.8585   11.8616   -0.4839 C.1     1  LIG1       -0.0655
     41 C          -5.9733   13.0131   -0.8436 C.1     1  LIG1       -0.1138
     42 H          -6.1136   14.0241   -1.1507 H       1  LIG1        0.1232
@<TRIPOS>BOND
     1    21    20    1
     2    20    19    3
     3    18    17    1
     4    19    14    1
     5    17    13    1
     6    42    41    1
     7    39    38    1
     8    41    40    3
     9    13    14   ar
    10    13    12   ar
    11    38    33    1
    12    14    15   ar
    13     5     1   ar
    14     5     4   ar
    15    40    34    1
    16     6     1    1
    17    26    22   ar
    18    26    25   ar
    19     1     2   ar
    20    12     4    1
    21    12    16   ar
    22    33    34   ar
    23    33    32   ar
    24    15    22    1
    25    15    16   ar
    26     4     3   ar
    27    34    35   ar
    28    22    23   ar
    29     2     3   ar
    30     2     7    1
    31    32    25    1
    32    32    36   ar
    33     3     9    1
    34    25    24   ar
    35    35    37    1
    36    35    36   ar
    37    23    24   ar
    38    23    27    1
    39     7     8    1
    40    24    29    1
    41     9    10    3
    42    27    28    1
    43    29    30    3
    44    10    11    1
    45    30    31    1
