@<TRIPOS>MOLECULE
mol_data/opt/b3lyp/geoms/mol2/5fe5fe-5fe5fe.out
 42 45 0 0 0
SMALL
GASTEIGER

@<TRIPOS>ATOM
      1 C          -2.0355   -1.9072    0.1823 C.ar    1  LIG1        0.0190
      2 C          -0.7254   -1.9140   -0.2010 C.ar    1  LIG1        0.1398
      3 C          -0.1314   -0.5972   -0.2418 C.ar    1  LIG1        0.0814
      4 C          -1.0215    0.4012    0.1346 C.ar    1  LIG1        0.0484
      5 S          -2.5775   -0.2941    0.5345 S.2     1  LIG1       -0.0910
      6 H          -2.7015   -2.7518    0.2708 H       1  LIG1        0.0731
      7 O          -0.0449   -3.0391   -0.5352 O.3     1  LIG1       -0.5050
      8 H           0.8516   -2.7732   -0.7968 H       1  LIG1        0.2922
      9 C           1.1987   -0.4403   -0.7066 C.1     1  LIG1       -0.0648
     10 C           2.3329   -0.4365   -1.1357 C.1     1  LIG1       -0.1138
     11 H           3.3307   -0.3772   -1.5042 H       1  LIG1        0.1232
     12 C          -0.8060    1.8285    0.2249 C.ar    1  LIG1        0.0704
     13 C           0.2748    2.5143    0.7373 C.ar    1  LIG1        0.1481
     14 C           0.1284    3.9471    0.7126 C.ar    1  LIG1        0.0820
     15 C          -1.0847    4.3556    0.1706 C.ar    1  LIG1        0.0491
     16 S          -2.0274    2.9706   -0.3275 S.2     1  LIG1       -0.0820
     17 O           1.3510    1.9020    1.2773 O.3     1  LIG1       -0.5044
     18 H           1.9486    2.5917    1.6107 H       1  LIG1        0.2922
     19 C           1.1290    4.7602    1.3030 C.1     1  LIG1       -0.0648
     20 C           2.0408    5.3411    1.8517 C.1     1  LIG1       -0.1138
     21 H           2.8168    5.9000    2.3216 H       1  LIG1        0.1232
     22 C          -1.5947    5.6935   -0.0185 C.ar    1  LIG1        0.0704
     23 C          -0.9353    6.8225   -0.4603 C.ar    1  LIG1        0.1481
     24 C          -1.7789    7.9823   -0.5899 C.ar    1  LIG1        0.0820
     25 C          -3.0996    7.7294   -0.2403 C.ar    1  LIG1        0.0490
     26 S          -3.2908    6.0705    0.2707 S.2     1  LIG1       -0.0820
     27 O           0.3691    6.8285   -0.8078 O.3     1  LIG1       -0.5044
     28 H           0.5862    7.7173   -1.1350 H       1  LIG1        0.2922
     29 C          -1.2417    9.1800   -1.1267 C.1     1  LIG1       -0.0648
     30 C          -0.6721   10.1341   -1.6115 C.1     1  LIG1       -0.1138
     31 H          -0.2175   11.0003   -2.0339 H       1  LIG1        0.1232
     32 C          -4.2304    8.6312   -0.2414 C.ar    1  LIG1        0.0698
     33 C          -4.2947    9.9429    0.1835 C.ar    1  LIG1        0.1474
     34 C          -5.6085   10.5260    0.0580 C.ar    1  LIG1        0.0737
     35 C          -6.5250    9.6341   -0.4512 C.ar    1  LIG1       -0.0047
     36 S          -5.8185    8.1049   -0.7989 S.2     1  LIG1       -0.0911
     37 H          -7.5734    9.8131   -0.6406 H       1  LIG1        0.0707
     38 O          -3.2417   10.6069    0.7073 O.3     1  LIG1       -0.5044
     39 H          -3.5386   11.4981    0.9523 H       1  LIG1        0.2922
     40 C          -5.8537   11.8673    0.4560 C.1     1  LIG1       -0.0655
     41 C          -5.9727   13.0167    0.8210 C.1     1  LIG1       -0.1138
     42 H          -6.1165   14.0259    1.1323 H       1  LIG1        0.1232
@<TRIPOS>BOND
     1    31    30    1
     2    30    29    3
     3    11    10    1
     4    10     9    3
     5    28    27    1
     6    29    24    1
     7    27    23    1
     8    36    35   ar
     9    36    32   ar
    10     8     7    1
    11     9     3    1
    12    37    35    1
    13    24    23   ar
    14    24    25   ar
    15     7     2    1
    16    23    22   ar
    17    35    34   ar
    18    16    15   ar
    19    16    12   ar
    20     3     2   ar
    21     3     4   ar
    22    32    25    1
    23    32    33   ar
    24    25    26   ar
    25     2     1   ar
    26    22    15    1
    27    22    26   ar
    28    34    33   ar
    29    34    40    1
    30     4    12    1
    31     4     5   ar
    32    15    14   ar
    33     1     6    1
    34     1     5   ar
    35    33    38    1
    36    12    13   ar
    37    40    41    3
    38    38    39    1
    39    14    13   ar
    40    14    19    1
    41    13    17    1
    42    41    42    1
    43    17    18    1
    44    19    20    3
    45    20    21    1
