@<TRIPOS>MOLECULE
mol_data/opt/b3lyp/geoms/mol2/5fe5fe5fe5fe.out
 42 45 0 0 0
SMALL
GASTEIGER

@<TRIPOS>ATOM
      1 C          -2.0077   -1.9041    0.2950 C.ar    1  LIG1        0.0190
      2 C          -0.7057   -1.9137   -0.1148 C.ar    1  LIG1        0.1398
      3 C          -0.1169   -0.5961   -0.1903 C.ar    1  LIG1        0.0814
      4 C          -1.0024    0.4061    0.1870 C.ar    1  LIG1        0.0484
      5 S          -2.5477   -0.2868    0.6304 S.2     1  LIG1       -0.0910
      6 H          -2.6691   -2.7490    0.4112 H       1  LIG1        0.0731
      7 O          -0.0286   -3.0424   -0.4437 O.3     1  LIG1       -0.5050
      8 H           0.8619   -2.7785   -0.7271 H       1  LIG1        0.2922
      9 C           1.2032   -0.4434   -0.6841 C.1     1  LIG1       -0.0648
     10 C           2.3285   -0.4437   -1.1359 C.1     1  LIG1       -0.1138
     11 H           3.3187   -0.3880   -1.5251 H       1  LIG1        0.1232
     12 C          -0.7899    1.8354    0.2484 C.ar    1  LIG1        0.0704
     13 C           0.2986    2.5332    0.7273 C.ar    1  LIG1        0.1481
     14 C           0.1470    3.9649    0.6809 C.ar    1  LIG1        0.0820
     15 C          -1.0781    4.3603    0.1563 C.ar    1  LIG1        0.0491
     16 S          -2.0258    2.9641   -0.2992 S.2     1  LIG1       -0.0820
     17 O           1.3874    1.9335    1.2561 O.3     1  LIG1       -0.5044
     18 H           1.9894    2.6307    1.5653 H       1  LIG1        0.2922
     19 C           1.1564    4.7910    1.2370 C.1     1  LIG1       -0.0648
     20 C           2.0771    5.3842    1.7571 C.1     1  LIG1       -0.1138
     21 H           2.8603    5.9534    2.2019 H       1  LIG1        0.1232
     22 C          -1.5963    5.6932   -0.0458 C.ar    1  LIG1        0.0704
     23 C          -0.9496    6.8163   -0.5201 C.ar    1  LIG1        0.1481
     24 C          -1.7997    7.9710   -0.6531 C.ar    1  LIG1        0.0820
     25 C          -3.1124    7.7201   -0.2733 C.ar    1  LIG1        0.0490
     26 S          -3.2876    6.0697    0.2703 S.2     1  LIG1       -0.0820
     27 O           0.3477    6.8204   -0.8933 O.3     1  LIG1       -0.5044
     28 H           0.5552    7.7042   -1.2399 H       1  LIG1        0.2922
     29 C          -1.2773    9.1609   -1.2213 C.1     1  LIG1       -0.0648
     30 C          -0.7208   10.1080   -1.7340 C.1     1  LIG1       -0.1138
     31 H          -0.2773   10.9680   -2.1804 H       1  LIG1        0.1232
     32 C          -4.2463    8.6181   -0.2680 C.ar    1  LIG1        0.0698
     33 C          -4.3071    9.9369    0.1348 C.ar    1  LIG1        0.1474
     34 C          -5.6252   10.5133    0.0247 C.ar    1  LIG1        0.0737
     35 C          -6.5482    9.6095   -0.4506 C.ar    1  LIG1       -0.0047
     36 S          -5.8431    8.0767   -0.7849 S.2     1  LIG1       -0.0911
     37 H          -7.6007    9.7817   -0.6226 H       1  LIG1        0.0707
     38 O          -3.2465   10.6135    0.6261 O.3     1  LIG1       -0.5044
     39 H          -3.5417   11.5081    0.8606 H       1  LIG1        0.2922
     40 C          -5.8674   11.8607    0.4034 C.1     1  LIG1       -0.0655
     41 C          -5.9832   13.0161    0.7501 C.1     1  LIG1       -0.1138
     42 H          -6.1244   14.0303    1.0460 H       1  LIG1        0.1232
@<TRIPOS>BOND
     1    31    30    1
     2    30    29    3
     3    11    10    1
     4    28    27    1
     5    29    24    1
     6    10     9    3
     7    27    23    1
     8    36    35   ar
     9    36    32   ar
    10     8     7    1
    11     9     3    1
    12    24    23   ar
    13    24    25   ar
    14    37    35    1
    15    23    22   ar
    16    35    34   ar
    17     7     2    1
    18    16    15   ar
    19    16    12   ar
    20    25    32    1
    21    25    26   ar
    22    32    33   ar
    23     3     2   ar
    24     3     4   ar
    25     2     1   ar
    26    22    15    1
    27    22    26   ar
    28    34    33   ar
    29    34    40    1
    30    33    38    1
    31    15    14   ar
    32     4    12    1
    33     4     5   ar
    34    12    13   ar
    35     1     6    1
    36     1     5   ar
    37    40    41    3
    38    38    39    1
    39    14    13   ar
    40    14    19    1
    41    13    17    1
    42    41    42    1
    43    19    20    3
    44    17    18    1
    45    20    21    1
