@<TRIPOS>MOLECULE
mol_data/opt/b3lyp/geoms/mol2/5fe5fe.out
 22 23 0 0 0
SMALL
GASTEIGER

@<TRIPOS>ATOM
      1 C          -2.0405   -1.7541    0.5984 C.ar    1  LIG1        0.0190
      2 C          -0.7238   -1.8058    0.2413 C.ar    1  LIG1        0.1398
      3 C          -0.1639   -0.5113   -0.0739 C.ar    1  LIG1        0.0814
      4 C          -1.0864    0.5167    0.0679 C.ar    1  LIG1        0.0484
      5 S          -2.6289   -0.1197    0.5898 S.2     1  LIG1       -0.0910
      6 H          -2.6859   -2.5789    0.8593 H       1  LIG1        0.0731
      7 O          -0.0096   -2.9564    0.1662 O.3     1  LIG1       -0.5050
      8 H           0.8862   -2.7290   -0.1314 H       1  LIG1        0.2922
      9 C           1.1726   -0.4131   -0.5373 C.1     1  LIG1       -0.0648
     10 C           2.3169   -0.4581   -0.9356 C.1     1  LIG1       -0.1138
     11 H           3.3219   -0.4452   -1.2892 H       1  LIG1        0.1232
     12 C          -0.9042    1.9379   -0.1486 C.ar    1  LIG1        0.0698
     13 C           0.1365    2.7480    0.2531 C.ar    1  LIG1        0.1474
     14 C          -0.0264    4.1303   -0.1301 C.ar    1  LIG1        0.0737
     15 C          -1.2035    4.3447   -0.8105 C.ar    1  LIG1       -0.0047
     16 S          -2.1076    2.8949   -1.0108 S.2     1  LIG1       -0.0911
     17 H          -1.5695    5.2831   -1.2008 H       1  LIG1        0.0707
     18 O           1.1917    2.3015    0.9704 O.3     1  LIG1       -0.5044
     19 H           1.7781    3.0550    1.1442 H       1  LIG1        0.2922
     20 C           0.9498    5.1039    0.2112 C.1     1  LIG1       -0.0655
     21 C           1.8310    5.8665    0.5441 C.1     1  LIG1       -0.1138
     22 H           2.5854    6.5669    0.8200 H       1  LIG1        0.1232
@<TRIPOS>BOND
     1    11    10    1
     2    17    15    1
     3    16    15   ar
     4    16    12   ar
     5    10     9    3
     6    15    14   ar
     7     9     3    1
     8    12     4    1
     9    12    13   ar
    10     8     7    1
    11    14    20    1
    12    14    13   ar
    13     3     4   ar
    14     3     2   ar
    15     4     5   ar
    16     7     2    1
    17    20    21    3
    18     2     1   ar
    19    13    18    1
    20    21    22    1
    21     5     1   ar
    22     1     6    1
    23    18    19    1
