@<TRIPOS>MOLECULE
mol_data/opt/b3lyp/geoms/mol2/5fe5fe5fe-.out
 32 34 0 0 0
SMALL
GASTEIGER

@<TRIPOS>ATOM
      1 C          -1.9378   -1.7300    1.1455 C.ar    1  LIG1        0.0190
      2 C          -0.7844   -1.8528    0.4254 C.ar    1  LIG1        0.1398
      3 C          -0.2258   -0.5848    0.0152 C.ar    1  LIG1        0.0814
      4 C          -0.9784    0.4968    0.4555 C.ar    1  LIG1        0.0484
      5 S          -2.3615   -0.0605    1.3705 S.2     1  LIG1       -0.0910
      6 H          -2.5527   -2.5214    1.5462 H       1  LIG1        0.0731
      7 O          -0.2224   -3.0446    0.1027 O.3     1  LIG1       -0.5050
      8 H           0.5689   -2.8622   -0.4296 H       1  LIG1        0.2922
      9 C           0.9258   -0.5576   -0.8114 C.1     1  LIG1       -0.0648
     10 C           1.8987   -0.6666   -1.5269 C.1     1  LIG1       -0.1138
     11 H           2.7570   -0.7078   -2.1567 H       1  LIG1        0.1232
     12 C          -0.7464    1.9113    0.2538 C.ar    1  LIG1        0.0704
     13 C           0.4327    2.6191    0.3465 C.ar    1  LIG1        0.1481
     14 C           0.2956    4.0274    0.0750 C.ar    1  LIG1        0.0820
     15 C          -1.0147    4.3979   -0.1983 C.ar    1  LIG1        0.0490
     16 S          -2.0682    3.0065   -0.1393 S.2     1  LIG1       -0.0820
     17 O           1.6128    2.0515    0.6784 O.3     1  LIG1       -0.5044
     18 H           2.2913    2.7465    0.6672 H       1  LIG1        0.2922
     19 C           1.4478    4.8543    0.0614 C.1     1  LIG1       -0.0648
     20 C           2.5025    5.4521    0.0625 C.1     1  LIG1       -0.1138
     21 H           3.4028    6.0219    0.0550 H       1  LIG1        0.1232
     22 C          -1.5432    5.7110   -0.5024 C.ar    1  LIG1        0.0698
     23 C          -1.2674    6.9179    0.1063 C.ar    1  LIG1        0.1474
     24 C          -2.0054    8.0266   -0.4496 C.ar    1  LIG1        0.0737
     25 C          -2.8429    7.6332   -1.4685 C.ar    1  LIG1       -0.0047
     26 S          -2.7378    5.9445   -1.7782 S.2     1  LIG1       -0.0911
     27 H          -3.5054    8.2605   -2.0470 H       1  LIG1        0.0707
     28 O          -0.4205    7.0472    1.1508 O.3     1  LIG1       -0.5044
     29 H          -0.4099    7.9808    1.4166 H       1  LIG1        0.2922
     30 C          -1.8472    9.3411    0.0650 C.1     1  LIG1       -0.0655
     31 C          -1.6508   10.4271    0.5658 C.1     1  LIG1       -0.1138
     32 H          -1.5050   11.3978    0.9811 H       1  LIG1        0.1232
@<TRIPOS>BOND
     1    11    10    1
     2    27    25    1
     3    26    25   ar
     4    26    22   ar
     5    10     9    3
     6    25    24   ar
     7     9     3    1
     8    22    15    1
     9    22    23   ar
    10    24    30    1
    11    24    23   ar
    12     8     7    1
    13    15    16   ar
    14    15    14   ar
    15    16    12   ar
    16     3     2   ar
    17     3     4   ar
    18    21    20    1
    19    19    20    3
    20    19    14    1
    21    30    31    3
    22    14    13   ar
    23     7     2    1
    24    23    28    1
    25    12    13   ar
    26    12     4    1
    27    13    17    1
    28     2     1   ar
    29     4     5   ar
    30    31    32    1
    31    18    17    1
    32     1     5   ar
    33     1     6    1
    34    28    29    1
