@<TRIPOS>MOLECULE
mol_data/opt/b3lyp/geoms/mol2/5fe5fe5fe5fe-.out
 42 45 0 0 0
SMALL
GASTEIGER

@<TRIPOS>ATOM
      1 C          -1.9925   -1.9014    0.3627 C.ar    1  LIG1        0.0190
      2 C          -0.6990   -1.9134   -0.0732 C.ar    1  LIG1        0.1398
      3 C          -0.1134   -0.5960   -0.1726 C.ar    1  LIG1        0.0814
      4 C          -0.9923    0.4088    0.2132 C.ar    1  LIG1        0.0484
      5 S          -2.5275   -0.2816    0.6939 S.2     1  LIG1       -0.0910
      6 H          -2.6504   -2.7458    0.4999 H       1  LIG1        0.0731
      7 O          -0.0273   -3.0444   -0.4053 O.3     1  LIG1       -0.5050
      8 H           0.8571   -2.7822   -0.7087 H       1  LIG1        0.2922
      9 C           1.1963   -0.4466   -0.6944 C.1     1  LIG1       -0.0648
     10 C           2.3123   -0.4502   -1.1687 C.1     1  LIG1       -0.1138
     11 H           3.2943   -0.3969   -1.5783 H       1  LIG1        0.1232
     12 C          -0.7803    1.8387    0.2573 C.ar    1  LIG1        0.0704
     13 C           0.3168    2.5421    0.7075 C.ar    1  LIG1        0.1481
     14 C           0.1624    3.9731    0.6512 C.ar    1  LIG1        0.0820
     15 C          -1.0736    4.3624    0.1482 C.ar    1  LIG1        0.0491
     16 S          -2.0286    2.9611   -0.2750 S.2     1  LIG1       -0.0820
     17 O           1.4170    1.9484    1.2193 O.3     1  LIG1       -0.5044
     18 H           2.0241    2.6491    1.5103 H       1  LIG1        0.2922
     19 C           1.1820    4.8054    1.1790 C.1     1  LIG1       -0.0648
     20 C           2.1125    5.4041    1.6748 C.1     1  LIG1       -0.1138
     21 H           2.9039    5.9781    2.0983 H       1  LIG1        0.1232
     22 C          -1.5976    5.6928   -0.0552 C.ar    1  LIG1        0.0704
     23 C          -0.9623    6.8125   -0.5527 C.ar    1  LIG1        0.1481
     24 C          -1.8165    7.9649   -0.6783 C.ar    1  LIG1        0.0820
     25 C          -3.1207    7.7160   -0.2691 C.ar    1  LIG1        0.0490
     26 S          -3.2824    6.0703    0.2926 S.2     1  LIG1       -0.0820
     27 O           0.3269    6.8147   -0.9526 O.3     1  LIG1       -0.5044
     28 H           0.5261    7.6956   -1.3113 H       1  LIG1        0.2922
     29 C          -1.3076    9.1504   -1.2676 C.1     1  LIG1       -0.0648
     30 C          -0.7631   10.0936   -1.8000 C.1     1  LIG1       -0.1138
     31 H          -0.3302   10.9502   -2.2630 H       1  LIG1        0.1232
     32 C          -4.2553    8.6127   -0.2482 C.ar    1  LIG1        0.0698
     33 C          -4.3092    9.9349    0.1445 C.ar    1  LIG1        0.1474
     34 C          -5.6300   10.5091    0.0567 C.ar    1  LIG1        0.0737
     35 C          -6.5615    9.6005   -0.3918 C.ar    1  LIG1       -0.0047
     36 S          -5.8618    8.0655   -0.7274 S.2     1  LIG1       -0.0911
     37 H          -7.6176    9.7702   -0.5435 H       1  LIG1        0.0707
     38 O          -3.2394   10.6167    0.6080 O.3     1  LIG1       -0.5044
     39 H          -3.5308   11.5130    0.8411 H       1  LIG1        0.2922
     40 C          -5.8658   11.8595    0.4289 C.1     1  LIG1       -0.0655
     41 C          -5.9759   13.0177    0.7680 C.1     1  LIG1       -0.1138
     42 H          -6.1123   14.0342    1.0582 H       1  LIG1        0.1232
@<TRIPOS>BOND
     1    31    30    1
     2    30    29    3
     3    11    10    1
     4    28    27    1
     5    29    24    1
     6    10     9    3
     7    27    23    1
     8    36    35   ar
     9    36    32   ar
    10     8     7    1
    11     9     3    1
    12    24    23   ar
    13    24    25   ar
    14    23    22   ar
    15    37    35    1
    16     7     2    1
    17    35    34   ar
    18    16    15   ar
    19    16    12   ar
    20    25    32    1
    21    25    26   ar
    22    32    33   ar
    23     3     2   ar
    24     3     4   ar
    25     2     1   ar
    26    22    15    1
    27    22    26   ar
    28    34    33   ar
    29    34    40    1
    30    33    38    1
    31    15    14   ar
    32     4    12    1
    33     4     5   ar
    34    12    13   ar
    35     1     6    1
    36     1     5   ar
    37    40    41    3
    38    38    39    1
    39    14    13   ar
    40    14    19    1
    41    13    17    1
    42    41    42    1
    43    19    20    3
    44    17    18    1
    45    20    21    1
