@<TRIPOS>MOLECULE
mol_data/opt/b3lyp/geoms/mol2/5fe5fe5fe-5fe-.out
 42 45 0 0 0
SMALL
GASTEIGER

@<TRIPOS>ATOM
      1 C          -1.4417   -1.8202    1.5151 C.ar    1  LIG1        0.0190
      2 C          -0.6540   -1.8864    0.4021 C.ar    1  LIG1        0.1398
      3 C          -0.2637   -0.5901   -0.1036 C.ar    1  LIG1        0.0814
      4 C          -0.7646    0.4546    0.6633 C.ar    1  LIG1        0.0484
      5 S          -1.7064   -0.1724    1.9982 S.2     1  LIG1       -0.0910
      6 H          -1.8767   -2.6405    2.0651 H       1  LIG1        0.0731
      7 O          -0.2871   -3.0497   -0.1920 O.3     1  LIG1       -0.5050
      8 H           0.2437   -2.8256   -0.9736 H       1  LIG1        0.2922
      9 C           0.4838   -0.5002   -1.3050 C.1     1  LIG1       -0.0648
     10 C           1.1052   -0.5562   -2.3447 C.1     1  LIG1       -0.1138
     11 H           1.6555   -0.5495   -3.2569 H       1  LIG1        0.1232
     12 C          -0.5929    1.8804    0.4852 C.ar    1  LIG1        0.0704
     13 C           0.5475    2.5835    0.1614 C.ar    1  LIG1        0.1481
     14 C           0.3532    4.0074    0.0605 C.ar    1  LIG1        0.0820
     15 C          -0.9511    4.3946    0.3450 C.ar    1  LIG1        0.0491
     16 S          -1.9359    2.9976    0.7123 S.2     1  LIG1       -0.0820
     17 O           1.7492    1.9970   -0.0304 O.3     1  LIG1       -0.5044
     18 H           2.3868    2.6938   -0.2579 H       1  LIG1        0.2922
     19 C           1.4318    4.8305   -0.3514 C.1     1  LIG1       -0.0648
     20 C           2.4224    5.4196   -0.7277 C.1     1  LIG1       -0.1138
     21 H           3.2647    5.9856   -1.0527 H       1  LIG1        0.1232
     22 C          -1.5255    5.7204    0.3595 C.ar    1  LIG1        0.0704
     23 C          -0.9953    6.8932    0.8570 C.ar    1  LIG1        0.1481
     24 C          -1.8788    8.0261    0.7564 C.ar    1  LIG1        0.0820
     25 C          -3.0988    7.7074    0.1735 C.ar    1  LIG1        0.0490
     26 S          -3.1423    6.0197   -0.2721 S.2     1  LIG1       -0.0820
     27 O           0.2153    6.9649    1.4498 O.3     1  LIG1       -0.5044
     28 H           0.3415    7.8767    1.7608 H       1  LIG1        0.2922
     29 C          -1.4887    9.2685    1.3181 C.1     1  LIG1       -0.0648
     30 C          -1.0504   10.2669    1.8481 C.1     1  LIG1       -0.1138
     31 H          -0.7098   11.1697    2.3001 H       1  LIG1        0.1232
     32 C          -4.2324    8.5664   -0.0902 C.ar    1  LIG1        0.0698
     33 C          -4.2482    9.8509   -0.5949 C.ar    1  LIG1        0.1474
     34 C          -5.5761   10.3948   -0.7457 C.ar    1  LIG1        0.0737
     35 C          -6.5494    9.5004   -0.3617 C.ar    1  LIG1       -0.0047
     36 S          -5.8830    8.0162    0.1965 S.2     1  LIG1       -0.0911
     37 H          -7.6187    9.6533   -0.3782 H       1  LIG1        0.0707
     38 O          -3.1324   10.5220   -0.9537 O.3     1  LIG1       -0.5044
     39 H          -3.3998   11.3891   -1.2987 H       1  LIG1        0.2922
     40 C          -5.7754   11.7042   -1.2589 C.1     1  LIG1       -0.0655
     41 C          -5.8523   12.8282   -1.7054 C.1     1  LIG1       -0.1138
     42 H          -5.9601   13.8142   -2.0957 H       1  LIG1        0.1232
@<TRIPOS>BOND
     1    11    10    1
     2    10     9    3
     3    42    41    1
     4    41    40    3
     5     9     3    1
     6    39    38    1
     7    40    34    1
     8    21    20    1
     9     8     7    1
    10    38    33    1
    11    34    33   ar
    12    34    35   ar
    13    20    19    3
    14    33    32   ar
    15    37    35    1
    16    35    36   ar
    17    19    14    1
    18    26    25   ar
    19    26    22   ar
    20    18    17    1
    21     7     2    1
    22     3     2   ar
    23     3     4   ar
    24    32    25    1
    25    32    36   ar
    26    17    13    1
    27    14    13   ar
    28    14    15   ar
    29    13    12   ar
    30    25    24   ar
    31    15    22    1
    32    15    16   ar
    33    22    23   ar
    34     2     1   ar
    35    12     4    1
    36    12    16   ar
    37     4     5   ar
    38    24    23   ar
    39    24    29    1
    40    23    27    1
    41    29    30    3
    42    27    28    1
    43     1     5   ar
    44     1     6    1
    45    30    31    1
