@<TRIPOS>MOLECULE
mol_data/opt/b3lyp/geoms/mol2/5ff5ff-5ff-5ff-.out
 38 41 0 0 0
SMALL
GASTEIGER

@<TRIPOS>ATOM
      1 C          -1.8614   -2.0665    0.6182 C.ar    1  LIG1        0.0215
      2 C          -0.7081   -2.0160   -0.1082 C.ar    1  LIG1        0.1661
      3 C          -0.2340   -0.6801   -0.3228 C.ar    1  LIG1        0.1740
      4 C          -1.0308    0.2902    0.2517 C.ar    1  LIG1        0.0747
      5 S          -2.3819   -0.4722    1.0908 S.2     1  LIG1       -0.0885
      6 H          -2.4201   -2.9408    0.9153 H       1  LIG1        0.0731
      7 O          -0.0436   -3.0901   -0.6104 O.3     1  LIG1       -0.5029
      8 H           0.7413   -2.7396   -1.0610 H       1  LIG1        0.2923
      9 O           0.8835   -0.5382   -1.0858 O.3     1  LIG1       -0.5025
     10 H           1.3189    0.3133   -0.8792 H       1  LIG1        0.2923
     11 C          -0.8654    1.7235    0.2121 C.ar    1  LIG1        0.0753
     12 C           0.2882    2.4508    0.0403 C.ar    1  LIG1        0.1746
     13 C           0.1124    3.8611    0.0044 C.ar    1  LIG1        0.1746
     14 C          -1.1996    4.2571    0.1791 C.ar    1  LIG1        0.0753
     15 S          -2.2266    2.8328    0.3697 S.2     1  LIG1       -0.0794
     16 O           1.5416    1.8975   -0.0795 O.3     1  LIG1       -0.5025
     17 H           2.1626    2.6327   -0.2127 H       1  LIG1        0.2923
     18 O           1.2239    4.6129   -0.2196 O.3     1  LIG1       -0.5025
     19 H           1.0873    5.5178    0.1301 H       1  LIG1        0.2923
     20 C          -1.7386    5.5929    0.2080 C.ar    1  LIG1        0.0753
     21 C          -1.0976    6.7746    0.4996 C.ar    1  LIG1        0.1746
     22 C          -1.9126    7.9367    0.4208 C.ar    1  LIG1        0.1746
     23 C          -3.2199    7.6690    0.0668 C.ar    1  LIG1        0.0753
     24 S          -3.4116    5.9403   -0.2282 S.2     1  LIG1       -0.0794
     25 O           0.2184    6.8672    0.8893 O.3     1  LIG1       -0.5025
     26 H           0.4213    7.8134    0.9772 H       1  LIG1        0.2923
     27 O          -1.3314    9.1194    0.7595 O.3     1  LIG1       -0.5025
     28 H          -1.8292    9.8578    0.3527 H       1  LIG1        0.2923
     29 C          -4.3239    8.5907   -0.0561 C.ar    1  LIG1        0.0747
     30 C          -4.2870    9.9385   -0.3264 C.ar    1  LIG1        0.1740
     31 C          -5.5663   10.5687   -0.3467 C.ar    1  LIG1        0.1661
     32 C          -6.5960    9.7064   -0.1066 C.ar    1  LIG1        0.0215
     33 S          -5.9977    8.0946    0.1837 S.2     1  LIG1       -0.0885
     34 H          -7.6570    9.9084   -0.0833 H       1  LIG1        0.0731
     35 O          -3.1307   10.6400   -0.5878 O.3     1  LIG1       -0.5025
     36 H          -3.3675   11.5736   -0.7011 H       1  LIG1        0.2923
     37 O          -5.5817   11.9124   -0.6133 O.3     1  LIG1       -0.5029
     38 H          -6.4890   12.2417   -0.6237 H       1  LIG1        0.2923
@<TRIPOS>BOND
     1     9    10    1
     2     9     3    1
     3     8     7    1
     4    36    35    1
     5    38    37    1
     6    37    31    1
     7     7     2    1
     8    35    30    1
     9    31    30   ar
    10    31    32   ar
    11    30    29   ar
    12     3     2   ar
    13     3     4   ar
    14    24    23   ar
    15    24    20   ar
    16    18    13    1
    17    18    19    1
    18    17    16    1
    19     2     1   ar
    20    32    34    1
    21    32    33   ar
    22    16    12    1
    23    29    23    1
    24    29    33   ar
    25    13    12   ar
    26    13    14   ar
    27    12    11   ar
    28    23    22   ar
    29    14    20    1
    30    14    15   ar
    31    20    21   ar
    32    11     4    1
    33    11    15   ar
    34     4     5   ar
    35    28    27    1
    36    22    21   ar
    37    22    27    1
    38    21    25    1
    39     1     6    1
    40     1     5   ar
    41    25    26    1
