@<TRIPOS>MOLECULE
mol_data/opt/b3lyp/geoms/mol2/5ff5ff-5ff-5ff.out
 38 41 0 0 0
SMALL
GASTEIGER

@<TRIPOS>ATOM
      1 C          -1.8303   -2.0183    0.9263 C.ar    1  LIG1        0.0215
      2 C          -0.7291   -2.0166    0.1215 C.ar    1  LIG1        0.1661
      3 C          -0.2673   -0.6982   -0.2009 C.ar    1  LIG1        0.1740
      4 C          -1.0204    0.3083    0.3699 C.ar    1  LIG1        0.0747
      5 S          -2.3132   -0.3962    1.3412 S.2     1  LIG1       -0.0885
      6 H          -2.3698   -2.8706    1.3101 H       1  LIG1        0.0731
      7 O          -0.1030   -3.1218   -0.3624 O.3     1  LIG1       -0.5029
      8 H           0.6499   -2.8025   -0.8849 H       1  LIG1        0.2923
      9 O           0.7962   -0.6073   -1.0446 O.3     1  LIG1       -0.5025
     10 H           1.2468    0.2518   -0.9175 H       1  LIG1        0.2923
     11 C          -0.8534    1.7359    0.2374 C.ar    1  LIG1        0.0753
     12 C           0.2885    2.4440   -0.0518 C.ar    1  LIG1        0.1746
     13 C           0.1152    3.8512   -0.1579 C.ar    1  LIG1        0.1746
     14 C          -1.1814    4.2656    0.0788 C.ar    1  LIG1        0.0753
     15 S          -2.1978    2.8621    0.4191 S.2     1  LIG1       -0.0794
     16 O           1.5294    1.8759   -0.2226 O.3     1  LIG1       -0.5025
     17 H           2.1420    2.5980   -0.4396 H       1  LIG1        0.2923
     18 O           1.2122    4.5799   -0.4993 O.3     1  LIG1       -0.5025
     19 H           1.1052    5.5040   -0.1925 H       1  LIG1        0.2923
     20 C          -1.7114    5.6053    0.0597 C.ar    1  LIG1        0.0753
     21 C          -1.0465    6.7944    0.2489 C.ar    1  LIG1        0.1746
     22 C          -1.8502    7.9601    0.1233 C.ar    1  LIG1        0.1746
     23 C          -3.1775    7.6880   -0.1410 C.ar    1  LIG1        0.0753
     24 S          -3.4141    5.9425   -0.2521 S.2     1  LIG1       -0.0794
     25 O           0.2908    6.8945    0.5537 O.3     1  LIG1       -0.5025
     26 H           0.4976    7.8421    0.6112 H       1  LIG1        0.2923
     27 O          -1.2187    9.1592    0.2491 O.3     1  LIG1       -0.5025
     28 H          -1.8602    9.8396    0.5392 H       1  LIG1        0.2923
     29 C          -4.2659    8.6187   -0.3221 C.ar    1  LIG1        0.0747
     30 C          -4.3850    9.8996    0.1640 C.ar    1  LIG1        0.1740
     31 C          -5.5823   10.5680   -0.2282 C.ar    1  LIG1        0.1661
     32 C          -6.3980    9.8002   -1.0070 C.ar    1  LIG1        0.0215
     33 S          -5.6815    8.2383   -1.3005 S.2     1  LIG1       -0.0885
     34 H          -7.3648   10.0453   -1.4219 H       1  LIG1        0.0731
     35 O          -3.4584   10.4996    0.9874 O.3     1  LIG1       -0.5025
     36 H          -3.7558   11.4063    1.1607 H       1  LIG1        0.2923
     37 O          -5.7483   11.8468    0.2343 O.3     1  LIG1       -0.5029
     38 H          -6.6008   12.1985   -0.0510 H       1  LIG1        0.2923
@<TRIPOS>BOND
     1    34    32    1
     2    33    32   ar
     3    33    29   ar
     4     9    10    1
     5     9     3    1
     6    32    31   ar
     7     8     7    1
     8    18    19    1
     9    18    13    1
    10    17    16    1
    11     7     2    1
    12    29    23    1
    13    29    30   ar
    14    24    23   ar
    15    24    20   ar
    16    31    30   ar
    17    31    37    1
    18    16    12    1
    19     3     2   ar
    20     3     4   ar
    21    13    12   ar
    22    13    14   ar
    23    23    22   ar
    24    12    11   ar
    25    38    37    1
    26    20    14    1
    27    20    21   ar
    28    14    15   ar
    29     2     1   ar
    30    22    21   ar
    31    22    27    1
    32    30    35    1
    33    11     4    1
    34    11    15   ar
    35    21    25    1
    36    27    28    1
    37     4     5   ar
    38    25    26    1
    39     1     6    1
    40     1     5   ar
    41    35    36    1
