@<TRIPOS>MOLECULE
mol_data/opt/b3lyp/geoms/mol2/5ff5ff5ff5ff-.out
 38 41 0 0 0
SMALL
GASTEIGER

@<TRIPOS>ATOM
      1 C          -2.0115   -2.0646    0.1382 C.ar    1  LIG1        0.0215
      2 C          -0.6734   -2.0210   -0.1234 C.ar    1  LIG1        0.1661
      3 C          -0.1462   -0.6881   -0.1487 C.ar    1  LIG1        0.1740
      4 C          -1.0905    0.2868    0.1039 C.ar    1  LIG1        0.0747
      5 S          -2.6580   -0.4673    0.3966 S.2     1  LIG1       -0.0885
      6 H          -2.6447   -2.9354    0.2113 H       1  LIG1        0.0731
      7 O           0.1213   -3.0990   -0.3553 O.3     1  LIG1       -0.5029
      8 H           1.0181   -2.7534   -0.4898 H       1  LIG1        0.2923
      9 O           1.1722   -0.5525   -0.4563 O.3     1  LIG1       -0.5025
     10 H           1.5065    0.2985   -0.1073 H       1  LIG1        0.2923
     11 C          -0.9157    1.7191    0.1341 C.ar    1  LIG1        0.0753
     12 C           0.2267    2.4434    0.3791 C.ar    1  LIG1        0.1746
     13 C           0.0717    3.8551    0.3115 C.ar    1  LIG1        0.1746
     14 C          -1.2170    4.2534    0.0116 C.ar    1  LIG1        0.0753
     15 S          -2.2314    2.8309   -0.2411 S.2     1  LIG1       -0.0794
     16 O           1.4404    1.8873    0.7111 O.3     1  LIG1       -0.5025
     17 H           2.0781    2.6180    0.7688 H       1  LIG1        0.2923
     18 O           1.1661    4.6073    0.6057 O.3     1  LIG1       -0.5025
     19 H           1.0629    5.5038    0.2245 H       1  LIG1        0.2923
     20 C          -1.7435    5.5904   -0.0925 C.ar    1  LIG1        0.0753
     21 C          -1.0739    6.7622   -0.3579 C.ar    1  LIG1        0.1746
     22 C          -1.8861    7.9287   -0.3744 C.ar    1  LIG1        0.1746
     23 C          -3.2199    7.6742   -0.1250 C.ar    1  LIG1        0.0753
     24 S          -3.4458    5.9531    0.1909 S.2     1  LIG1       -0.0794
     25 O           0.2712    6.8406   -0.6365 O.3     1  LIG1       -0.5025
     26 H           0.4868    7.7838   -0.7251 H       1  LIG1        0.2923
     27 O          -1.2716    9.1016   -0.6880 O.3     1  LIG1       -0.5025
     28 H          -1.7973    9.8505   -0.3397 H       1  LIG1        0.2923
     29 C          -4.3249    8.6027   -0.1118 C.ar    1  LIG1        0.0747
     30 C          -4.3027    9.9558    0.1327 C.ar    1  LIG1        0.1740
     31 C          -5.5762   10.5909    0.0376 C.ar    1  LIG1        0.1661
     32 C          -6.5880    9.7275   -0.2662 C.ar    1  LIG1        0.0215
     33 S          -5.9769    8.1079   -0.4748 S.2     1  LIG1       -0.0885
     34 H          -7.6426    9.9329   -0.3783 H       1  LIG1        0.0731
     35 O          -3.1675   10.6585    0.4723 O.3     1  LIG1       -0.5025
     36 H          -3.4073   11.5953    0.5449 H       1  LIG1        0.2923
     37 O          -5.6059   11.9399    0.2748 O.3     1  LIG1       -0.5029
     38 H          -6.5087   12.2734    0.2007 H       1  LIG1        0.2923
@<TRIPOS>BOND
     1    26    25    1
     2    27    22    1
     3    27    28    1
     4    25    21    1
     5     8     7    1
     6    33    32   ar
     7    33    29   ar
     8     9     3    1
     9     9    10    1
    10    34    32    1
    11    22    21   ar
    12    22    23   ar
    13    21    20   ar
    14     7     2    1
    15    32    31   ar
    16    15    14   ar
    17    15    11   ar
    18     3     2   ar
    19     3     4   ar
    20    23    29    1
    21    23    24   ar
    22     2     1   ar
    23    29    30   ar
    24    20    14    1
    25    20    24   ar
    26    14    13   ar
    27    31    30   ar
    28    31    37    1
    29     4    11    1
    30     4     5   ar
    31    30    35    1
    32    11    12   ar
    33     1     6    1
    34     1     5   ar
    35    38    37    1
    36    19    18    1
    37    13    12   ar
    38    13    18    1
    39    12    16    1
    40    35    36    1
    41    16    17    1
