@<TRIPOS>MOLECULE
mol_data/opt/b3lyp/geoms/mol2/5ff5ff-5ff5ff.out
 38 41 0 0 0
SMALL
GASTEIGER

@<TRIPOS>ATOM
      1 C          -2.2183   -1.9392    0.0145 C.ar    1  LIG1        0.0215
      2 C          -0.8581   -2.0197    0.0088 C.ar    1  LIG1        0.1661
      3 C          -0.2109   -0.7397    0.0039 C.ar    1  LIG1        0.1740
      4 C          -1.0904    0.3294    0.0061 C.ar    1  LIG1        0.0747
      5 S          -2.7501   -0.2819    0.0143 S.2     1  LIG1       -0.0885
      6 H          -2.9319   -2.7487    0.0189 H       1  LIG1        0.0731
      7 O          -0.1370   -3.1724    0.0074 O.3     1  LIG1       -0.5029
      8 H           0.7978   -2.9123    0.0028 H       1  LIG1        0.2923
      9 O           1.1467   -0.7712   -0.0020 O.3     1  LIG1       -0.5025
     10 H           1.5142    0.1352   -0.0049 H       1  LIG1        0.2923
     11 C          -0.8325    1.7526    0.0026 C.ar    1  LIG1        0.0753
     12 C           0.3561    2.4461   -0.0032 C.ar    1  LIG1        0.1746
     13 C           0.2386    3.8625   -0.0050 C.ar    1  LIG1        0.1746
     14 C          -1.0701    4.3131   -0.0008 C.ar    1  LIG1        0.0753
     15 S          -2.1568    2.9181    0.0056 S.2     1  LIG1       -0.0794
     16 O           1.6050    1.8701   -0.0070 O.3     1  LIG1       -0.5025
     17 H           2.2568    2.5896   -0.0109 H       1  LIG1        0.2923
     18 O           1.4140    4.5444   -0.0105 O.3     1  LIG1       -0.5025
     19 H           1.2540    5.5103   -0.0120 H       1  LIG1        0.2923
     20 C          -1.5974    5.6556   -0.0009 C.ar    1  LIG1        0.0753
     21 C          -0.9455    6.8682   -0.0062 C.ar    1  LIG1        0.1746
     22 C          -1.7861    8.0139   -0.0060 C.ar    1  LIG1        0.1746
     23 C          -3.1365    7.7143    0.0011 C.ar    1  LIG1        0.0753
     24 S          -3.3351    5.9572    0.0100 S.2     1  LIG1       -0.0794
     25 O           0.4210    7.0267   -0.0140 O.3     1  LIG1       -0.5025
     26 H           0.6035    7.9803   -0.0160 H       1  LIG1        0.2923
     27 O          -1.1389    9.2093   -0.0208 O.3     1  LIG1       -0.5025
     28 H          -1.7785    9.9491    0.0099 H       1  LIG1        0.2923
     29 C          -4.2931    8.5825   -0.0003 C.ar    1  LIG1        0.0747
     30 C          -4.3707    9.9574    0.0442 C.ar    1  LIG1        0.1740
     31 C          -5.6980   10.4760    0.0221 C.ar    1  LIG1        0.1661
     32 C          -6.6585    9.5101   -0.0370 C.ar    1  LIG1        0.0215
     33 S          -5.9307    7.9269   -0.0716 S.2     1  LIG1       -0.0885
     34 H          -7.7328    9.6186   -0.0629 H       1  LIG1        0.0731
     35 O          -3.2862   10.8037    0.1146 O.3     1  LIG1       -0.5025
     36 H          -3.6113   11.7167    0.1245 H       1  LIG1        0.2923
     37 O          -5.8170   11.8412    0.0648 O.3     1  LIG1       -0.5029
     38 H          -6.7475   12.0975    0.0534 H       1  LIG1        0.2923
@<TRIPOS>BOND
     1    33    32   ar
     2    33    29   ar
     3    34    32    1
     4    32    31   ar
     5    27    22    1
     6    27    28    1
     7    26    25    1
     8    25    21    1
     9    19    18    1
    10    17    16    1
    11    18    13    1
    12    16    12    1
    13    21    22   ar
    14    21    20   ar
    15    22    23   ar
    16    13    12   ar
    17    13    14   ar
    18    10     9    1
    19    12    11   ar
    20     9     3    1
    21    20    14    1
    22    20    24   ar
    23    14    15   ar
    24    29    23    1
    25    29    30   ar
    26    23    24   ar
    27    11    15   ar
    28    11     4    1
    29     8     7    1
    30     3     4   ar
    31     3     2   ar
    32     4     5   ar
    33     7     2    1
    34     2     1   ar
    35     5     1   ar
    36     1     6    1
    37    31    30   ar
    38    31    37    1
    39    30    35    1
    40    38    37    1
    41    35    36    1
