@<TRIPOS>MOLECULE
mol_data/opt/b3lyp/geoms/mol2/5ff5ff5ff-.out
 29 31 0 0 0
SMALL
GASTEIGER

@<TRIPOS>ATOM
      1 C          -2.0008   -1.9491    0.5854 C.ar    1  LIG1        0.0215
      2 C          -0.7612   -1.9291    0.0168 C.ar    1  LIG1        0.1661
      3 C          -0.2581   -0.6031   -0.1938 C.ar    1  LIG1        0.1740
      4 C          -1.1205    0.3901    0.2251 C.ar    1  LIG1        0.0747
      5 S          -2.5738   -0.3362    0.9113 S.2     1  LIG1       -0.0885
      6 H          -2.5971   -2.8103    0.8453 H       1  LIG1        0.0731
      7 O          -0.0398   -3.0234   -0.3428 O.3     1  LIG1       -0.5029
      8 H           0.7999   -2.6924   -0.6994 H       1  LIG1        0.2923
      9 O           0.9513   -0.4931   -0.8070 O.3     1  LIG1       -0.5025
     10 H           1.3589    0.3674   -0.5825 H       1  LIG1        0.2923
     11 C          -0.9457    1.8208    0.1422 C.ar    1  LIG1        0.0753
     12 C           0.2229    2.5423    0.0949 C.ar    1  LIG1        0.1746
     13 C           0.0570    3.9496   -0.0303 C.ar    1  LIG1        0.1746
     14 C          -1.2640    4.3480   -0.0550 C.ar    1  LIG1        0.0753
     15 S          -2.3117    2.9324    0.0619 S.2     1  LIG1       -0.0794
     16 O           1.4789    1.9874    0.1719 O.3     1  LIG1       -0.5025
     17 H           2.1154    2.7169    0.0928 H       1  LIG1        0.2923
     18 O           1.1903    4.6964   -0.1339 O.3     1  LIG1       -0.5025
     19 H           1.0116    5.6082    0.1744 H       1  LIG1        0.2923
     20 C          -1.7970    5.6852   -0.1661 C.ar    1  LIG1        0.0747
     21 C          -1.2058    6.8749    0.1887 C.ar    1  LIG1        0.1740
     22 C          -1.9974    8.0294   -0.0847 C.ar    1  LIG1        0.1661
     23 C          -3.2083    7.7342   -0.6396 C.ar    1  LIG1        0.0215
     24 S          -3.3801    6.0143   -0.8676 S.2     1  LIG1       -0.0885
     25 H          -4.0049    8.4065   -0.9233 H       1  LIG1        0.0731
     26 O           0.0310    6.9718    0.7877 O.3     1  LIG1       -0.5025
     27 H           0.2368    7.9132    0.8960 H       1  LIG1        0.2923
     28 O          -1.4524    9.2396    0.2558 O.3     1  LIG1       -0.5029
     29 H          -2.0686    9.9538    0.0507 H       1  LIG1        0.2923
@<TRIPOS>BOND
     1    25    23    1
     2    24    23   ar
     3    24    20   ar
     4     9    10    1
     5     9     3    1
     6     8     7    1
     7    23    22   ar
     8     7     2    1
     9     3     2   ar
    10     3     4   ar
    11    20    14    1
    12    20    21   ar
    13    18    13    1
    14    18    19    1
    15    22    21   ar
    16    22    28    1
    17    14    13   ar
    18    14    15   ar
    19    13    12   ar
    20     2     1   ar
    21    29    28    1
    22    15    11   ar
    23    17    16    1
    24    12    11   ar
    25    12    16    1
    26    11     4    1
    27    21    26    1
    28     4     5   ar
    29     1     6    1
    30     1     5   ar
    31    26    27    1
