@<TRIPOS>MOLECULE
mol_data/opt/b3lyp/geoms/mol2/5ff5ff-5ff-.out
 29 31 0 0 0
SMALL
GASTEIGER

@<TRIPOS>ATOM
      1 C          -2.0655   -1.9741   -0.0633 C.ar    1  LIG1        0.0215
      2 C          -0.7324   -1.9177    0.2206 C.ar    1  LIG1        0.1661
      3 C          -0.2107   -0.5824    0.2174 C.ar    1  LIG1        0.1740
      4 C          -1.1539    0.3808   -0.0795 C.ar    1  LIG1        0.0747
      5 S          -2.7132   -0.3875   -0.3783 S.2     1  LIG1       -0.0885
      6 H          -2.6942   -2.8492   -0.1230 H       1  LIG1        0.0731
      7 O           0.0617   -2.9855    0.4968 O.3     1  LIG1       -0.5029
      8 H           0.9550   -2.6329    0.6372 H       1  LIG1        0.2923
      9 O           1.1014   -0.4321    0.5442 O.3     1  LIG1       -0.5025
     10 H           1.4403    0.4069    0.1717 H       1  LIG1        0.2923
     11 C          -0.9825    1.8126   -0.1472 C.ar    1  LIG1        0.0753
     12 C           0.1612    2.5324   -0.3967 C.ar    1  LIG1        0.1746
     13 C           0.0012    3.9456   -0.3687 C.ar    1  LIG1        0.1746
     14 C          -1.2912    4.3476   -0.0984 C.ar    1  LIG1        0.0753
     15 S          -2.3053    2.9312    0.1808 S.2     1  LIG1       -0.0794
     16 O           1.3805    1.9709   -0.6970 O.3     1  LIG1       -0.5025
     17 H           2.0176    2.7011   -0.7656 H       1  LIG1        0.2923
     18 O           1.0976    4.6951   -0.6661 O.3     1  LIG1       -0.5025
     19 H           0.9940    5.5915   -0.2866 H       1  LIG1        0.2923
     20 C          -1.8207    5.6895   -0.0414 C.ar    1  LIG1        0.0747
     21 C          -1.1562    6.8601    0.2389 C.ar    1  LIG1        0.1740
     22 C          -1.9729    8.0279    0.1817 C.ar    1  LIG1        0.1661
     23 C          -3.2746    7.7612   -0.1279 C.ar    1  LIG1        0.0215
     24 S          -3.5097    6.0532   -0.3897 S.2     1  LIG1       -0.0885
     25 H          -4.1039    8.4479   -0.2167 H       1  LIG1        0.0731
     26 O           0.1775    6.9260    0.5783 O.3     1  LIG1       -0.5025
     27 H           0.4120    7.8610    0.6838 H       1  LIG1        0.2923
     28 O          -1.3553    9.2201    0.4551 O.3     1  LIG1       -0.5029
     29 H          -1.9922    9.9442    0.4140 H       1  LIG1        0.2923
@<TRIPOS>BOND
     1    17    16    1
     2    16    12    1
     3    18    13    1
     4    18    19    1
     5    12    13   ar
     6    12    11   ar
     7    24    23   ar
     8    24    20   ar
     9     5     4   ar
    10     5     1   ar
    11    13    14   ar
    12    25    23    1
    13    11     4    1
    14    11    15   ar
    15    23    22   ar
    16     6     1    1
    17    14    20    1
    18    14    15   ar
    19     4     3   ar
    20     1     2   ar
    21    20    21   ar
    22    10     9    1
    23    22    21   ar
    24    22    28    1
    25     3     2   ar
    26     3     9    1
    27     2     7    1
    28    21    26    1
    29    29    28    1
    30     7     8    1
    31    26    27    1
