@<TRIPOS>MOLECULE
mol_data/opt/b3lyp/geoms/mol2/5ff5ff-.out
 20 21 0 0 0
SMALL
GASTEIGER

@<TRIPOS>ATOM
      1 C          -2.1395   -1.8400   -0.0009 C.ar    1  LIG1        0.0215
      2 C          -0.7774   -1.8399   -0.0003 C.ar    1  LIG1        0.1661
      3 C          -0.2072   -0.5224    0.0004 C.ar    1  LIG1        0.1740
      4 C          -1.1470    0.4913    0.0004 C.ar    1  LIG1        0.0747
      5 S          -2.7671   -0.2166   -0.0006 S.2     1  LIG1       -0.0885
      6 H          -2.8048   -2.6895   -0.0015 H       1  LIG1        0.0731
      7 O           0.0109   -2.9468   -0.0004 O.3     1  LIG1       -0.5029
      8 H           0.9288   -2.6321    0.0001 H       1  LIG1        0.2923
      9 O           1.1504   -0.4758    0.0013 O.3     1  LIG1       -0.5025
     10 H           1.4655    0.4490    0.0009 H       1  LIG1        0.2923
     11 C          -0.9776    1.9320    0.0012 C.ar    1  LIG1        0.0747
     12 C           0.1672    2.6959    0.0006 C.ar    1  LIG1        0.1740
     13 C          -0.0603    4.1042    0.0018 C.ar    1  LIG1        0.1661
     14 C          -1.3802    4.4429    0.0034 C.ar    1  LIG1        0.0215
     15 S          -2.3746    3.0115    0.0034 S.2     1  LIG1       -0.0885
     16 H          -1.8321    5.4240    0.0045 H       1  LIG1        0.0731
     17 O           1.4494    2.1946   -0.0014 O.3     1  LIG1       -0.5025
     18 H           2.0684    2.9401   -0.0012 H       1  LIG1        0.2923
     19 O           1.0568    4.8995    0.0013 O.3     1  LIG1       -0.5029
     20 H           0.8040    5.8309    0.0019 H       1  LIG1        0.2923
@<TRIPOS>BOND
     1     6     1    1
     2    17    18    1
     3    17    12    1
     4     1     5   ar
     5     1     2   ar
     6     5     4   ar
     7     7     2    1
     8     7     8    1
     9     2     3   ar
    10     4     3   ar
    11     4    11    1
    12     3     9    1
    13    12    11   ar
    14    12    13   ar
    15    10     9    1
    16    11    15   ar
    17    19    13    1
    18    19    20    1
    19    13    14   ar
    20    14    15   ar
    21    14    16    1
