@<TRIPOS>MOLECULE
mol_data/opt/b3lyp/geoms/mol2/5ff5ff-5ff.out
 29 31 0 0 0
SMALL
GASTEIGER

@<TRIPOS>ATOM
      1 C          -2.1747   -1.9097    0.0026 C.ar    1  LIG1        0.0215
      2 C          -0.8129   -1.9531   -0.0004 C.ar    1  LIG1        0.1661
      3 C          -0.2009   -0.6555   -0.0009 C.ar    1  LIG1        0.1740
      4 C          -1.1092    0.3886    0.0017 C.ar    1  LIG1        0.0747
      5 S          -2.7514   -0.2677    0.0049 S.2     1  LIG1       -0.0885
      6 H          -2.8660   -2.7385    0.0035 H       1  LIG1        0.0731
      7 O          -0.0609   -3.0850   -0.0028 O.3     1  LIG1       -0.5029
      8 H           0.8665   -2.7996   -0.0046 H       1  LIG1        0.2923
      9 O           1.1569   -0.6499   -0.0042 O.3     1  LIG1       -0.5025
     10 H           1.4994    0.2660   -0.0032 H       1  LIG1        0.2923
     11 C          -0.8909    1.8186    0.0020 C.ar    1  LIG1        0.0753
     12 C           0.2768    2.5451    0.0017 C.ar    1  LIG1        0.1746
     13 C           0.1177    3.9588    0.0019 C.ar    1  LIG1        0.1746
     14 C          -1.2019    4.3707    0.0024 C.ar    1  LIG1        0.0753
     15 S          -2.2476    2.9454    0.0027 S.2     1  LIG1       -0.0794
     16 O           1.5412    2.0053    0.0016 O.3     1  LIG1       -0.5025
     17 H           2.1727    2.7425    0.0008 H       1  LIG1        0.2923
     18 O           1.2742    4.6729    0.0012 O.3     1  LIG1       -0.5025
     19 H           1.0874    5.6330    0.0025 H       1  LIG1        0.2923
     20 C          -1.7744    5.6989    0.0028 C.ar    1  LIG1        0.0747
     21 C          -1.1599    6.9316    0.0044 C.ar    1  LIG1        0.1740
     22 C          -2.0568    8.0397    0.0040 C.ar    1  LIG1        0.1661
     23 C          -3.3708    7.6765    0.0021 C.ar    1  LIG1        0.0215
     24 S          -3.5231    5.9404    0.0008 S.2     1  LIG1       -0.0885
     25 H          -4.2505    8.3029    0.0016 H       1  LIG1        0.0731
     26 O           0.2027    7.1309    0.0066 O.3     1  LIG1       -0.5025
     27 H           0.3721    8.0850    0.0066 H       1  LIG1        0.2923
     28 O          -1.4836    9.2850    0.0056 O.3     1  LIG1       -0.5029
     29 H          -2.1659    9.9676    0.0049 H       1  LIG1        0.2923
@<TRIPOS>BOND
     1     8     7    1
     2     9    10    1
     3     9     3    1
     4     7     2    1
     5     3     2   ar
     6     3     4   ar
     7     2     1   ar
     8    24    23   ar
     9    24    20   ar
    10    17    16    1
    11    18    13    1
    12    18    19    1
    13    25    23    1
    14    16    12    1
    15     4    11    1
    16     4     5   ar
    17    12    13   ar
    18    12    11   ar
    19    13    14   ar
    20    11    15   ar
    21    23    22   ar
    22    14    15   ar
    23    14    20    1
    24     1     6    1
    25     1     5   ar
    26    20    21   ar
    27    22    21   ar
    28    22    28    1
    29    21    26    1
    30    29    28    1
    31    27    26    1
