@<TRIPOS>MOLECULE
mol_data/opt/b3lyp/geoms/mol2/5ff5ff5ff5ff.out
 38 41 0 0 0
SMALL
GASTEIGER

@<TRIPOS>ATOM
      1 C          -2.0099   -2.0646    0.1513 C.ar    1  LIG1        0.0215
      2 C          -0.6724   -2.0210   -0.1133 C.ar    1  LIG1        0.1661
      3 C          -0.1456   -0.6880   -0.1414 C.ar    1  LIG1        0.1740
      4 C          -1.0896    0.2870    0.1122 C.ar    1  LIG1        0.0747
      5 S          -2.6564   -0.4671    0.4091 S.2     1  LIG1       -0.0885
      6 H          -2.6428   -2.9355    0.2269 H       1  LIG1        0.0731
      7 O           0.1220   -3.0991   -0.3456 O.3     1  LIG1       -0.5029
      8 H           1.0184   -2.7535   -0.4826 H       1  LIG1        0.2923
      9 O           1.1720   -0.5524   -0.4520 O.3     1  LIG1       -0.5025
     10 H           1.5068    0.2991   -0.1049 H       1  LIG1        0.2923
     11 C          -0.9151    1.7194    0.1399 C.ar    1  LIG1        0.0753
     12 C           0.2276    2.4442    0.3816 C.ar    1  LIG1        0.1746
     13 C           0.0722    3.8558    0.3122 C.ar    1  LIG1        0.1746
     14 C          -1.2172    4.2534    0.0143 C.ar    1  LIG1        0.0753
     15 S          -2.2318    2.8304   -0.2344 S.2     1  LIG1       -0.0794
     16 O           1.4421    1.8888    0.7119 O.3     1  LIG1       -0.5025
     17 H           2.0798    2.6198    0.7672 H       1  LIG1        0.2923
     18 O           1.1670    4.6087    0.6031 O.3     1  LIG1       -0.5025
     19 H           1.0630    5.5045    0.2201 H       1  LIG1        0.2923
     20 C          -1.7440    5.5902   -0.0908 C.ar    1  LIG1        0.0753
     21 C          -1.0752    6.7615   -0.3600 C.ar    1  LIG1        0.1746
     22 C          -1.8873    7.9280   -0.3762 C.ar    1  LIG1        0.1746
     23 C          -3.2205    7.6739   -0.1227 C.ar    1  LIG1        0.0753
     24 S          -3.4455    5.9534    0.1968 S.2     1  LIG1       -0.0794
     25 O           0.2692    6.8393   -0.6422 O.3     1  LIG1       -0.5025
     26 H           0.4845    7.7824   -0.7336 H       1  LIG1        0.2923
     27 O          -1.2737    9.1002   -0.6937 O.3     1  LIG1       -0.5025
     28 H          -1.7985    9.8499   -0.3457 H       1  LIG1        0.2923
     29 C          -4.3255    8.6025   -0.1079 C.ar    1  LIG1        0.0747
     30 C          -4.3028    9.9561    0.1337 C.ar    1  LIG1        0.1740
     31 C          -5.5767   10.5908    0.0415 C.ar    1  LIG1        0.1661
     32 C          -6.5893    9.7265   -0.2570 C.ar    1  LIG1        0.0215
     33 S          -5.9787    8.1066   -0.4640 S.2     1  LIG1       -0.0885
     34 H          -7.6443    9.9315   -0.3662 H       1  LIG1        0.0731
     35 O          -3.1666   10.6597    0.4682 O.3     1  LIG1       -0.5025
     36 H          -3.4064   11.5966    0.5398 H       1  LIG1        0.2923
     37 O          -5.6057   11.9403    0.2755 O.3     1  LIG1       -0.5029
     38 H          -6.5096   12.2727    0.2086 H       1  LIG1        0.2923
@<TRIPOS>BOND
     1    26    25    1
     2    27    22    1
     3    27    28    1
     4    25    21    1
     5     8     7    1
     6    33    32   ar
     7    33    29   ar
     8     9     3    1
     9     9    10    1
    10    22    21   ar
    11    22    23   ar
    12    34    32    1
    13    21    20   ar
    14     7     2    1
    15    32    31   ar
    16    15    14   ar
    17    15    11   ar
    18     3     2   ar
    19     3     4   ar
    20    23    29    1
    21    23    24   ar
    22     2     1   ar
    23    29    30   ar
    24    20    14    1
    25    20    24   ar
    26    14    13   ar
    27    31    30   ar
    28    31    37    1
    29     4    11    1
    30     4     5   ar
    31    30    35    1
    32    11    12   ar
    33     1     6    1
    34     1     5   ar
    35    38    37    1
    36    19    18    1
    37    13    12   ar
    38    13    18    1
    39    12    16    1
    40    35    36    1
    41    16    17    1
