@<TRIPOS>MOLECULE
mol_data/opt/b3lyp/geoms/mol2/5ff5ff5ff.out
 29 31 0 0 0
SMALL
GASTEIGER

@<TRIPOS>ATOM
      1 C          -2.0618   -1.9748    0.0711 C.ar    1  LIG1        0.0215
      2 C          -0.7281   -1.9181   -0.2098 C.ar    1  LIG1        0.1661
      3 C          -0.2073   -0.5824   -0.2080 C.ar    1  LIG1        0.1740
      4 C          -1.1518    0.3807    0.0850 C.ar    1  LIG1        0.0747
      5 S          -2.7113   -0.3881    0.3816 S.2     1  LIG1       -0.0885
      6 H          -2.6900   -2.8503    0.1311 H       1  LIG1        0.0731
      7 O           0.0674   -2.9858   -0.4822 O.3     1  LIG1       -0.5029
      8 H           0.9607   -2.6329   -0.6209 H       1  LIG1        0.2923
      9 O           1.1054   -0.4319   -0.5321 O.3     1  LIG1       -0.5025
     10 H           1.4430    0.4082   -0.1608 H       1  LIG1        0.2923
     11 C          -0.9817    1.8127    0.1502 C.ar    1  LIG1        0.0753
     12 C           0.1611    2.5339    0.4007 C.ar    1  LIG1        0.1746
     13 C          -0.0000    3.9470    0.3697 C.ar    1  LIG1        0.1746
     14 C          -1.2921    4.3474    0.0961 C.ar    1  LIG1        0.0753
     15 S          -2.3046    2.9297   -0.1824 S.2     1  LIG1       -0.0794
     16 O           1.3802    1.9740    0.7045 O.3     1  LIG1       -0.5025
     17 H           2.0166    2.7049    0.7728 H       1  LIG1        0.2923
     18 O           1.0952    4.6979    0.6678 O.3     1  LIG1       -0.5025
     19 H           0.9918    5.5934    0.2863 H       1  LIG1        0.2923
     20 C          -1.8226    5.6888    0.0357 C.ar    1  LIG1        0.0747
     21 C          -1.1584    6.8593   -0.2456 C.ar    1  LIG1        0.1740
     22 C          -1.9760    8.0267   -0.1918 C.ar    1  LIG1        0.1661
     23 C          -3.2780    7.7597    0.1163 C.ar    1  LIG1        0.0215
     24 S          -3.5123    6.0520    0.3808 S.2     1  LIG1       -0.0885
     25 H          -4.1079    8.4460    0.2024 H       1  LIG1        0.0731
     26 O           0.1758    6.9255   -0.5829 O.3     1  LIG1       -0.5025
     27 H           0.4098    7.8605   -0.6901 H       1  LIG1        0.2923
     28 O          -1.3587    9.2188   -0.4664 O.3     1  LIG1       -0.5029
     29 H          -1.9960    9.9427   -0.4263 H       1  LIG1        0.2923
@<TRIPOS>BOND
     1    27    26    1
     2     8     7    1
     3    26    21    1
     4     9     3    1
     5     9    10    1
     6     7     2    1
     7    28    29    1
     8    28    22    1
     9    21    22   ar
    10    21    20   ar
    11     2     3   ar
    12     2     1   ar
    13     3     4   ar
    14    22    23   ar
    15    15    14   ar
    16    15    11   ar
    17    20    14    1
    18    20    24   ar
    19     1     6    1
    20     1     5   ar
    21     4    11    1
    22     4     5   ar
    23    14    13   ar
    24    23    25    1
    25    23    24   ar
    26    11    12   ar
    27    19    18    1
    28    13    12   ar
    29    13    18    1
    30    12    16    1
    31    16    17    1
