@<TRIPOS>MOLECULE
mol_data/opt/b3lyp/geoms/mol2/5ff5ff5ff-5ff-.out
 38 41 0 0 0
SMALL
GASTEIGER

@<TRIPOS>ATOM
      1 C          -1.8624   -2.0636    0.6310 C.ar    1  LIG1        0.0215
      2 C          -0.7065   -2.0163   -0.0916 C.ar    1  LIG1        0.1661
      3 C          -0.2318   -0.6814   -0.3110 C.ar    1  LIG1        0.1740
      4 C          -1.0308    0.2915    0.2559 C.ar    1  LIG1        0.0747
      5 S          -2.3848   -0.4670    1.0938 S.2     1  LIG1       -0.0885
      6 H          -2.4219   -2.9364    0.9306 H       1  LIG1        0.0731
      7 O          -0.0400   -3.0928   -0.5862 O.3     1  LIG1       -0.5029
      8 H           0.7463   -2.7443   -1.0358 H       1  LIG1        0.2923
      9 O           0.8883   -0.5431   -1.0708 O.3     1  LIG1       -0.5025
     10 H           1.3227    0.3096   -0.8671 H       1  LIG1        0.2923
     11 C          -0.8655    1.7247    0.2098 C.ar    1  LIG1        0.0753
     12 C           0.2886    2.4514    0.0384 C.ar    1  LIG1        0.1746
     13 C           0.1126    3.8614   -0.0047 C.ar    1  LIG1        0.1746
     14 C          -1.2001    4.2580    0.1640 C.ar    1  LIG1        0.0753
     15 S          -2.2274    2.8344    0.3578 S.2     1  LIG1       -0.0794
     16 O           1.5425    1.8978   -0.0745 O.3     1  LIG1       -0.5025
     17 H           2.1636    2.6325   -0.2098 H       1  LIG1        0.2923
     18 O           1.2247    4.6124   -0.2288 O.3     1  LIG1       -0.5025
     19 H           1.0868    5.5188    0.1165 H       1  LIG1        0.2923
     20 C          -1.7393    5.5939    0.1847 C.ar    1  LIG1        0.0753
     21 C          -1.0994    6.7769    0.4730 C.ar    1  LIG1        0.1746
     22 C          -1.9143    7.9385    0.3863 C.ar    1  LIG1        0.1746
     23 C          -3.2204    7.6690    0.0295 C.ar    1  LIG1        0.0753
     24 S          -3.4110    5.9389   -0.2582 S.2     1  LIG1       -0.0794
     25 O           0.2153    6.8715    0.8666 O.3     1  LIG1       -0.5025
     26 H           0.4179    7.8181    0.9506 H       1  LIG1        0.2923
     27 O          -1.3343    9.1229    0.7216 O.3     1  LIG1       -0.5025
     28 H          -1.8309    9.8593    0.3097 H       1  LIG1        0.2923
     29 C          -4.3241    8.5900   -0.1010 C.ar    1  LIG1        0.0747
     30 C          -4.2865    9.9365   -0.3775 C.ar    1  LIG1        0.1740
     31 C          -5.5657   10.5666   -0.4046 C.ar    1  LIG1        0.1661
     32 C          -6.5961    9.7053   -0.1636 C.ar    1  LIG1        0.0215
     33 S          -5.9987    8.0949    0.1359 S.2     1  LIG1       -0.0885
     34 H          -7.6572    9.9074   -0.1447 H       1  LIG1        0.0731
     35 O          -3.1293   10.6369   -0.6387 O.3     1  LIG1       -0.5025
     36 H          -3.3660   11.5698   -0.7577 H       1  LIG1        0.2923
     37 O          -5.5803   11.9090   -0.6775 O.3     1  LIG1       -0.5029
     38 H          -6.4876   12.2381   -0.6928 H       1  LIG1        0.2923
@<TRIPOS>BOND
     1     9    10    1
     2     9     3    1
     3     8     7    1
     4    36    35    1
     5    38    37    1
     6    37    31    1
     7    35    30    1
     8     7     2    1
     9    31    30   ar
    10    31    32   ar
    11    30    29   ar
    12     3     2   ar
    13     3     4   ar
    14    24    23   ar
    15    24    20   ar
    16    18    13    1
    17    18    19    1
    18    17    16    1
    19    32    34    1
    20    32    33   ar
    21    29    23    1
    22    29    33   ar
    23     2     1   ar
    24    16    12    1
    25    13    12   ar
    26    13    14   ar
    27    23    22   ar
    28    12    11   ar
    29    14    20    1
    30    14    15   ar
    31    20    21   ar
    32    11     4    1
    33    11    15   ar
    34     4     5   ar
    35    28    27    1
    36    22    21   ar
    37    22    27    1
    38    21    25    1
    39     1     6    1
    40     1     5   ar
    41    25    26    1
