@<TRIPOS>MOLECULE
mol_data/opt/b3lyp/geoms/mol2/5ff5ff5ff-5ff.out
 38 41 0 0 0
SMALL
GASTEIGER

@<TRIPOS>ATOM
      1 C          -1.8254   -2.0115    0.9584 C.ar    1  LIG1        0.0215
      2 C          -0.7236   -2.0148    0.1543 C.ar    1  LIG1        0.1661
      3 C          -0.2629   -0.6984   -0.1777 C.ar    1  LIG1        0.1740
      4 C          -1.0174    0.3117    0.3851 C.ar    1  LIG1        0.0747
      5 S          -2.3102   -0.3868    1.3607 S.2     1  LIG1       -0.0885
      6 H          -2.3646   -2.8612    1.3483 H       1  LIG1        0.0731
      7 O          -0.0963   -3.1230   -0.3209 O.3     1  LIG1       -0.5029
      8 H           0.6570   -2.8068   -0.8449 H       1  LIG1        0.2923
      9 O           0.8010   -0.6129   -1.0215 O.3     1  LIG1       -0.5025
     10 H           1.2511    0.2473   -0.9000 H       1  LIG1        0.2923
     11 C          -0.8514    1.7383    0.2420 C.ar    1  LIG1        0.0753
     12 C           0.2902    2.4451   -0.0518 C.ar    1  LIG1        0.1746
     13 C           0.1159    3.8513   -0.1685 C.ar    1  LIG1        0.1746
     14 C          -1.1811    4.2665    0.0644 C.ar    1  LIG1        0.0753
     15 S          -2.1967    2.8648    0.4146 S.2     1  LIG1       -0.0794
     16 O           1.5316    1.8768   -0.2174 O.3     1  LIG1       -0.5025
     17 H           2.1438    2.5978   -0.4390 H       1  LIG1        0.2923
     18 O           1.2126    4.5782   -0.5145 O.3     1  LIG1       -0.5025
     19 H           1.1048    5.5044   -0.2145 H       1  LIG1        0.2923
     20 C          -1.7121    5.6056    0.0351 C.ar    1  LIG1        0.0753
     21 C          -1.0482    6.7965    0.2162 C.ar    1  LIG1        0.1746
     22 C          -1.8526    7.9607    0.0814 C.ar    1  LIG1        0.1746
     23 C          -3.1795    7.6856   -0.1819 C.ar    1  LIG1        0.0753
     24 S          -3.4148    5.9392   -0.2806 S.2     1  LIG1       -0.0794
     25 O           0.2887    6.8999    0.5213 O.3     1  LIG1       -0.5025
     26 H           0.4947    7.8480    0.5720 H       1  LIG1        0.2923
     27 O          -1.2222    9.1611    0.1992 O.3     1  LIG1       -0.5025
     28 H          -1.8646    9.8432    0.4831 H       1  LIG1        0.2923
     29 C          -4.2685    8.6141   -0.3708 C.ar    1  LIG1        0.0747
     30 C          -4.3887    9.8987    0.1052 C.ar    1  LIG1        0.1740
     31 C          -5.5862   10.5633   -0.2930 C.ar    1  LIG1        0.1661
     32 C          -6.4008    9.7889   -1.0664 C.ar    1  LIG1        0.0215
     33 S          -5.6831    8.2253   -1.3473 S.2     1  LIG1       -0.0885
     34 H          -7.3678   10.0298   -1.4835 H       1  LIG1        0.0731
     35 O          -3.4632   10.5060    0.9245 O.3     1  LIG1       -0.5025
     36 H          -3.7597   11.4148    1.0875 H       1  LIG1        0.2923
     37 O          -5.7537   11.8454    0.1599 O.3     1  LIG1       -0.5029
     38 H          -6.6010   12.1983   -0.1387 H       1  LIG1        0.2923
@<TRIPOS>BOND
     1    34    32    1
     2    33    32   ar
     3    33    29   ar
     4    32    31   ar
     5     9    10    1
     6     9     3    1
     7     8     7    1
     8    18    19    1
     9    18    13    1
    10    17    16    1
    11    29    23    1
    12    29    30   ar
    13     7     2    1
    14    31    30   ar
    15    31    37    1
    16    24    23   ar
    17    24    20   ar
    18    16    12    1
    19    23    22   ar
    20     3     2   ar
    21     3     4   ar
    22    13    12   ar
    23    13    14   ar
    24    38    37    1
    25    12    11   ar
    26    20    14    1
    27    20    21   ar
    28    14    15   ar
    29    22    27    1
    30    22    21   ar
    31    30    35    1
    32     2     1   ar
    33    27    28    1
    34    21    25    1
    35    11     4    1
    36    11    15   ar
    37     4     5   ar
    38    25    26    1
    39    35    36    1
    40     1     6    1
    41     1     5   ar
