@<TRIPOS>MOLECULE
mol_data/opt/b3lyp/geoms/mol2/5ff5ff.out
 20 21 0 0 0
SMALL
GASTEIGER

@<TRIPOS>ATOM
      1 C          -2.0851   -1.8510    0.2652 C.ar    1  LIG1        0.0215
      2 C          -0.7571   -1.8160   -0.0437 C.ar    1  LIG1        0.1661
      3 C          -0.2413   -0.4832   -0.1637 C.ar    1  LIG1        0.1740
      4 C          -1.1833    0.4983    0.0626 C.ar    1  LIG1        0.0747
      5 S          -2.7335   -0.2446    0.4524 S.2     1  LIG1       -0.0885
      6 H          -2.7095   -2.7191    0.4104 H       1  LIG1        0.0731
      7 O           0.0372   -2.9012   -0.2387 O.3     1  LIG1       -0.5029
      8 H           0.9273   -2.5601   -0.4209 H       1  LIG1        0.2923
      9 O           1.0664   -0.3559   -0.5201 O.3     1  LIG1       -0.5025
     10 H           1.4088    0.5045   -0.2061 H       1  LIG1        0.2923
     11 C          -1.0155    1.9335    0.0012 C.ar    1  LIG1        0.0747
     12 C           0.1258    2.6721    0.2008 C.ar    1  LIG1        0.1740
     13 C          -0.0464    4.0784    0.0301 C.ar    1  LIG1        0.1661
     14 C          -1.3248    4.4310   -0.2891 C.ar    1  LIG1        0.0215
     15 S          -2.3391    3.0184   -0.4187 S.2     1  LIG1       -0.0885
     16 H          -1.7343    5.4173   -0.4518 H       1  LIG1        0.0731
     17 O           1.3396    2.1312    0.5636 O.3     1  LIG1       -0.5025
     18 H           1.9891    2.8506    0.5906 H       1  LIG1        0.2923
     19 O           1.0638    4.8590    0.2225 O.3     1  LIG1       -0.5029
     20 H           0.8445    5.7896    0.0899 H       1  LIG1        0.2923
@<TRIPOS>BOND
     1     9    10    1
     2     9     3    1
     3    16    14    1
     4     8     7    1
     5    15    14   ar
     6    15    11   ar
     7    14    13   ar
     8     7     2    1
     9     3     2   ar
    10     3     4   ar
    11     2     1   ar
    12    11     4    1
    13    11    12   ar
    14    13    12   ar
    15    13    19    1
    16     4     5   ar
    17    20    19    1
    18    12    17    1
    19     1     6    1
    20     1     5   ar
    21    17    18    1
