@<TRIPOS>MOLECULE
mol_data/opt/b3lyp/geoms/mol2/5ff5ff-5ff5ff-.out
 38 41 0 0 0
SMALL
GASTEIGER

@<TRIPOS>ATOM
      1 C          -2.2213   -1.9357    0.0003 C.ar    1  LIG1        0.0215
      2 C          -0.8611   -2.0176   -0.0004 C.ar    1  LIG1        0.1661
      3 C          -0.2125   -0.7383   -0.0002 C.ar    1  LIG1        0.1740
      4 C          -1.0912    0.3315    0.0008 C.ar    1  LIG1        0.0747
      5 S          -2.7513   -0.2782    0.0013 S.2     1  LIG1       -0.0885
      6 H          -2.9355   -2.7448    0.0003 H       1  LIG1        0.0731
      7 O          -0.1417   -3.1709   -0.0013 O.3     1  LIG1       -0.5029
      8 H           0.7933   -2.9116   -0.0017 H       1  LIG1        0.2923
      9 O           1.1448   -0.7706   -0.0009 O.3     1  LIG1       -0.5025
     10 H           1.5132    0.1354   -0.0006 H       1  LIG1        0.2923
     11 C          -0.8322    1.7541    0.0013 C.ar    1  LIG1        0.0753
     12 C           0.3570    2.4465    0.0011 C.ar    1  LIG1        0.1746
     13 C           0.2407    3.8629    0.0017 C.ar    1  LIG1        0.1746
     14 C          -1.0679    4.3141    0.0025 C.ar    1  LIG1        0.0753
     15 S          -2.1556    2.9202    0.0024 S.2     1  LIG1       -0.0794
     16 O           1.6051    1.8696    0.0003 O.3     1  LIG1       -0.5025
     17 H           2.2574    2.5887    0.0002 H       1  LIG1        0.2923
     18 O           1.4164    4.5436    0.0015 O.3     1  LIG1       -0.5025
     19 H           1.2576    5.5097    0.0019 H       1  LIG1        0.2923
     20 C          -1.5947    5.6564    0.0034 C.ar    1  LIG1        0.0753
     21 C          -0.9429    6.8690    0.0035 C.ar    1  LIG1        0.1746
     22 C          -1.7836    8.0146    0.0044 C.ar    1  LIG1        0.1746
     23 C          -3.1339    7.7145    0.0050 C.ar    1  LIG1        0.0753
     24 S          -3.3323    5.9576    0.0044 S.2     1  LIG1       -0.0794
     25 O           0.4231    7.0280    0.0029 O.3     1  LIG1       -0.5025
     26 H           0.6050    7.9817    0.0029 H       1  LIG1        0.2923
     27 O          -1.1363    9.2096    0.0045 O.3     1  LIG1       -0.5025
     28 H          -1.7763    9.9496    0.0050 H       1  LIG1        0.2923
     29 C          -4.2912    8.5814    0.0060 C.ar    1  LIG1        0.0747
     30 C          -4.3704    9.9568    0.0063 C.ar    1  LIG1        0.1740
     31 C          -5.6992   10.4725    0.0073 C.ar    1  LIG1        0.1661
     32 C          -6.6588    9.5040    0.0077 C.ar    1  LIG1        0.0215
     33 S          -5.9286    7.9219    0.0069 S.2     1  LIG1       -0.0885
     34 H          -7.7339    9.6104    0.0085 H       1  LIG1        0.0731
     35 O          -3.2869   10.8067    0.0058 O.3     1  LIG1       -0.5025
     36 H          -3.6138   11.7189    0.0058 H       1  LIG1        0.2923
     37 O          -5.8205   11.8379    0.0077 O.3     1  LIG1       -0.5029
     38 H          -6.7517   12.0917    0.0079 H       1  LIG1        0.2923
@<TRIPOS>BOND
     1     8     7    1
     2     7     2    1
     3     9    10    1
     4     9     3    1
     5     2     3   ar
     6     2     1   ar
     7     3     4   ar
     8    17    16    1
     9     6     1    1
    10     1     5   ar
    11    16    12    1
    12     4    11    1
    13     4     5   ar
    14    12    11   ar
    15    12    13   ar
    16    11    15   ar
    17    18    13    1
    18    18    19    1
    19    13    14   ar
    20    15    14   ar
    21    14    20    1
    22    25    26    1
    23    25    21    1
    24    20    21   ar
    25    20    24   ar
    26    21    22   ar
    27    24    23   ar
    28    22    27    1
    29    22    23   ar
    30    27    28    1
    31    23    29    1
    32    35    36    1
    33    35    30    1
    34    29    30   ar
    35    29    33   ar
    36    30    31   ar
    37    33    32   ar
    38    31    37    1
    39    31    32   ar
    40    37    38    1
    41    32    34    1
