@<TRIPOS>MOLECULE
mol_data/opt/b3lyp/geoms/mol2/5fg.out
 11 11 0 0 0
SMALL
GASTEIGER

@<TRIPOS>ATOM
      1 C          -2.1319   -1.7464    0.0001 C.ar    1  LIG1        0.0183
      2 C          -0.7654   -1.6948   -0.0002 C.ar    1  LIG1        0.1369
      3 C          -0.2608   -0.3446   -0.0001 C.ar    1  LIG1        0.0533
      4 C          -1.2625    0.5867    0.0004 C.ar    1  LIG1       -0.0075
      5 S          -2.8286   -0.1585    0.0006 S.2     1  LIG1       -0.1002
      6 H          -2.7497   -2.6314    0.0000 H       1  LIG1        0.0730
      7 H          -1.1722    1.6633    0.0006 H       1  LIG1        0.0705
      8 O           0.0016   -2.8224   -0.0007 O.3     1  LIG1       -0.5051
      9 H           0.9397   -2.5917   -0.0013 H       1  LIG1        0.2922
     10 S           1.4996   -0.0496   -0.0003 S.3     1  LIG1       -0.1386
     11 H           1.4393    1.2937   -0.0007 H       1  LIG1        0.1072
@<TRIPOS>BOND
     1     9     8    1
     2    11    10    1
     3     8     2    1
     4    10     3    1
     5     2     3   ar
     6     2     1   ar
     7     3     4   ar
     8     6     1    1
     9     1     5   ar
    10     4     5   ar
    11     4     7    1
