@<TRIPOS>MOLECULE
mol_data/opt/b3lyp/geoms/mol2/5fg5fg5fg-.out
 29 31 0 0 0
SMALL
GASTEIGER

@<TRIPOS>ATOM
      1 C          -1.9207   -1.9178    0.4404 C.ar    1  LIG1        0.0189
      2 C          -0.7563   -1.8432   -0.2736 C.ar    1  LIG1        0.1376
      3 C          -0.2877   -0.4939   -0.4489 C.ar    1  LIG1        0.0617
      4 C          -1.0949    0.4443    0.1624 C.ar    1  LIG1        0.0462
      5 S          -2.4469   -0.3458    0.9542 S.2     1  LIG1       -0.0912
      6 H          -2.4789   -2.8052    0.6975 H       1  LIG1        0.0731
      7 O          -0.1211   -2.9288   -0.7809 O.3     1  LIG1       -0.5051
      8 H           0.7226   -2.6218   -1.1553 H       1  LIG1        0.2922
      9 S           1.1325   -0.1774   -1.4773 S.3     1  LIG1       -0.1380
     10 H           1.8737    0.4719   -0.5525 H       1  LIG1        0.1072
     11 C          -0.9319    1.8833    0.2327 C.ar    1  LIG1        0.0701
     12 C           0.1876    2.6128    0.5716 C.ar    1  LIG1        0.1458
     13 C          -0.0259    4.0304    0.5962 C.ar    1  LIG1        0.0623
     14 C          -1.3094    4.3971    0.2453 C.ar    1  LIG1        0.0468
     15 S          -2.2662    2.9753   -0.1091 S.2     1  LIG1       -0.0822
     16 O           1.3700    2.0434    0.9241 O.3     1  LIG1       -0.5045
     17 H           2.0064    2.7718    1.0497 H       1  LIG1        0.2922
     18 S           1.2864    5.1424    1.0764 S.3     1  LIG1       -0.1380
     19 H           1.1591    4.9837    2.4147 H       1  LIG1        0.1072
     20 C          -1.8848    5.7227    0.1154 C.ar    1  LIG1        0.0696
     21 C          -1.3989    6.7986   -0.5989 C.ar    1  LIG1        0.1452
     22 C          -2.2529    7.9536   -0.5319 C.ar    1  LIG1        0.0539
     23 C          -3.3886    7.7328    0.2001 C.ar    1  LIG1       -0.0069
     24 S          -3.4290    6.1373    0.8541 S.2     1  LIG1       -0.0912
     25 H          -4.1932    8.4285    0.3907 H       1  LIG1        0.0706
     26 O          -0.2546    6.7569   -1.3136 O.3     1  LIG1       -0.5045
     27 H          -0.1808    7.5976   -1.7985 H       1  LIG1        0.2922
     28 S          -1.8763    9.4524   -1.4253 S.3     1  LIG1       -0.1386
     29 H          -1.1101   10.0483   -0.4832 H       1  LIG1        0.1072
@<TRIPOS>BOND
     1    27    26    1
     2     9    10    1
     3     9     3    1
     4    28    22    1
     5    28    29    1
     6    26    21    1
     7     8     7    1
     8     7     2    1
     9    21    22   ar
    10    21    20   ar
    11    22    23   ar
    12     3     2   ar
    13     3     4   ar
    14     2     1   ar
    15    15    11   ar
    16    15    14   ar
    17    20    14    1
    18    20    24   ar
    19     4    11    1
    20     4     5   ar
    21    23    25    1
    22    23    24   ar
    23    11    12   ar
    24    14    13   ar
    25     1     6    1
    26     1     5   ar
    27    12    13   ar
    28    12    16    1
    29    13    18    1
    30    16    17    1
    31    18    19    1
