@<TRIPOS>MOLECULE
mol_data/opt/b3lyp/geoms/mol2/5fg5fg.out
 20 21 0 0 0
SMALL
GASTEIGER

@<TRIPOS>ATOM
      1 C          -2.0177   -1.7031    0.6469 C.ar    1  LIG1        0.0189
      2 C          -0.7346   -1.7495    0.1760 C.ar    1  LIG1        0.1376
      3 C          -0.2261   -0.4566   -0.1996 C.ar    1  LIG1        0.0617
      4 C          -1.1199    0.5691    0.0307 C.ar    1  LIG1        0.0462
      5 S          -2.6114   -0.0723    0.6889 S.2     1  LIG1       -0.0912
      6 H          -2.6304   -2.5298    0.9732 H       1  LIG1        0.0731
      7 O          -0.0246   -2.8970    0.0461 O.3     1  LIG1       -0.5051
      8 H           0.8886   -2.6443   -0.1758 H       1  LIG1        0.2922
      9 S           1.4154   -0.2709   -0.8745 S.3     1  LIG1       -0.1380
     10 H           1.1376   -0.7293   -2.1173 H       1  LIG1        0.1072
     11 C          -0.9536    1.9980   -0.1732 C.ar    1  LIG1        0.0695
     12 C           0.0549    2.8162    0.2892 C.ar    1  LIG1        0.1452
     13 C          -0.1134    4.1929   -0.0907 C.ar    1  LIG1        0.0539
     14 C          -1.2410    4.4043   -0.8379 C.ar    1  LIG1       -0.0069
     15 S          -2.1234    2.9433   -1.0882 S.2     1  LIG1       -0.0912
     16 H          -1.5910    5.3400   -1.2495 H       1  LIG1        0.0706
     17 O           1.0747    2.3724    1.0568 O.3     1  LIG1       -0.5045
     18 H           1.7045    3.1069    1.1597 H       1  LIG1        0.2922
     19 S           1.0910    5.4396    0.3386 S.3     1  LIG1       -0.1386
     20 H           0.5785    5.7976    1.5380 H       1  LIG1        0.1072
@<TRIPOS>BOND
     1    10     9    1
     2    16    14    1
     3    15    14   ar
     4    15    11   ar
     5     9     3    1
     6    14    13   ar
     7     3     4   ar
     8     3     2   ar
     9     8     7    1
    10    11     4    1
    11    11    12   ar
    12    13    12   ar
    13    13    19    1
    14     4     5   ar
    15     7     2    1
    16     2     1   ar
    17    12    17    1
    18    19    20    1
    19     1     5   ar
    20     1     6    1
    21    17    18    1
