@<TRIPOS>MOLECULE
mol_data/opt/b3lyp/geoms/mol2/5fg5fg5fg.out
 29 31 0 0 0
SMALL
GASTEIGER

@<TRIPOS>ATOM
      1 C          -1.9942   -1.9281    0.3568 C.ar    1  LIG1        0.0189
      2 C          -0.8399   -1.8451   -0.3724 C.ar    1  LIG1        0.1376
      3 C          -0.3481   -0.4986   -0.4979 C.ar    1  LIG1        0.0617
      4 C          -1.1271    0.4276    0.1660 C.ar    1  LIG1        0.0462
      5 S          -2.4816   -0.3701    0.9455 S.2     1  LIG1       -0.0912
      6 H          -2.5648   -2.8153    0.5860 H       1  LIG1        0.0731
      7 O          -0.2341   -2.9197   -0.9360 O.3     1  LIG1       -0.5051
      8 H           0.6112   -2.6136   -1.3076 H       1  LIG1        0.2922
      9 S           1.0622   -0.1652   -1.5348 S.3     1  LIG1       -0.1380
     10 H           1.8292    0.4313   -0.5953 H       1  LIG1        0.1072
     11 C          -0.9357    1.8590    0.2949 C.ar    1  LIG1        0.0701
     12 C           0.2046    2.5524    0.6426 C.ar    1  LIG1        0.1458
     13 C           0.0233    3.9726    0.7193 C.ar    1  LIG1        0.0623
     14 C          -1.2619    4.3741    0.4158 C.ar    1  LIG1        0.0468
     15 S          -2.2531    2.9874    0.0141 S.2     1  LIG1       -0.0822
     16 O           1.3802    1.9424    0.9483 O.3     1  LIG1       -0.5045
     17 H           2.0322    2.6467    1.1190 H       1  LIG1        0.2922
     18 S           1.3497    5.0011    1.3189 S.3     1  LIG1       -0.1380
     19 H           1.4900    5.7660    0.2139 H       1  LIG1        0.1072
     20 C          -1.8064    5.7164    0.3597 C.ar    1  LIG1        0.0696
     21 C          -1.2856    6.8319   -0.2629 C.ar    1  LIG1        0.1452
     22 C          -2.1181    7.9963   -0.1389 C.ar    1  LIG1        0.0539
     23 C          -3.2592    7.7568    0.5783 C.ar    1  LIG1       -0.0069
     24 S          -3.3475    6.1186    1.1110 S.2     1  LIG1       -0.0912
     25 H          -4.0437    8.4593    0.8203 H       1  LIG1        0.0706
     26 O          -0.1253    6.8233   -0.9672 O.3     1  LIG1       -0.5045
     27 H           0.0285    7.7346   -1.2764 H       1  LIG1        0.2922
     28 S          -1.6313    9.5698   -0.8288 S.3     1  LIG1       -0.1386
     29 H          -2.2226    9.4390   -2.0382 H       1  LIG1        0.1072
@<TRIPOS>BOND
     1    29    28    1
     2     9    10    1
     3     9     3    1
     4     8     7    1
     5    27    26    1
     6    26    21    1
     7     7     2    1
     8    28    22    1
     9     3     2   ar
    10     3     4   ar
    11     2     1   ar
    12    21    22   ar
    13    21    20   ar
    14    22    23   ar
    15    15    11   ar
    16    15    14   ar
    17     4    11    1
    18     4     5   ar
    19    19    18    1
    20    11    12   ar
    21     1     6    1
    22     1     5   ar
    23    20    14    1
    24    20    24   ar
    25    14    13   ar
    26    23    25    1
    27    23    24   ar
    28    12    13   ar
    29    12    16    1
    30    13    18    1
    31    16    17    1
