@<TRIPOS>MOLECULE
mol_data/opt/b3lyp/geoms/mol2/5fg5fg-5fg-5fg.out
 38 41 0 0 0
SMALL
GASTEIGER

@<TRIPOS>ATOM
      1 C          -1.3507   -1.8838    1.4272 C.ar    1  LIG1        0.0189
      2 C          -0.7305   -1.9384    0.2092 C.ar    1  LIG1        0.1376
      3 C          -0.4740   -0.6384   -0.3520 C.ar    1  LIG1        0.0617
      4 C          -0.8827    0.3961    0.4660 C.ar    1  LIG1        0.0462
      5 S          -1.5936   -0.2430    1.9378 S.2     1  LIG1       -0.0912
      6 H          -1.6590   -2.7129    2.0457 H       1  LIG1        0.0731
      7 O          -0.4101   -3.0999   -0.4138 O.3     1  LIG1       -0.5051
      8 H           0.1063   -2.8703   -1.2056 H       1  LIG1        0.2922
      9 S           0.1885   -0.5047   -2.0007 S.3     1  LIG1       -0.1380
     10 H           1.2701    0.2453   -1.6933 H       1  LIG1        0.1072
     11 C          -0.7624    1.8256    0.2600 C.ar    1  LIG1        0.0701
     12 C           0.3402    2.5494   -0.1419 C.ar    1  LIG1        0.1458
     13 C           0.1091    3.9604   -0.2434 C.ar    1  LIG1        0.0623
     14 C          -1.1676    4.3300    0.1297 C.ar    1  LIG1        0.0468
     15 S          -2.1036    2.9166    0.5780 S.2     1  LIG1       -0.0822
     16 O           1.5495    1.9804   -0.3933 O.3     1  LIG1       -0.5045
     17 H           2.1830    2.7059   -0.5421 H       1  LIG1        0.2922
     18 S           1.3894    5.0155   -0.8929 S.3     1  LIG1       -0.1380
     19 H           1.4763    5.8515    0.1659 H       1  LIG1        0.1072
     20 C          -1.7486    5.6552    0.2056 C.ar    1  LIG1        0.0702
     21 C          -1.2319    6.7939    0.7873 C.ar    1  LIG1        0.1458
     22 C          -2.1131    7.9235    0.7402 C.ar    1  LIG1        0.0623
     23 C          -3.3039    7.6615    0.0927 C.ar    1  LIG1        0.0468
     24 S          -3.3412    5.9998   -0.4543 S.2     1  LIG1       -0.0822
     25 O          -0.0294    6.8291    1.4182 O.3     1  LIG1       -0.5045
     26 H           0.1207    7.7551    1.6866 H       1  LIG1        0.2922
     27 S          -1.6505    9.4711    1.5013 S.3     1  LIG1       -0.1380
     28 H          -1.9796    9.1376    2.7712 H       1  LIG1        0.1072
     29 C          -4.4133    8.5525   -0.1897 C.ar    1  LIG1        0.0696
     30 C          -4.3799    9.7969   -0.7853 C.ar    1  LIG1        0.1452
     31 C          -5.6835   10.3842   -0.9396 C.ar    1  LIG1        0.0539
     32 C          -6.6892    9.5693   -0.4937 C.ar    1  LIG1       -0.0069
     33 S          -6.0781    8.0929    0.1555 S.2     1  LIG1       -0.0912
     34 H          -7.7512    9.7681   -0.5085 H       1  LIG1        0.0706
     35 O          -3.2420   10.3848   -1.2098 O.3     1  LIG1       -0.5045
     36 H          -3.4907   11.2002   -1.6798 H       1  LIG1        0.2922
     37 S          -5.9129   11.9624   -1.7418 S.3     1  LIG1       -0.1386
     38 H          -5.7492   12.7524   -0.6561 H       1  LIG1        0.1072
@<TRIPOS>BOND
     1     9    10    1
     2     9     3    1
     3    37    31    1
     4    37    38    1
     5    36    35    1
     6    35    30    1
     7     8     7    1
     8    31    30   ar
     9    31    32   ar
    10    18    13    1
    11    18    19    1
    12    30    29   ar
    13    17    16    1
    14    34    32    1
    15    32    33   ar
    16    24    23   ar
    17    24    20   ar
    18     7     2    1
    19    16    12    1
    20     3     2   ar
    21     3     4   ar
    22    13    12   ar
    23    13    14   ar
    24    29    23    1
    25    29    33   ar
    26    12    11   ar
    27    23    22   ar
    28    14    20    1
    29    14    15   ar
    30    20    21   ar
    31     2     1   ar
    32    11     4    1
    33    11    15   ar
    34     4     5   ar
    35    22    21   ar
    36    22    27    1
    37    21    25    1
    38    25    26    1
    39     1     5   ar
    40     1     6    1
    41    27    28    1
