@<TRIPOS>MOLECULE
mol_data/opt/b3lyp/geoms/mol2/5fg5fg-5fg-.out
 29 31 0 0 0
SMALL
GASTEIGER

@<TRIPOS>ATOM
      1 C          -1.9208   -1.7546    1.1498 C.ar    1  LIG1        0.0189
      2 C          -0.9069   -1.8800    0.2401 C.ar    1  LIG1        0.1376
      3 C          -0.4343   -0.6144   -0.2553 C.ar    1  LIG1        0.0617
      4 C          -1.0834    0.4656    0.3091 C.ar    1  LIG1        0.0462
      5 S          -2.2899   -0.0870    1.4569 S.2     1  LIG1       -0.0912
      6 H          -2.4499   -2.5464    1.6578 H       1  LIG1        0.0731
      7 O          -0.4133   -3.0759   -0.1671 O.3     1  LIG1       -0.5051
      8 H           0.3590   -2.8939   -0.7298 H       1  LIG1        0.2922
      9 S           0.7799   -0.5737   -1.5589 S.3     1  LIG1       -0.1380
     10 H           1.6969    0.1851   -0.9185 H       1  LIG1        0.1072
     11 C          -0.8615    1.8807    0.0878 C.ar    1  LIG1        0.0701
     12 C           0.3298    2.5751    0.0784 C.ar    1  LIG1        0.1458
     13 C           0.1861    3.9786   -0.1760 C.ar    1  LIG1        0.0623
     14 C          -1.1286    4.3728   -0.3192 C.ar    1  LIG1        0.0468
     15 S          -2.1980    2.9932   -0.1664 S.2     1  LIG1       -0.0822
     16 O           1.5324    1.9869    0.3156 O.3     1  LIG1       -0.5045
     17 H           2.1962    2.6985    0.3662 H       1  LIG1        0.2922
     18 S           1.6387    4.9941   -0.3601 S.3     1  LIG1       -0.1380
     19 H           1.3582    5.8748    0.6262 H       1  LIG1        0.1072
     20 C          -1.6620    5.7038   -0.5373 C.ar    1  LIG1        0.0696
     21 C          -1.3707    6.8712    0.1367 C.ar    1  LIG1        0.1452
     22 C          -2.1160    8.0056   -0.3338 C.ar    1  LIG1        0.0539
     23 C          -2.9640    7.6911   -1.3615 C.ar    1  LIG1       -0.0069
     24 S          -2.8760    6.0188   -1.7736 S.2     1  LIG1       -0.0912
     25 H          -3.6272    8.3574   -1.8941 H       1  LIG1        0.0706
     26 O          -0.5004    6.9379    1.1772 O.3     1  LIG1       -0.5045
     27 H          -0.4507    7.8726    1.4491 H       1  LIG1        0.2922
     28 S          -1.8728    9.6337    0.3575 S.3     1  LIG1       -0.1386
     29 H          -2.8230    9.5788    1.3186 H       1  LIG1        0.1072
@<TRIPOS>BOND
     1    25    23    1
     2    24    23   ar
     3    24    20   ar
     4     9    10    1
     5     9     3    1
     6    23    22   ar
     7     8     7    1
     8    20    14    1
     9    20    21   ar
    10    18    13    1
    11    18    19    1
    12    22    21   ar
    13    22    28    1
    14    14    13   ar
    15    14    15   ar
    16     3     2   ar
    17     3     4   ar
    18    13    12   ar
    19     7     2    1
    20    15    11   ar
    21    12    11   ar
    22    12    16    1
    23    11     4    1
    24    21    26    1
    25     2     1   ar
    26     4     5   ar
    27    16    17    1
    28    28    29    1
    29     1     5   ar
    30     1     6    1
    31    26    27    1
