@<TRIPOS>MOLECULE
mol_data/opt/b3lyp/geoms/mol2/5fg5fg5fg-5fg.out
 38 41 0 0 0
SMALL
GASTEIGER

@<TRIPOS>ATOM
      1 C          -1.9768   -1.9812    0.3500 C.ar    1  LIG1        0.0189
      2 C          -0.6900   -1.9475   -0.1125 C.ar    1  LIG1        0.1376
      3 C          -0.1701   -0.6115   -0.2374 C.ar    1  LIG1        0.0617
      4 C          -1.0668    0.3592    0.1615 C.ar    1  LIG1        0.0462
      5 S          -2.5671   -0.3844    0.6881 S.2     1  LIG1       -0.0912
      6 H          -2.5923   -2.8517    0.5192 H       1  LIG1        0.0731
      7 O           0.0148   -3.0594   -0.4395 O.3     1  LIG1       -0.5051
      8 H           0.9242   -2.7775   -0.6389 H       1  LIG1        0.2922
      9 S           1.4353   -0.3531   -0.9657 S.3     1  LIG1       -0.1380
     10 H           1.9765    0.3461    0.0565 H       1  LIG1        0.1072
     11 C          -0.8967    1.7981    0.2112 C.ar    1  LIG1        0.0701
     12 C           0.1448    2.5315    0.7385 C.ar    1  LIG1        0.1458
     13 C          -0.0483    3.9506    0.6731 C.ar    1  LIG1        0.0623
     14 C          -1.2323    4.3147    0.0634 C.ar    1  LIG1        0.0468
     15 S          -2.1218    2.8872   -0.4240 S.2     1  LIG1       -0.0822
     16 O           1.2264    1.9668    1.3375 O.3     1  LIG1       -0.5045
     17 H           1.8356    2.6955    1.5603 H       1  LIG1        0.2922
     18 S           1.1565    5.0667    1.3741 S.3     1  LIG1       -0.1380
     19 H           0.7682    4.9407    2.6648 H       1  LIG1        0.1072
     20 C          -1.7577    5.6362   -0.2180 C.ar    1  LIG1        0.0702
     21 C          -1.1265    6.6969   -0.8357 C.ar    1  LIG1        0.1458
     22 C          -1.9677    7.8464   -1.0075 C.ar    1  LIG1        0.0623
     23 C          -3.2436    7.6682   -0.5114 C.ar    1  LIG1        0.0468
     24 S          -3.4110    6.0712    0.1876 S.2     1  LIG1       -0.0822
     25 O           0.1438    6.6308   -1.2895 O.3     1  LIG1       -0.5045
     26 H           0.3936    7.5202   -1.5964 H       1  LIG1        0.2922
     27 S          -1.3648    9.2517   -1.9228 S.3     1  LIG1       -0.1380
     28 H          -1.5303   10.1725   -0.9478 H       1  LIG1        0.1072
     29 C          -4.3485    8.6062   -0.4793 C.ar    1  LIG1        0.0696
     30 C          -4.3518    9.9229   -0.0677 C.ar    1  LIG1        0.1452
     31 C          -5.6451   10.5433   -0.1454 C.ar    1  LIG1        0.0539
     32 C          -6.6106    9.6952   -0.6172 C.ar    1  LIG1       -0.0069
     33 S          -5.9719    8.1326   -0.9710 S.2     1  LIG1       -0.0912
     34 H          -7.6568    9.9132   -0.7768 H       1  LIG1        0.0706
     35 O          -3.2534   10.5602    0.4123 O.3     1  LIG1       -0.5045
     36 H          -3.5151   11.4805    0.5984 H       1  LIG1        0.2922
     37 S          -5.8860   12.2573    0.2935 S.3     1  LIG1       -0.1386
     38 H          -6.2003   12.0784    1.5967 H       1  LIG1        0.1072
@<TRIPOS>BOND
     1    27    22    1
     2    27    28    1
     3    26    25    1
     4    25    21    1
     5    22    21   ar
     6    22    23   ar
     7    33    32   ar
     8    33    29   ar
     9     9     3    1
    10     9    10    1
    11    21    20   ar
    12    34    32    1
    13     8     7    1
    14    32    31   ar
    15    23    29    1
    16    23    24   ar
    17    29    30   ar
    18     7     2    1
    19    15    14   ar
    20    15    11   ar
    21     3     2   ar
    22     3     4   ar
    23    20    14    1
    24    20    24   ar
    25    31    30   ar
    26    31    37    1
    27     2     1   ar
    28    30    35    1
    29    14    13   ar
    30     4    11    1
    31     4     5   ar
    32    11    12   ar
    33    37    38    1
    34     1     6    1
    35     1     5   ar
    36    35    36    1
    37    13    12   ar
    38    13    18    1
    39    12    16    1
    40    16    17    1
    41    18    19    1
