@<TRIPOS>MOLECULE
mol_data/opt/b3lyp/geoms/mol2/5fg5fg5fg-5fg-.out
 38 41 0 0 0
SMALL
GASTEIGER

@<TRIPOS>ATOM
      1 C          -1.3067   -1.9155    1.4362 C.ar    1  LIG1        0.0189
      2 C          -0.7407   -1.9737    0.1922 C.ar    1  LIG1        0.1376
      3 C          -0.5057   -0.6753   -0.3817 C.ar    1  LIG1        0.0617
      4 C          -0.8753    0.3616    0.4519 C.ar    1  LIG1        0.0462
      5 S          -1.5224   -0.2734    1.9544 S.2     1  LIG1       -0.0912
      6 H          -1.5893   -2.7429    2.0692 H       1  LIG1        0.0731
      7 O          -0.4510   -3.1370   -0.4424 O.3     1  LIG1       -0.5051
      8 H           0.0311   -2.9100   -1.2562 H       1  LIG1        0.2922
      9 S           0.0841   -0.5457   -2.0583 S.3     1  LIG1       -0.1380
     10 H           1.1797    0.2026   -1.8000 H       1  LIG1        0.1072
     11 C          -0.7616    1.7904    0.2380 C.ar    1  LIG1        0.0701
     12 C           0.3236    2.5113   -0.2137 C.ar    1  LIG1        0.1458
     13 C           0.0905    3.9225   -0.3080 C.ar    1  LIG1        0.0623
     14 C          -1.1677    4.2953    0.1206 C.ar    1  LIG1        0.0468
     15 S          -2.0852    2.8845    0.6131 S.2     1  LIG1       -0.0822
     16 O           1.5194    1.9395   -0.5174 O.3     1  LIG1       -0.5045
     17 H           2.1477    2.6632   -0.6939 H       1  LIG1        0.2922
     18 S           1.3425    4.9736   -1.0168 S.3     1  LIG1       -0.1380
     19 H           1.4749    5.8143    0.0336 H       1  LIG1        0.1072
     20 C          -1.7446    5.6207    0.2175 C.ar    1  LIG1        0.0702
     21 C          -1.2004    6.7637    0.7660 C.ar    1  LIG1        0.1458
     22 C          -2.0782    7.8966    0.7429 C.ar    1  LIG1        0.0623
     23 C          -3.3007    7.6249    0.1614 C.ar    1  LIG1        0.0468
     24 S          -3.3629    5.9605   -0.3785 S.2     1  LIG1       -0.0822
     25 O           0.0312    6.7986    1.3393 O.3     1  LIG1       -0.5045
     26 H           0.1925    7.7195    1.6162 H       1  LIG1        0.2922
     27 S          -1.5966    9.4027    1.5654 S.3     1  LIG1       -0.1380
     28 H          -1.6344   10.2135    0.4850 H       1  LIG1        0.1072
     29 C          -4.4179    8.5191   -0.0641 C.ar    1  LIG1        0.0696
     30 C          -4.4068    9.7916   -0.5975 C.ar    1  LIG1        0.1452
     31 C          -5.7127   10.3828   -0.6921 C.ar    1  LIG1        0.0539
     32 C          -6.7050    9.5426   -0.2639 C.ar    1  LIG1       -0.0069
     33 S          -6.0730    8.0406    0.3018 S.2     1  LIG1       -0.0912
     34 H          -7.7680    9.7356   -0.2473 H       1  LIG1        0.0706
     35 O          -3.2803   10.4105   -1.0323 O.3     1  LIG1       -0.5045
     36 H          -3.5560   11.2354   -1.4719 H       1  LIG1        0.2922
     37 S          -5.9599   11.9961   -1.4154 S.3     1  LIG1       -0.1386
     38 H          -5.7955   12.7342   -0.2940 H       1  LIG1        0.1072
@<TRIPOS>BOND
     1     9    10    1
     2     9     3    1
     3    36    35    1
     4    37    31    1
     5    37    38    1
     6     8     7    1
     7    35    30    1
     8    18    13    1
     9    18    19    1
    10    17    16    1
    11    31    30   ar
    12    31    32   ar
    13    30    29   ar
    14    16    12    1
    15     7     2    1
    16     3     2   ar
    17     3     4   ar
    18    24    23   ar
    19    24    20   ar
    20    13    12   ar
    21    13    14   ar
    22    32    34    1
    23    32    33   ar
    24    12    11   ar
    25    29    23    1
    26    29    33   ar
    27    14    20    1
    28    14    15   ar
    29    23    22   ar
    30     2     1   ar
    31    20    21   ar
    32    11     4    1
    33    11    15   ar
    34     4     5   ar
    35    28    27    1
    36    22    21   ar
    37    22    27    1
    38    21    25    1
    39    25    26    1
    40     1     5   ar
    41     1     6    1
