@<TRIPOS>MOLECULE
mol_data/opt/b3lyp/geoms/mol2/5fg5fg-5fg-5fg-.out
 38 41 0 0 0
SMALL
GASTEIGER

@<TRIPOS>ATOM
      1 C          -1.3385   -1.9230    1.3769 C.ar    1  LIG1        0.0189
      2 C          -0.7766   -1.9600    0.1303 C.ar    1  LIG1        0.1376
      3 C          -0.5346   -0.6519   -0.4182 C.ar    1  LIG1        0.0617
      4 C          -0.8946    0.3704    0.4372 C.ar    1  LIG1        0.0462
      5 S          -1.5415   -0.2902    1.9287 S.2     1  LIG1       -0.0912
      6 H          -1.6250   -2.7610    1.9941 H       1  LIG1        0.0731
      7 O          -0.4969   -3.1123   -0.5286 O.3     1  LIG1       -0.5051
      8 H          -0.0159   -2.8721   -1.3392 H       1  LIG1        0.2922
      9 S           0.0515   -0.4921   -2.0935 S.3     1  LIG1       -0.1380
     10 H           1.1543    0.2410   -1.8228 H       1  LIG1        0.1072
     11 C          -0.7716    1.8025    0.2513 C.ar    1  LIG1        0.0701
     12 C           0.3177    2.5246   -0.1882 C.ar    1  LIG1        0.1458
     13 C           0.0942    3.9389   -0.2546 C.ar    1  LIG1        0.0623
     14 C          -1.1606    4.3118    0.1837 C.ar    1  LIG1        0.0468
     15 S          -2.0868    2.8980    0.6506 S.2     1  LIG1       -0.0822
     16 O           1.5090    1.9504   -0.5054 O.3     1  LIG1       -0.5045
     17 H           2.1419    2.6731   -0.6692 H       1  LIG1        0.2922
     18 S           1.3518    4.9951   -0.9455 S.3     1  LIG1       -0.1380
     19 H           1.4921    5.8143    0.1207 H       1  LIG1        0.1072
     20 C          -1.7286    5.6390    0.3073 C.ar    1  LIG1        0.0702
     21 C          -1.1760    6.7678    0.8764 C.ar    1  LIG1        0.1458
     22 C          -2.0467    7.9065    0.8772 C.ar    1  LIG1        0.0623
     23 C          -3.2717    7.6538    0.2933 C.ar    1  LIG1        0.0468
     24 S          -3.3457    6.0004   -0.2783 S.2     1  LIG1       -0.0822
     25 O           0.0574    6.7842    1.4470 O.3     1  LIG1       -0.5045
     26 H           0.2271    7.6995    1.7372 H       1  LIG1        0.2922
     27 S          -1.5528    9.3943    1.7249 S.3     1  LIG1       -0.1380
     28 H          -1.6091   10.2260    0.6613 H       1  LIG1        0.1072
     29 C          -4.3848    8.5587    0.0869 C.ar    1  LIG1        0.0696
     30 C          -4.3709    9.8374   -0.4312 C.ar    1  LIG1        0.1452
     31 C          -5.6755   10.4322   -0.5197 C.ar    1  LIG1        0.0539
     32 C          -6.6660    9.6030   -0.0666 C.ar    1  LIG1       -0.0069
     33 S          -6.0382    8.0889    0.4697 S.2     1  LIG1       -0.0912
     34 H          -7.7256    9.8092   -0.0185 H       1  LIG1        0.0706
     35 O          -3.2439   10.4582   -0.8629 O.3     1  LIG1       -0.5045
     36 H          -3.5028   11.3518   -1.1536 H       1  LIG1        0.2922
     37 S          -5.9021   12.0993   -1.1180 S.3     1  LIG1       -0.1386
     38 H          -6.1025   11.8083   -2.4236 H       1  LIG1        0.1072
@<TRIPOS>BOND
     1    38    37    1
     2     9    10    1
     3     9     3    1
     4     8     7    1
     5    36    35    1
     6    37    31    1
     7    18    13    1
     8    18    19    1
     9    35    30    1
    10    17    16    1
    11     7     2    1
    12    31    30   ar
    13    31    32   ar
    14    16    12    1
    15    30    29   ar
    16     3     2   ar
    17     3     4   ar
    18    24    23   ar
    19    24    20   ar
    20    13    12   ar
    21    13    14   ar
    22    12    11   ar
    23    32    34    1
    24    32    33   ar
    25    29    23    1
    26    29    33   ar
    27     2     1   ar
    28    14    20    1
    29    14    15   ar
    30    11     4    1
    31    11    15   ar
    32    23    22   ar
    33    20    21   ar
    34     4     5   ar
    35    28    27    1
    36    21    22   ar
    37    21    25    1
    38    22    27    1
    39     1     5   ar
    40     1     6    1
    41    25    26    1
