@<TRIPOS>MOLECULE
mol_data/opt/b3lyp/geoms/mol2/5fg5fg-5fg.out
 29 31 0 0 0
SMALL
GASTEIGER

@<TRIPOS>ATOM
      1 C          -1.9102   -1.7522    1.1674 C.ar    1  LIG1        0.0189
      2 C          -0.9102   -1.8796    0.2427 C.ar    1  LIG1        0.1376
      3 C          -0.4436   -0.6150   -0.2609 C.ar    1  LIG1        0.0617
      4 C          -1.0830    0.4662    0.3122 C.ar    1  LIG1        0.0462
      5 S          -2.2728   -0.0839    1.4784 S.2     1  LIG1       -0.0912
      6 H          -2.4327   -2.5431    1.6838 H       1  LIG1        0.0731
      7 O          -0.4240   -3.0764   -0.1706 O.3     1  LIG1       -0.5051
      8 H           0.3393   -2.8958   -0.7459 H       1  LIG1        0.2922
      9 S           0.7502   -0.5766   -1.5832 S.3     1  LIG1       -0.1380
     10 H           1.6779    0.1817   -0.9577 H       1  LIG1        0.1072
     11 C          -0.8625    1.8809    0.0863 C.ar    1  LIG1        0.0701
     12 C           0.3295    2.5734    0.0585 C.ar    1  LIG1        0.1458
     13 C           0.1842    3.9769   -0.1954 C.ar    1  LIG1        0.0623
     14 C          -1.1319    4.3729   -0.3196 C.ar    1  LIG1        0.0468
     15 S          -2.2010    2.9950   -0.1495 S.2     1  LIG1       -0.0822
     16 O           1.5346    1.9835    0.2784 O.3     1  LIG1       -0.5045
     17 H           2.2001    2.6942    0.3186 H       1  LIG1        0.2922
     18 S           1.6355    4.9897   -0.4024 S.3     1  LIG1       -0.1380
     19 H           1.3715    5.8720    0.5869 H       1  LIG1        0.1072
     20 C          -1.6666    5.7043   -0.5314 C.ar    1  LIG1        0.0696
     21 C          -1.3633    6.8724    0.1363 C.ar    1  LIG1        0.1452
     22 C          -2.1143    8.0071   -0.3245 C.ar    1  LIG1        0.0539
     23 C          -2.9784    7.6923   -1.3384 C.ar    1  LIG1       -0.0069
     24 S          -2.8990    6.0192   -1.7494 S.2     1  LIG1       -0.0912
     25 H          -3.6490    8.3587   -1.8617 H       1  LIG1        0.0706
     26 O          -0.4771    6.9396    1.1632 O.3     1  LIG1       -0.5045
     27 H          -0.4223    7.8746    1.4330 H       1  LIG1        0.2922
     28 S          -1.8584    9.6362    0.3608 S.3     1  LIG1       -0.1386
     29 H          -2.7937    9.5835    1.3365 H       1  LIG1        0.1072
@<TRIPOS>BOND
     1    25    23    1
     2    24    23   ar
     3    24    20   ar
     4     9    10    1
     5     9     3    1
     6    23    22   ar
     7     8     7    1
     8    20    14    1
     9    20    21   ar
    10    18    13    1
    11    18    19    1
    12    22    21   ar
    13    22    28    1
    14    14    13   ar
    15    14    15   ar
    16     3     2   ar
    17     3     4   ar
    18    13    12   ar
    19     7     2    1
    20    15    11   ar
    21    12    11   ar
    22    12    16    1
    23    11     4    1
    24    21    26    1
    25     2     1   ar
    26    16    17    1
    27     4     5   ar
    28    28    29    1
    29    26    27    1
    30     1     5   ar
    31     1     6    1
