@<TRIPOS>MOLECULE
mol_data/opt/b3lyp/geoms/mol2/5fg5fg-5fg5fg-.out
 38 41 0 0 0
SMALL
GASTEIGER

@<TRIPOS>ATOM
      1 C          -1.9736   -1.9883    0.2072 C.ar    1  LIG1        0.0189
      2 C          -0.6883   -1.9431   -0.2582 C.ar    1  LIG1        0.1376
      3 C          -0.1692   -0.6042   -0.3527 C.ar    1  LIG1        0.0617
      4 C          -1.0650    0.3563    0.0720 C.ar    1  LIG1        0.0462
      5 S          -2.5634   -0.4004    0.5851 S.2     1  LIG1       -0.0912
      6 H          -2.5882   -2.8629    0.3576 H       1  LIG1        0.0731
      7 O           0.0159   -3.0465   -0.6140 O.3     1  LIG1       -0.5051
      8 H           0.9247   -2.7596   -0.8088 H       1  LIG1        0.2922
      9 S           1.4340   -0.3279   -1.0795 S.3     1  LIG1       -0.1380
     10 H           1.9779    0.3471   -0.0425 H       1  LIG1        0.1072
     11 C          -0.8954    1.7937    0.1554 C.ar    1  LIG1        0.0701
     12 C           0.1476    2.5148    0.6965 C.ar    1  LIG1        0.1458
     13 C          -0.0461    3.9350    0.6654 C.ar    1  LIG1        0.0623
     14 C          -1.2321    4.3129    0.0682 C.ar    1  LIG1        0.0468
     15 S          -2.1228    2.8971   -0.4500 S.2     1  LIG1       -0.0822
     16 O           1.2313    1.9366    1.2786 O.3     1  LIG1       -0.5045
     17 H           1.8408    2.6601    1.5168 H       1  LIG1        0.2922
     18 S           1.1605    5.0345    1.3882 S.3     1  LIG1       -0.1380
     19 H           0.7760    4.8791    2.6768 H       1  LIG1        0.1072
     20 C          -1.7590    5.6407   -0.1798 C.ar    1  LIG1        0.0702
     21 C          -1.1304    6.7156   -0.7751 C.ar    1  LIG1        0.1458
     22 C          -1.9724    7.8686   -0.9165 C.ar    1  LIG1        0.0623
     23 C          -3.2463    7.6786   -0.4196 C.ar    1  LIG1        0.0468
     24 S          -3.4107    6.0656    0.2424 S.2     1  LIG1       -0.0822
     25 O           0.1381    6.6605   -1.2352 O.3     1  LIG1       -0.5045
     26 H           0.3868    7.5569   -1.5217 H       1  LIG1        0.2922
     27 S          -1.3731    9.2953   -1.8011 S.3     1  LIG1       -0.1380
     28 H          -1.5363   10.1931   -0.8044 H       1  LIG1        0.1072
     29 C          -4.3512    8.6153   -0.3610 C.ar    1  LIG1        0.0696
     30 C          -4.3531    9.9221    0.0813 C.ar    1  LIG1        0.1452
     31 C          -5.6468   10.5438    0.0232 C.ar    1  LIG1        0.0539
     32 C          -6.6141    9.7067   -0.4643 C.ar    1  LIG1       -0.0069
     33 S          -5.9765    8.1530   -0.8572 S.2     1  LIG1       -0.0912
     34 H          -7.6609    9.9281   -0.6145 H       1  LIG1        0.0706
     35 O          -3.2528   10.5484    0.5715 O.3     1  LIG1       -0.5045
     36 H          -3.5140   11.4639    0.7803 H       1  LIG1        0.2922
     37 S          -5.8861   12.2472    0.5030 S.3     1  LIG1       -0.1386
     38 H          -6.1957   12.0378    1.8028 H       1  LIG1        0.1072
@<TRIPOS>BOND
     1    27    22    1
     2    27    28    1
     3    26    25    1
     4    25    21    1
     5     9     3    1
     6     9    10    1
     7    22    21   ar
     8    22    23   ar
     9    33    32   ar
    10    33    29   ar
    11     8     7    1
    12    21    20   ar
    13    34    32    1
    14     7     2    1
    15    32    31   ar
    16    15    14   ar
    17    15    11   ar
    18    23    29    1
    19    23    24   ar
    20    29    30   ar
    21     3     2   ar
    22     3     4   ar
    23     2     1   ar
    24    20    14    1
    25    20    24   ar
    26    31    30   ar
    27    31    37    1
    28    14    13   ar
    29     4    11    1
    30     4     5   ar
    31    30    35    1
    32    11    12   ar
    33     1     6    1
    34     1     5   ar
    35    37    38    1
    36    35    36    1
    37    13    12   ar
    38    13    18    1
    39    12    16    1
    40    16    17    1
    41    18    19    1
