@<TRIPOS>MOLECULE
mol_data/opt/b3lyp/geoms/mol2/5fg5fg5fg5fg.out
 38 41 0 0 0
SMALL
GASTEIGER

@<TRIPOS>ATOM
      1 C          -2.0021   -2.0090    0.2109 C.ar    1  LIG1        0.0189
      2 C          -0.7119   -1.9631   -0.2408 C.ar    1  LIG1        0.1376
      3 C          -0.1903   -0.6245   -0.3232 C.ar    1  LIG1        0.0617
      4 C          -1.0893    0.3351    0.0971 C.ar    1  LIG1        0.0462
      5 S          -2.5939   -0.4224    0.5908 S.2     1  LIG1       -0.0912
      6 H          -2.6190   -2.8837    0.3510 H       1  LIG1        0.0731
      7 O          -0.0054   -3.0657   -0.5950 O.3     1  LIG1       -0.5051
      8 H           0.9064   -2.7795   -0.7761 H       1  LIG1        0.2922
      9 S           1.4205   -0.3469   -1.0325 S.3     1  LIG1       -0.1380
     10 H           1.9532    0.3257    0.0120 H       1  LIG1        0.1072
     11 C          -0.9198    1.7719    0.1892 C.ar    1  LIG1        0.0701
     12 C           0.1212    2.4894    0.7401 C.ar    1  LIG1        0.1458
     13 C          -0.0637    3.9104    0.7019 C.ar    1  LIG1        0.0623
     14 C          -1.2490    4.2891    0.1035 C.ar    1  LIG1        0.0468
     15 S          -2.1377    2.8764   -0.4311 S.2     1  LIG1       -0.0822
     16 O           1.1983    1.9030    1.3277 O.3     1  LIG1       -0.5045
     17 H           1.8046    2.6190    1.5925 H       1  LIG1        0.2922
     18 S           1.1044    4.9724    1.5290 S.3     1  LIG1       -0.1380
     19 H           1.4609    5.7075    0.4525 H       1  LIG1        0.1072
     20 C          -1.7656    5.6202   -0.1378 C.ar    1  LIG1        0.0702
     21 C          -1.1178    6.7176   -0.6678 C.ar    1  LIG1        0.1458
     22 C          -1.9557    7.8708   -0.8189 C.ar    1  LIG1        0.0623
     23 C          -3.2514    7.6617   -0.3916 C.ar    1  LIG1        0.0468
     24 S          -3.4367    6.0311    0.2194 S.2     1  LIG1       -0.0822
     25 O           0.1776    6.6907   -1.0752 O.3     1  LIG1       -0.5045
     26 H           0.4023    7.5907   -1.3755 H       1  LIG1        0.2922
     27 S          -1.3240    9.3194   -1.6430 S.3     1  LIG1       -0.1380
     28 H          -1.4872   10.1856   -0.6189 H       1  LIG1        0.1072
     29 C          -4.3610    8.5937   -0.3605 C.ar    1  LIG1        0.0696
     30 C          -4.3854    9.8881    0.1165 C.ar    1  LIG1        0.1452
     31 C          -5.6773   10.5087    0.0183 C.ar    1  LIG1        0.0539
     32 C          -6.6194    9.6834   -0.5342 C.ar    1  LIG1       -0.0069
     33 S          -5.9613    8.1417   -0.9400 S.2     1  LIG1       -0.0912
     34 H          -7.6591    9.9071   -0.7250 H       1  LIG1        0.0706
     35 O          -3.3100   10.5020    0.6716 O.3     1  LIG1       -0.5045
     36 H          -3.5843   11.4091    0.8995 H       1  LIG1        0.2922
     37 S          -5.9424   12.1976    0.5339 S.3     1  LIG1       -0.1386
     38 H          -6.3138   11.9510    1.8108 H       1  LIG1        0.1072
@<TRIPOS>BOND
     1    27    22    1
     2    27    28    1
     3    26    25    1
     4    25    21    1
     5     9     3    1
     6     9    10    1
     7    33    32   ar
     8    33    29   ar
     9    22    21   ar
    10    22    23   ar
    11     8     7    1
    12    34    32    1
    13    21    20   ar
    14     7     2    1
    15    32    31   ar
    16    15    14   ar
    17    15    11   ar
    18    23    29    1
    19    23    24   ar
    20    29    30   ar
    21     3     2   ar
    22     3     4   ar
    23     2     1   ar
    24    20    14    1
    25    20    24   ar
    26    31    30   ar
    27    31    37    1
    28     4    11    1
    29     4     5   ar
    30    14    13   ar
    31    30    35    1
    32    11    12   ar
    33     1     6    1
    34     1     5   ar
    35    19    18    1
    36    37    38    1
    37    35    36    1
    38    13    12   ar
    39    13    18    1
    40    12    16    1
    41    16    17    1
