@<TRIPOS>MOLECULE
mol_data/opt/b3lyp/geoms/mol2/5fg5fg-5fg5fg.out
 38 41 0 0 0
SMALL
GASTEIGER

@<TRIPOS>ATOM
      1 C          -1.5537   -1.6882    1.7848 C.ar    1  LIG1        0.0189
      2 C          -0.9504   -1.8876    0.5735 C.ar    1  LIG1        0.1376
      3 C          -0.6278   -0.6602   -0.1048 C.ar    1  LIG1        0.0617
      4 C          -0.9692    0.4654    0.6184 C.ar    1  LIG1        0.0462
      5 S          -1.6989    0.0031    2.1459 S.2     1  LIG1       -0.0912
      6 H          -1.9004   -2.4393    2.4782 H       1  LIG1        0.0731
      7 O          -0.7015   -3.1169    0.0570 O.3     1  LIG1       -0.5051
      8 H          -0.1819   -2.9894   -0.7554 H       1  LIG1        0.2922
      9 S           0.0241   -0.7124   -1.7625 S.3     1  LIG1       -0.1380
     10 H           1.1513   -0.0042   -1.5286 H       1  LIG1        0.1072
     11 C          -0.7724    1.8612    0.2813 C.ar    1  LIG1        0.0701
     12 C           0.3653    2.4814   -0.1904 C.ar    1  LIG1        0.1458
     13 C           0.2115    3.8873   -0.4235 C.ar    1  LIG1        0.0623
     14 C          -1.0402    4.3605   -0.0835 C.ar    1  LIG1        0.0468
     15 S          -2.0481    3.0500    0.5007 S.2     1  LIG1       -0.0822
     16 O           1.5386    1.8242   -0.3917 O.3     1  LIG1       -0.5045
     17 H           2.2104    2.4957   -0.6098 H       1  LIG1        0.2922
     18 S           1.5424    4.8016   -1.1773 S.3     1  LIG1       -0.1380
     19 H           1.6814    5.7357   -0.2099 H       1  LIG1        0.1072
     20 C          -1.5458    5.7169   -0.1331 C.ar    1  LIG1        0.0702
     21 C          -0.9524    6.8742    0.3264 C.ar    1  LIG1        0.1458
     22 C          -1.7385    8.0550    0.1212 C.ar    1  LIG1        0.0623
     23 C          -2.9647    7.7966   -0.4570 C.ar    1  LIG1        0.0468
     24 S          -3.1397    6.0829   -0.7780 S.2     1  LIG1       -0.0822
     25 O           0.2569    6.8919    0.9464 O.3     1  LIG1       -0.5045
     26 H           0.3979    7.7976    1.2781 H       1  LIG1        0.2922
     27 S          -1.0536    9.6488    0.5276 S.3     1  LIG1       -0.1380
     28 H          -2.0211   10.0341    1.3893 H       1  LIG1        0.1072
     29 C          -4.0365    8.7216   -0.7712 C.ar    1  LIG1        0.0696
     30 C          -4.5990    9.6937    0.0296 C.ar    1  LIG1        0.1452
     31 C          -5.6709   10.4090   -0.6050 C.ar    1  LIG1        0.0539
     32 C          -5.9107    9.9768   -1.8816 C.ar    1  LIG1       -0.0069
     33 S          -4.8477    8.6963   -2.3341 S.2     1  LIG1       -0.0912
     34 H          -6.6524   10.3491   -2.5736 H       1  LIG1        0.0706
     35 O          -4.2132    9.9240    1.3112 O.3     1  LIG1       -0.5045
     36 H          -4.7416   10.6750    1.6385 H       1  LIG1        0.2922
     37 S          -6.5206   11.7438    0.2225 S.3     1  LIG1       -0.1386
     38 H          -7.5178   11.0196    0.7796 H       1  LIG1        0.1072
@<TRIPOS>BOND
     1    34    32    1
     2    33    32   ar
     3    33    29   ar
     4    32    31   ar
     5     9    10    1
     6     9     3    1
     7    18    13    1
     8    18    19    1
     9    24    23   ar
    10    24    20   ar
    11    29    23    1
    12    29    30   ar
    13     8     7    1
    14    17    16    1
    15    31    30   ar
    16    31    37    1
    17    23    22   ar
    18    13    12   ar
    19    13    14   ar
    20    16    12    1
    21    12    11   ar
    22    20    14    1
    23    20    21   ar
    24     3     2   ar
    25     3     4   ar
    26    14    15   ar
    27    30    35    1
    28     7     2    1
    29    22    21   ar
    30    22    27    1
    31    37    38    1
    32    11    15   ar
    33    11     4    1
    34    21    25    1
    35    27    28    1
    36     2     1   ar
    37     4     5   ar
    38    25    26    1
    39    35    36    1
    40     1     5   ar
    41     1     6    1
