@<TRIPOS>MOLECULE
mol_data/opt/b3lyp/geoms/mol2/5fg5fg-.out
 20 21 0 0 0
SMALL
GASTEIGER

@<TRIPOS>ATOM
      1 C          -2.0377   -1.7678    0.6222 C.ar    1  LIG1        0.0189
      2 C          -0.7947   -1.8083    0.0525 C.ar    1  LIG1        0.1376
      3 C          -0.3026   -0.5078   -0.3181 C.ar    1  LIG1        0.0617
      4 C          -1.1750    0.5131   -0.0001 C.ar    1  LIG1        0.0462
      5 S          -2.6150   -0.1373    0.7603 S.2     1  LIG1       -0.0912
      6 H          -2.6267   -2.6008    0.9750 H       1  LIG1        0.0731
      7 O          -0.1081   -2.9583   -0.1587 O.3     1  LIG1       -0.5051
      8 H           0.7771   -2.7138   -0.4791 H       1  LIG1        0.2922
      9 S           1.2370   -0.3614   -1.2031 S.3     1  LIG1       -0.1380
     10 H           1.8602    0.4586   -0.3284 H       1  LIG1        0.1072
     11 C          -1.0148    1.9428   -0.1900 C.ar    1  LIG1        0.0695
     12 C           0.0573    2.7439    0.1410 C.ar    1  LIG1        0.1452
     13 C          -0.1429    4.1304   -0.1786 C.ar    1  LIG1        0.0539
     14 C          -1.3622    4.3706   -0.7524 C.ar    1  LIG1       -0.0069
     15 S          -2.2866    2.9231   -0.9125 S.2     1  LIG1       -0.0912
     16 H          -1.7560    5.3193   -1.0878 H       1  LIG1        0.0706
     17 O           1.1786    2.2793    0.7517 O.3     1  LIG1       -0.5045
     18 H           1.7906    3.0328    0.8369 H       1  LIG1        0.2922
     19 S           1.1273    5.3506    0.1185 S.3     1  LIG1       -0.1386
     20 H           0.7537    5.7185    1.3654 H       1  LIG1        0.1072
@<TRIPOS>BOND
     1     9    10    1
     2     9     3    1
     3    16    14    1
     4    15    14   ar
     5    15    11   ar
     6    14    13   ar
     7     8     7    1
     8     3     4   ar
     9     3     2   ar
    10    11     4    1
    11    11    12   ar
    12    13    19    1
    13    13    12   ar
    14     7     2    1
    15     4     5   ar
    16     2     1   ar
    17    19    20    1
    18    12    17    1
    19     1     5   ar
    20     1     6    1
    21    17    18    1
