@<TRIPOS>MOLECULE
mol_data/opt/b3lyp/geoms/mol2/5fg5fg5fg5fg-.out
 38 41 0 0 0
SMALL
GASTEIGER

@<TRIPOS>ATOM
      1 C          -1.9846   -2.0082    0.2484 C.ar    1  LIG1        0.0189
      2 C          -0.7034   -1.9623   -0.2284 C.ar    1  LIG1        0.1376
      3 C          -0.1863   -0.6232   -0.3283 C.ar    1  LIG1        0.0617
      4 C          -1.0789    0.3370    0.1040 C.ar    1  LIG1        0.0462
      5 S          -2.5721   -0.4206    0.6308 S.2     1  LIG1       -0.0912
      6 H          -2.5968   -2.8832    0.4054 H       1  LIG1        0.0731
      7 O          -0.0015   -3.0656   -0.5897 O.3     1  LIG1       -0.5051
      8 H           0.9057   -2.7783   -0.7909 H       1  LIG1        0.2922
      9 S           1.4100   -0.3463   -1.0699 S.3     1  LIG1       -0.1380
     10 H           1.9618    0.3317   -0.0390 H       1  LIG1        0.1072
     11 C          -0.9105    1.7746    0.1847 C.ar    1  LIG1        0.0701
     12 C           0.1392    2.4970    0.7122 C.ar    1  LIG1        0.1458
     13 C          -0.0490    3.9175    0.6698 C.ar    1  LIG1        0.0623
     14 C          -1.2460    4.2907    0.0915 C.ar    1  LIG1        0.0468
     15 S          -2.1419    2.8736   -0.4187 S.2     1  LIG1       -0.0822
     16 O           1.2283    1.9156    1.2826 O.3     1  LIG1       -0.5045
     17 H           1.8381    2.6341    1.5321 H       1  LIG1        0.2922
     18 S           1.1324    4.9860    1.4689 S.3     1  LIG1       -0.1380
     19 H           1.4663    5.7166    0.3822 H       1  LIG1        0.1072
     20 C          -1.7695    5.6196   -0.1470 C.ar    1  LIG1        0.0702
     21 C          -1.1339    6.7152   -0.6950 C.ar    1  LIG1        0.1458
     22 C          -1.9765    7.8662   -0.8365 C.ar    1  LIG1        0.0623
     23 C          -3.2637    7.6570   -0.3839 C.ar    1  LIG1        0.0468
     24 S          -3.4344    6.0295    0.2393 S.2     1  LIG1       -0.0822
     25 O           0.1537    6.6884   -1.1265 O.3     1  LIG1       -0.5045
     26 H           0.3709    7.5870   -1.4364 H       1  LIG1        0.2922
     27 S          -1.3634    9.3113   -1.6804 S.3     1  LIG1       -0.1380
     28 H          -1.5079   10.1827   -0.6578 H       1  LIG1        0.1072
     29 C          -4.3739    8.5875   -0.3368 C.ar    1  LIG1        0.0696
     30 C          -4.3912    9.8843    0.1341 C.ar    1  LIG1        0.1452
     31 C          -5.6856   10.5026    0.0570 C.ar    1  LIG1        0.0539
     32 C          -6.6368    9.6732   -0.4733 C.ar    1  LIG1       -0.0069
     33 S          -5.9842    8.1303   -0.8837 S.2     1  LIG1       -0.0912
     34 H          -7.6803    9.8945   -0.6456 H       1  LIG1        0.0706
     35 O          -3.3065   10.5023    0.6658 O.3     1  LIG1       -0.5045
     36 H          -3.5777   11.4103    0.8942 H       1  LIG1        0.2922
     37 S          -5.9434   12.1937    0.5690 S.3     1  LIG1       -0.1386
     38 H          -6.2905   11.9532    1.8539 H       1  LIG1        0.1072
@<TRIPOS>BOND
     1    27    22    1
     2    27    28    1
     3    26    25    1
     4    25    21    1
     5     9     3    1
     6     9    10    1
     7    33    32   ar
     8    33    29   ar
     9    22    21   ar
    10    22    23   ar
    11     8     7    1
    12    21    20   ar
    13    34    32    1
    14     7     2    1
    15    32    31   ar
    16    15    14   ar
    17    15    11   ar
    18    23    29    1
    19    23    24   ar
    20    29    30   ar
    21     3     2   ar
    22     3     4   ar
    23     2     1   ar
    24    20    14    1
    25    20    24   ar
    26    31    30   ar
    27    31    37    1
    28    14    13   ar
    29     4    11    1
    30     4     5   ar
    31    30    35    1
    32    11    12   ar
    33     1     6    1
    34     1     5   ar
    35    19    18    1
    36    37    38    1
    37    35    36    1
    38    13    12   ar
    39    13    18    1
    40    12    16    1
    41    16    17    1
