@<TRIPOS>MOLECULE
mol_data/opt/b3lyp/geoms/mol2/5fh.out
 12 12 0 0 0
SMALL
GASTEIGER

@<TRIPOS>ATOM
      1 C          -2.1421   -1.7550    0.1130 C.ar    1  LIG1        0.0190
      2 C          -0.7771   -1.7446    0.0482 C.ar    1  LIG1        0.1444
      3 C          -0.2262   -0.4279   -0.1372 C.ar    1  LIG1        0.0737
      4 C          -1.1898    0.5402   -0.2096 C.ar    1  LIG1        0.0000
      5 S          -2.7770   -0.1394   -0.0532 S.2     1  LIG1       -0.0995
      6 H          -2.8017   -2.5985    0.2463 H       1  LIG1        0.0731
      7 H          -1.0617    1.6052   -0.3449 H       1  LIG1        0.0713
      8 O           0.0366   -2.8237    0.1416 O.3     1  LIG1       -0.5044
      9 H           0.9372   -2.4531    0.0582 H       1  LIG1        0.2922
     10 N           1.2015   -0.3187   -0.2164 N.pl3   1  LIG1       -0.3547
     11 H           1.5025    0.0647   -1.1083 H       1  LIG1        0.1424
     12 H           1.5765    0.2772    0.5166 H       1  LIG1        0.1424
@<TRIPOS>BOND
     1    11    10    1
     2     7     4    1
     3    10     3    1
     4    10    12    1
     5     4     3   ar
     6     4     5   ar
     7     3     2   ar
     8     5     1   ar
     9     2     1   ar
    10     2     8    1
    11     9     8    1
    12     1     6    1
