@<TRIPOS>MOLECULE
mol_data/opt/b3lyp/geoms/mol2/5fh5fh5fh5fh-.out
 42 45 0 0 0
SMALL
GASTEIGER

@<TRIPOS>ATOM
      1 C          -1.9017   -1.8731   -1.3721 C.ar    1  LIG1        0.0197
      2 C          -0.8582   -2.0124   -0.5072 C.ar    1  LIG1        0.1450
      3 C          -0.2869   -0.7693   -0.0656 C.ar    1  LIG1        0.0822
      4 C          -0.9392    0.3307   -0.5929 C.ar    1  LIG1        0.0538
      5 S          -2.2297   -0.1952   -1.6823 S.2     1  LIG1       -0.0904
      6 H          -2.5002   -2.6534   -1.8171 H       1  LIG1        0.0731
      7 O          -0.3696   -3.2128   -0.0640 O.3     1  LIG1       -0.5044
      8 H          -0.0477   -3.0638    0.8394 H       1  LIG1        0.2922
      9 N           0.7572   -0.8165    0.8765 N.pl3   1  LIG1       -0.3542
     10 H           1.4952   -1.4382    0.5524 H       1  LIG1        0.1425
     11 H           1.1720    0.0970    1.0392 H       1  LIG1        0.1425
     12 C          -0.7112    1.7420   -0.3661 C.ar    1  LIG1        0.0716
     13 C           0.4358    2.4216   -0.0178 C.ar    1  LIG1        0.1533
     14 C           0.2799    3.8293    0.1531 C.ar    1  LIG1        0.0828
     15 C          -1.0006    4.2745   -0.1057 C.ar    1  LIG1        0.0544
     16 S          -2.0305    2.9108   -0.5227 S.2     1  LIG1       -0.0814
     17 O           1.6660    1.8654    0.1754 O.3     1  LIG1       -0.5037
     18 H           2.2372    2.6415    0.3637 H       1  LIG1        0.2923
     19 N           1.4405    4.5608    0.5553 N.pl3   1  LIG1       -0.3542
     20 H           1.5370    5.4111    0.0012 H       1  LIG1        0.1425
     21 H           1.3654    4.8499    1.5293 H       1  LIG1        0.1425
     22 C          -1.5079    5.6261   -0.0794 C.ar    1  LIG1        0.0716
     23 C          -0.8694    6.8037   -0.4049 C.ar    1  LIG1        0.1533
     24 C          -1.6661    7.9799   -0.2620 C.ar    1  LIG1        0.0828
     25 C          -2.9588    7.7163    0.1427 C.ar    1  LIG1        0.0544
     26 S          -3.1747    5.9876    0.3822 S.2     1  LIG1       -0.0814
     27 O           0.4067    6.9176   -0.8620 O.3     1  LIG1       -0.5037
     28 H           0.4916    7.8716   -1.0760 H       1  LIG1        0.2923
     29 N          -1.0382    9.2247   -0.5716 N.pl3   1  LIG1       -0.3542
     30 H          -1.6606    9.8152   -1.1217 H       1  LIG1        0.1425
     31 H          -0.8060    9.7387    0.2765 H       1  LIG1        0.1425
     32 C          -4.0467    8.6471    0.3514 C.ar    1  LIG1        0.0710
     33 C          -4.3448    9.8064   -0.3317 C.ar    1  LIG1        0.1527
     34 C          -5.5206   10.4816    0.1311 C.ar    1  LIG1        0.0744
     35 C          -6.1296    9.8277    1.1666 C.ar    1  LIG1        0.0006
     36 S          -5.2627    8.3934    1.6072 S.2     1  LIG1       -0.0905
     37 H          -7.0319   10.1022    1.6952 H       1  LIG1        0.0713
     38 O          -3.6541   10.3073   -1.3905 O.3     1  LIG1       -0.5038
     39 H          -4.1649   11.1015   -1.6532 H       1  LIG1        0.2923
     40 N          -5.8919   11.6804   -0.5611 N.pl3   1  LIG1       -0.3547
     41 H          -6.8304   11.6211   -0.9466 H       1  LIG1        0.1424
     42 H          -5.8573   12.4964    0.0443 H       1  LIG1        0.1424
@<TRIPOS>BOND
     1     6     1    1
     2     5     1   ar
     3     5     4   ar
     4    39    38    1
     5    38    33    1
     6     1     2   ar
     7    30    29    1
     8    28    27    1
     9    41    40    1
    10    27    23    1
    11     4    12    1
    12     4     3   ar
    13    29    24    1
    14    29    31    1
    15    40    42    1
    16    40    34    1
    17    16    12   ar
    18    16    15   ar
    19     2     3   ar
    20     2     7    1
    21    23    24   ar
    22    23    22   ar
    23    12    13   ar
    24    33    34   ar
    25    33    32   ar
    26    24    25   ar
    27    15    22    1
    28    15    14   ar
    29    22    26   ar
    30     3     9    1
    31     7     8    1
    32    13    14   ar
    33    13    17    1
    34    20    19    1
    35    34    35   ar
    36    25    32    1
    37    25    26   ar
    38    14    19    1
    39    17    18    1
    40    32    36   ar
    41    10     9    1
    42    19    21    1
    43     9    11    1
    44    35    36   ar
    45    35    37    1
