@<TRIPOS>MOLECULE
mol_data/opt/b3lyp/geoms/mol2/5fh5fh5fh-5fh.out
 42 45 0 0 0
SMALL
GASTEIGER

@<TRIPOS>ATOM
      1 C          -2.1150   -2.0133   -0.2315 C.ar    1  LIG1        0.0197
      2 C          -0.7839   -2.0521    0.0569 C.ar    1  LIG1        0.1450
      3 C          -0.1429   -0.7655    0.0600 C.ar    1  LIG1        0.0822
      4 C          -1.0235    0.2670   -0.2062 C.ar    1  LIG1        0.0538
      5 S          -2.6414   -0.3806   -0.5099 S.2     1  LIG1       -0.0904
      6 H          -2.8084   -2.8397   -0.2679 H       1  LIG1        0.0731
      7 O          -0.0799   -3.1923    0.3365 O.3     1  LIG1       -0.5044
      8 H           0.6300   -2.9340    0.9464 H       1  LIG1        0.2922
      9 N           1.2205   -0.7050    0.4063 N.pl3   1  LIG1       -0.3542
     10 H           1.7625   -1.3309   -0.1862 H       1  LIG1        0.1425
     11 H           1.6033    0.2301    0.2958 H       1  LIG1        0.1425
     12 C          -0.7949    1.6958   -0.2534 C.ar    1  LIG1        0.0716
     13 C           0.3412    2.4184   -0.5479 C.ar    1  LIG1        0.1533
     14 C           0.1857    3.8362   -0.5121 C.ar    1  LIG1        0.0828
     15 C          -1.0878    4.2392   -0.1654 C.ar    1  LIG1        0.0544
     16 S          -2.0927    2.8300    0.1455 S.2     1  LIG1       -0.0814
     17 O           1.5592    1.8980   -0.8755 O.3     1  LIG1       -0.5037
     18 H           2.1320    2.6927   -0.9432 H       1  LIG1        0.2923
     19 N           1.3288    4.6175   -0.8641 N.pl3   1  LIG1       -0.3542
     20 H           1.2427    4.9782   -1.8131 H       1  LIG1        0.1425
     21 H           1.4152    5.4234   -0.2457 H       1  LIG1        0.1425
     22 C          -1.6078    5.5797   -0.0306 C.ar    1  LIG1        0.0716
     23 C          -0.9747    6.7256    0.4016 C.ar    1  LIG1        0.1533
     24 C          -1.8020    7.8876    0.4492 C.ar    1  LIG1        0.0828
     25 C          -3.0967    7.6528    0.0341 C.ar    1  LIG1        0.0544
     26 S          -3.2807    5.9706   -0.4419 S.2     1  LIG1       -0.0814
     27 O           0.3185    6.8144    0.8160 O.3     1  LIG1       -0.5037
     28 H           0.4303    7.7685    1.0182 H       1  LIG1        0.2923
     29 N          -1.2038    9.0849    0.9499 N.pl3   1  LIG1       -0.3542
     30 H          -1.4553    9.8820    0.3666 H       1  LIG1        0.1425
     31 H          -1.5363    9.2894    1.8909 H       1  LIG1        0.1425
     32 C          -4.1962    8.5877   -0.0558 C.ar    1  LIG1        0.0710
     33 C          -4.1749    9.9263   -0.3843 C.ar    1  LIG1        0.1527
     34 C          -5.4624   10.5542   -0.3930 C.ar    1  LIG1        0.0744
     35 C          -6.4731    9.6864   -0.0822 C.ar    1  LIG1        0.0006
     36 S          -5.8652    8.0981    0.2508 S.2     1  LIG1       -0.0905
     37 H          -7.5345    9.8851   -0.0272 H       1  LIG1        0.0713
     38 O          -3.0712   10.6457   -0.7227 O.3     1  LIG1       -0.5038
     39 H          -3.4252   11.5332   -0.9412 H       1  LIG1        0.2923
     40 N          -5.5031   11.9415   -0.7507 N.pl3   1  LIG1       -0.3547
     41 H          -6.1146   12.1109   -1.5445 H       1  LIG1        0.1424
     42 H          -5.8261   12.5234    0.0179 H       1  LIG1        0.1424
@<TRIPOS>BOND
     1    20    19    1
     2    41    40    1
     3    18    17    1
     4    39    38    1
     5    17    13    1
     6    19    14    1
     7    19    21    1
     8    40    34    1
     9    40    42    1
    10    38    33    1
    11    13    14   ar
    12    13    12   ar
    13    14    15   ar
    14     5     1   ar
    15     5     4   ar
    16    26    22   ar
    17    26    25   ar
    18    34    33   ar
    19    34    35   ar
    20    33    32   ar
    21     6     1    1
    22    12     4    1
    23    12    16   ar
    24     1     2   ar
    25     4     3   ar
    26    10     9    1
    27    15    22    1
    28    15    16   ar
    29    35    37    1
    30    35    36   ar
    31    32    25    1
    32    32    36   ar
    33    22    23   ar
    34    25    24   ar
    35     2     3   ar
    36     2     7    1
    37     3     9    1
    38    11     9    1
    39     7     8    1
    40    30    29    1
    41    23    24   ar
    42    23    27    1
    43    24    29    1
    44    27    28    1
    45    29    31    1
