@<TRIPOS>MOLECULE
mol_data/opt/b3lyp/geoms/mol2/5fh5fh-5fh-5fh-.out
 42 45 0 0 0
SMALL
GASTEIGER

@<TRIPOS>ATOM
      1 C          -2.1173   -2.0133   -0.2047 C.ar    1  LIG1        0.0197
      2 C          -0.7827   -2.0521    0.0674 C.ar    1  LIG1        0.1450
      3 C          -0.1415   -0.7656    0.0618 C.ar    1  LIG1        0.0822
      4 C          -1.0252    0.2668   -0.1943 C.ar    1  LIG1        0.0538
      5 S          -2.6468   -0.3807   -0.4778 S.2     1  LIG1       -0.0904
      6 H          -2.8111   -2.8396   -0.2321 H       1  LIG1        0.0731
      7 O          -0.0755   -3.1922    0.3391 O.3     1  LIG1       -0.5044
      8 H           0.6421   -2.9335    0.9399 H       1  LIG1        0.2922
      9 N           1.2260   -0.7051    0.3914 N.pl3   1  LIG1       -0.3542
     10 H           1.7606   -1.3311   -0.2075 H       1  LIG1        0.1425
     11 H           1.6074    0.2300    0.2758 H       1  LIG1        0.1425
     12 C          -0.7970    1.6956   -0.2453 C.ar    1  LIG1        0.0716
     13 C           0.3355    2.4178   -0.5543 C.ar    1  LIG1        0.1533
     14 C           0.1806    3.8356   -0.5179 C.ar    1  LIG1        0.0828
     15 C          -1.0885    4.2392   -0.1560 C.ar    1  LIG1        0.0544
     16 S          -2.0897    2.8302    0.1684 S.2     1  LIG1       -0.0814
     17 O           1.5493    1.8970   -0.8963 O.3     1  LIG1       -0.5037
     18 H           2.1214    2.6915   -0.9715 H       1  LIG1        0.2923
     19 N           1.3195    4.6165   -0.8843 N.pl3   1  LIG1       -0.3542
     20 H           1.2220    4.9766   -1.8325 H       1  LIG1        0.1425
     21 H           1.4136    5.4228   -0.2676 H       1  LIG1        0.1425
     22 C          -1.6068    5.5797   -0.0156 C.ar    1  LIG1        0.0716
     23 C          -0.9684    6.7261    0.4076 C.ar    1  LIG1        0.1533
     24 C          -1.7952    7.8881    0.4645 C.ar    1  LIG1        0.0828
     25 C          -3.0950    7.6528    0.0657 C.ar    1  LIG1        0.0544
     26 S          -3.2847    5.9702   -0.4065 S.2     1  LIG1       -0.0814
     27 O           0.3298    6.8154    0.8059 O.3     1  LIG1       -0.5037
     28 H           0.4440    7.7697    1.0057 H       1  LIG1        0.2923
     29 N          -1.1910    9.0858    0.9566 N.pl3   1  LIG1       -0.3542
     30 H          -1.4498    9.8824    0.3757 H       1  LIG1        0.1425
     31 H          -1.5116    9.2912    1.9015 H       1  LIG1        0.1425
     32 C          -4.1955    8.5876   -0.0113 C.ar    1  LIG1        0.0710
     33 C          -4.1783    9.9258   -0.3416 C.ar    1  LIG1        0.1527
     34 C          -5.4659   10.5537   -0.3348 C.ar    1  LIG1        0.0744
     35 C          -6.4725    9.6863   -0.0102 C.ar    1  LIG1        0.0006
     36 S          -5.8605    8.0984    0.3169 S.2     1  LIG1       -0.0905
     37 H          -7.5331    9.8851    0.0580 H       1  LIG1        0.0713
     38 O          -3.0790   10.6448   -0.6947 O.3     1  LIG1       -0.5038
     39 H          -3.4357   11.5319   -0.9100 H       1  LIG1        0.2923
     40 N          -5.5111   11.9405   -0.6937 N.pl3   1  LIG1       -0.3547
     41 H          -6.1327   12.1090   -1.4799 H       1  LIG1        0.1424
     42 H          -5.8243   12.5234    0.0782 H       1  LIG1        0.1424
@<TRIPOS>BOND
     1    20    19    1
     2    41    40    1
     3    18    17    1
     4    39    38    1
     5    17    13    1
     6    19    14    1
     7    19    21    1
     8    38    33    1
     9    40    34    1
    10    40    42    1
    11    13    14   ar
    12    13    12   ar
    13    14    15   ar
    14     5     1   ar
    15     5     4   ar
    16    26    22   ar
    17    26    25   ar
    18    33    34   ar
    19    33    32   ar
    20    34    35   ar
    21    12     4    1
    22    12    16   ar
    23     6     1    1
    24    10     9    1
    25     1     2   ar
    26     4     3   ar
    27    15    22    1
    28    15    16   ar
    29    22    23   ar
    30    32    25    1
    31    32    36   ar
    32    35    37    1
    33    35    36   ar
    34     3     2   ar
    35     3     9    1
    36    25    24   ar
    37     2     7    1
    38    11     9    1
    39     7     8    1
    40    30    29    1
    41    23    24   ar
    42    23    27    1
    43    24    29    1
    44    27    28    1
    45    29    31    1
