@<TRIPOS>MOLECULE
mol_data/opt/b3lyp/geoms/mol2/5fh5fh-.out
 22 23 0 0 0
SMALL
GASTEIGER

@<TRIPOS>ATOM
      1 C          -2.1086   -1.8585    0.4990 C.ar    1  LIG1        0.0197
      2 C          -0.7958   -1.8919    0.1232 C.ar    1  LIG1        0.1450
      3 C          -0.2435   -0.5975   -0.1612 C.ar    1  LIG1        0.0822
      4 C          -1.1448    0.4294    0.0267 C.ar    1  LIG1        0.0537
      5 S          -2.6911   -0.2162    0.5587 S.2     1  LIG1       -0.0904
      6 H          -2.7537   -2.6833    0.7597 H       1  LIG1        0.0731
      7 O          -0.0269   -3.0004   -0.0006 O.3     1  LIG1       -0.5044
      8 H           0.8632   -2.6485   -0.2024 H       1  LIG1        0.2922
      9 N           1.1167   -0.5464   -0.5919 N.pl3   1  LIG1       -0.3542
     10 H           1.1767   -0.4112   -1.5996 H       1  LIG1        0.1425
     11 H           1.6055    0.2309   -0.1508 H       1  LIG1        0.1425
     12 C          -0.9394    1.8531   -0.1483 C.ar    1  LIG1        0.0710
     13 C           0.1819    2.6105    0.1075 C.ar    1  LIG1        0.1527
     14 C           0.0323    4.0071   -0.1768 C.ar    1  LIG1        0.0744
     15 C          -1.2153    4.3193   -0.6419 C.ar    1  LIG1        0.0006
     16 S          -2.2144    2.9081   -0.7644 S.2     1  LIG1       -0.0905
     17 H          -1.6045    5.2891   -0.9194 H       1  LIG1        0.0713
     18 O           1.3542    2.1477    0.6207 O.3     1  LIG1       -0.5038
     19 H           1.9053    2.9517    0.7174 H       1  LIG1        0.2923
     20 N           1.1616    4.8484    0.0930 N.pl3   1  LIG1       -0.3547
     21 H           1.5321    5.2702   -0.7547 H       1  LIG1        0.1424
     22 H           0.9289    5.6008    0.7353 H       1  LIG1        0.1424
@<TRIPOS>BOND
     1    10     9    1
     2    17    15    1
     3    16    15   ar
     4    16    12   ar
     5    21    20    1
     6    15    14   ar
     7     9     3    1
     8     9    11    1
     9     8     7    1
    10    14    20    1
    11    14    13   ar
    12     3     4   ar
    13     3     2   ar
    14    12     4    1
    15    12    13   ar
    16     7     2    1
    17     4     5   ar
    18    20    22    1
    19    13    18    1
    20     2     1   ar
    21     1     5   ar
    22     1     6    1
    23    18    19    1
