@<TRIPOS>MOLECULE
mol_data/opt/b3lyp/geoms/mol2/5fh5fh-5fh5fh-.out
 42 45 0 0 0
SMALL
GASTEIGER

@<TRIPOS>ATOM
      1 C          -2.1234   -2.0135   -0.1723 C.ar    1  LIG1        0.0197
      2 C          -0.7845   -2.0526    0.0779 C.ar    1  LIG1        0.1450
      3 C          -0.1427   -0.7665    0.0583 C.ar    1  LIG1        0.0822
      4 C          -1.0297    0.2659   -0.1861 C.ar    1  LIG1        0.0538
      5 S          -2.6561   -0.3812   -0.4410 S.2     1  LIG1       -0.0904
      6 H          -2.8183   -2.8393   -0.1859 H       1  LIG1        0.0731
      7 O          -0.0737   -3.1921    0.3416 O.3     1  LIG1       -0.5044
      8 H           0.6561   -2.9311    0.9264 H       1  LIG1        0.2922
      9 N           1.2304   -0.7066    0.3649 N.pl3   1  LIG1       -0.3542
     10 H           1.7548   -1.3310   -0.2447 H       1  LIG1        0.1425
     11 H           1.6097    0.2287    0.2442 H       1  LIG1        0.1425
     12 C          -0.8014    1.6944   -0.2447 C.ar    1  LIG1        0.0716
     13 C           0.3264    2.4151   -0.5738 C.ar    1  LIG1        0.1533
     14 C           0.1727    3.8331   -0.5391 C.ar    1  LIG1        0.0828
     15 C          -1.0903    4.2383   -0.1581 C.ar    1  LIG1        0.0544
     16 S          -2.0868    2.8309    0.1863 S.2     1  LIG1       -0.0814
     17 O           1.5344    1.8927   -0.9333 O.3     1  LIG1       -0.5037
     18 H           2.1056    2.6868   -1.0197 H       1  LIG1        0.2923
     19 N           1.3059    4.6124   -0.9256 N.pl3   1  LIG1       -0.3542
     20 H           1.1941    4.9691   -1.8735 H       1  LIG1        0.1425
     21 H           1.4098    5.4207   -0.3132 H       1  LIG1        0.1425
     22 C          -1.6057    5.5796   -0.0136 C.ar    1  LIG1        0.0716
     23 C          -0.9600    6.7267    0.3962 C.ar    1  LIG1        0.1533
     24 C          -1.7851    7.8894    0.4627 C.ar    1  LIG1        0.0828
     25 C          -3.0911    7.6538    0.0850 C.ar    1  LIG1        0.0544
     26 S          -3.2893    5.9700   -0.3793 S.2     1  LIG1       -0.0814
     27 O           0.3443    6.8164    0.7737 O.3     1  LIG1       -0.5037
     28 H           0.4621    7.7711    0.9692 H       1  LIG1        0.2923
     29 N          -1.1725    9.0882    0.9418 N.pl3   1  LIG1       -0.3542
     30 H          -1.4399    9.8833    0.3627 H       1  LIG1        0.1425
     31 H          -1.4785    9.2966    1.8909 H       1  LIG1        0.1425
     32 C          -4.1922    8.5891    0.0228 C.ar    1  LIG1        0.0710
     33 C          -4.1794    9.9263   -0.3114 C.ar    1  LIG1        0.1527
     34 C          -5.4662   10.5552   -0.2859 C.ar    1  LIG1        0.0744
     35 C          -6.4682    9.6894    0.0571 C.ar    1  LIG1        0.0006
     36 S          -5.8520    8.1019    0.3789 S.2     1  LIG1       -0.0905
     37 H          -7.5274    9.8892    0.1417 H       1  LIG1        0.0713
     38 O          -3.0854   10.6436   -0.6839 O.3     1  LIG1       -0.5038
     39 H          -3.4448   11.5305   -0.8956 H       1  LIG1        0.2923
     40 N          -5.5163   11.9410   -0.6479 N.pl3   1  LIG1       -0.3547
     41 H          -6.1492   12.1076   -1.4254 H       1  LIG1        0.1424
     42 H          -5.8180   12.5262    0.1269 H       1  LIG1        0.1424
@<TRIPOS>BOND
     1    20    19    1
     2    41    40    1
     3    18    17    1
     4    17    13    1
     5    19    14    1
     6    19    21    1
     7    39    38    1
     8    38    33    1
     9    40    34    1
    10    40    42    1
    11    13    14   ar
    12    13    12   ar
    13    14    15   ar
    14     5     4   ar
    15     5     1   ar
    16    26    22   ar
    17    26    25   ar
    18    33    34   ar
    19    33    32   ar
    20    34    35   ar
    21    10     9    1
    22    12     4    1
    23    12    16   ar
    24     4     3   ar
    25     6     1    1
    26     1     2   ar
    27    15    22    1
    28    15    16   ar
    29    22    23   ar
    30    32    25    1
    31    32    36   ar
    32    35    37    1
    33    35    36   ar
    34     3     2   ar
    35     3     9    1
    36     2     7    1
    37    25    24   ar
    38    11     9    1
    39     7     8    1
    40    30    29    1
    41    23    24   ar
    42    23    27    1
    43    24    29    1
    44    27    28    1
    45    29    31    1
