@<TRIPOS>MOLECULE
mol_data/opt/b3lyp/geoms/mol2/5fh5fh-5fh.out
 32 34 0 0 0
SMALL
GASTEIGER

@<TRIPOS>ATOM
      1 C          -2.0773   -1.8890   -0.8052 C.ar    1  LIG1        0.0197
      2 C          -0.8484   -1.9708   -0.2228 C.ar    1  LIG1        0.1450
      3 C          -0.2306   -0.6983    0.0349 C.ar    1  LIG1        0.0822
      4 C          -1.0326    0.3646   -0.3403 C.ar    1  LIG1        0.0538
      5 S          -2.5325   -0.2324   -1.0635 S.2     1  LIG1       -0.0904
      6 H          -2.7378   -2.7003   -1.0708 H       1  LIG1        0.0731
      7 O          -0.2222   -3.1433    0.1096 O.3     1  LIG1       -0.5044
      8 H           0.2916   -2.9667    0.9136 H       1  LIG1        0.2922
      9 N           1.0136   -0.6825    0.6890 N.pl3   1  LIG1       -0.3542
     10 H           1.6640   -1.3131    0.2255 H       1  LIG1        0.1425
     11 H           1.4324    0.2436    0.7036 H       1  LIG1        0.1425
     12 C          -0.8048    1.7882   -0.2119 C.ar    1  LIG1        0.0716
     13 C           0.3681    2.5103   -0.1790 C.ar    1  LIG1        0.1533
     14 C           0.2101    3.9181   -0.0061 C.ar    1  LIG1        0.0828
     15 C          -1.1085    4.3175    0.0546 C.ar    1  LIG1        0.0544
     16 S          -2.1613    2.9139   -0.0579 S.2     1  LIG1       -0.0814
     17 O           1.6259    1.9954   -0.2922 O.3     1  LIG1       -0.5037
     18 H           2.1993    2.7921   -0.2730 H       1  LIG1        0.2923
     19 N           1.4072    4.6963    0.0681 N.pl3   1  LIG1       -0.3542
     20 H           1.3302    5.5279   -0.5162 H       1  LIG1        0.1425
     21 H           1.5722    5.0167    1.0209 H       1  LIG1        0.1425
     22 C          -1.6406    5.6572    0.1717 C.ar    1  LIG1        0.0710
     23 C          -1.1560    6.8352   -0.3546 C.ar    1  LIG1        0.1527
     24 C          -1.9477    7.9900   -0.0516 C.ar    1  LIG1        0.0744
     25 C          -3.0504    7.6904    0.7002 C.ar    1  LIG1        0.0006
     26 S          -3.1218    5.9990    1.0718 S.2     1  LIG1       -0.0905
     27 H          -3.8216    8.3595    1.0561 H       1  LIG1        0.0713
     28 O          -0.0514    6.9619   -1.1388 O.3     1  LIG1       -0.5038
     29 H          -0.0344    7.9136   -1.3715 H       1  LIG1        0.2923
     30 N          -1.5043    9.2399   -0.5961 N.pl3   1  LIG1       -0.3547
     31 H          -2.2183    9.6773   -1.1719 H       1  LIG1        0.1424
     32 H          -1.2460    9.9015    0.1314 H       1  LIG1        0.1424
@<TRIPOS>BOND
     1    29    28    1
     2    31    30    1
     3    28    23    1
     4     6     1    1
     5     5     1   ar
     6     5     4   ar
     7     1     2   ar
     8    30    24    1
     9    30    32    1
    10    20    19    1
    11    23    24   ar
    12    23    22   ar
    13     4    12    1
    14     4     3   ar
    15    17    18    1
    16    17    13    1
    17     2     3   ar
    18     2     7    1
    19    12    13   ar
    20    12    16   ar
    21    13    14   ar
    22    16    15   ar
    23    24    25   ar
    24    14    15   ar
    25    14    19    1
    26     3     9    1
    27    15    22    1
    28    19    21    1
    29     7     8    1
    30    22    26   ar
    31    10     9    1
    32     9    11    1
    33    25    27    1
    34    25    26   ar
