@<TRIPOS>MOLECULE
mol_data/opt/b3lyp/geoms/mol2/5fh5fh-5fh-.out
 32 34 0 0 0
SMALL
GASTEIGER

@<TRIPOS>ATOM
      1 C          -2.1359   -1.9442   -0.1852 C.ar    1  LIG1        0.0197
      2 C          -0.8257   -1.9596    0.1883 C.ar    1  LIG1        0.1450
      3 C          -0.1937   -0.6682    0.1787 C.ar    1  LIG1        0.0822
      4 C          -1.0628    0.3438   -0.1861 C.ar    1  LIG1        0.0538
      5 S          -2.6538   -0.3300   -0.5656 S.2     1  LIG1       -0.0904
      6 H          -2.8193   -2.7783   -0.2328 H       1  LIG1        0.0731
      7 O          -0.1345   -3.0833    0.5556 O.3     1  LIG1       -0.5044
      8 H           0.5157   -2.8042    1.2200 H       1  LIG1        0.2922
      9 N           1.1425   -0.5784    0.6080 N.pl3   1  LIG1       -0.3542
     10 H           1.7211   -1.2482    0.1058 H       1  LIG1        0.1425
     11 H           1.5349    0.3473    0.4577 H       1  LIG1        0.1425
     12 C          -0.8408    1.7716   -0.2780 C.ar    1  LIG1        0.0716
     13 C           0.3063    2.4913   -0.5328 C.ar    1  LIG1        0.1533
     14 C           0.1397    3.9084   -0.5629 C.ar    1  LIG1        0.0828
     15 C          -1.1549    4.3126   -0.3117 C.ar    1  LIG1        0.0544
     16 S          -2.1669    2.9093   -0.0035 S.2     1  LIG1       -0.0814
     17 O           1.5444    1.9673   -0.7658 O.3     1  LIG1       -0.5037
     18 H           2.1180    2.7615   -0.8285 H       1  LIG1        0.2923
     19 N           1.2979    4.6862   -0.8707 N.pl3   1  LIG1       -0.3542
     20 H           1.2701    5.0149   -1.8345 H       1  LIG1        0.1425
     21 H           1.3456    5.5105   -0.2733 H       1  LIG1        0.1425
     22 C          -1.6906    5.6552   -0.2656 C.ar    1  LIG1        0.0710
     23 C          -1.0927    6.8180    0.1701 C.ar    1  LIG1        0.1527
     24 C          -1.9259    7.9801    0.0879 C.ar    1  LIG1        0.0744
     25 C          -3.1723    7.7013   -0.4017 C.ar    1  LIG1        0.0006
     26 S          -3.3361    6.0209   -0.7943 S.2     1  LIG1       -0.0905
     27 H          -4.0000    8.3798   -0.5551 H       1  LIG1        0.0713
     28 O           0.1633    6.9233    0.6842 O.3     1  LIG1       -0.5038
     29 H           0.2407    7.8691    0.9283 H       1  LIG1        0.2923
     30 N          -1.3625    9.2148    0.5499 N.pl3   1  LIG1       -0.3547
     31 H          -1.2839    9.8998   -0.1973 H       1  LIG1        0.1424
     32 H          -1.9183    9.6307    1.2922 H       1  LIG1        0.1424
@<TRIPOS>BOND
     1    20    19    1
     2    19    14    1
     3    19    21    1
     4    18    17    1
     5    26    25   ar
     6    26    22   ar
     7    17    13    1
     8     5     4   ar
     9     5     1   ar
    10    14    13   ar
    11    14    15   ar
    12    27    25    1
    13    13    12   ar
    14    25    24   ar
    15    15    22    1
    16    15    16   ar
    17    12     4    1
    18    12    16   ar
    19    22    23   ar
    20     6     1    1
    21    31    30    1
    22     4     3   ar
    23     1     2   ar
    24    24    23   ar
    25    24    30    1
    26    10     9    1
    27    23    28    1
    28     3     2   ar
    29     3     9    1
    30     2     7    1
    31    11     9    1
    32    30    32    1
    33     7     8    1
    34    28    29    1
