@<TRIPOS>MOLECULE
mol_data/opt/b3lyp/geoms/mol2/5fh5fh5fh.out
 32 34 0 0 0
SMALL
GASTEIGER

@<TRIPOS>ATOM
      1 C          -2.0817   -2.0120    0.2213 C.ar    1  LIG1        0.0197
      2 C          -0.7859   -1.9877   -0.2102 C.ar    1  LIG1        0.1450
      3 C          -0.2312   -0.6669   -0.3014 C.ar    1  LIG1        0.0822
      4 C          -1.1111    0.3195    0.0944 C.ar    1  LIG1        0.0538
      5 S          -2.6431   -0.3997    0.5769 S.2     1  LIG1       -0.0904
      6 H          -2.7244   -2.8661    0.3701 H       1  LIG1        0.0731
      7 O          -0.0340   -3.0633   -0.5475 O.3     1  LIG1       -0.5044
      8 H           0.8516   -2.6850   -0.7205 H       1  LIG1        0.2922
      9 N           1.1089   -0.5528   -0.7791 N.pl3   1  LIG1       -0.3542
     10 H           1.1244   -0.2731   -1.7585 H       1  LIG1        0.1425
     11 H           1.6187    0.1560   -0.2535 H       1  LIG1        0.1425
     12 C          -0.8998    1.7501    0.1521 C.ar    1  LIG1        0.0716
     13 C           0.2415    2.4568    0.4608 C.ar    1  LIG1        0.1533
     14 C           0.0903    3.8771    0.4525 C.ar    1  LIG1        0.0828
     15 C          -1.1826    4.2876    0.1148 C.ar    1  LIG1        0.0544
     16 S          -2.1966    2.8907   -0.2167 S.2     1  LIG1       -0.0814
     17 O           1.4445    1.9199    0.8023 O.3     1  LIG1       -0.5037
     18 H           2.0247    2.7037    0.9117 H       1  LIG1        0.2923
     19 N           1.2331    4.6497    0.8240 N.pl3   1  LIG1       -0.3542
     20 H           1.3449    5.4480    0.2004 H       1  LIG1        0.1425
     21 H           1.1300    5.0199    1.7675 H       1  LIG1        0.1425
     22 C          -1.6934    5.6361   -0.0000 C.ar    1  LIG1        0.0710
     23 C          -1.0515    6.7757   -0.4342 C.ar    1  LIG1        0.1527
     24 C          -1.8687    7.9523   -0.4343 C.ar    1  LIG1        0.0744
     25 C          -3.1455    7.7064   -0.0099 C.ar    1  LIG1        0.0006
     26 S          -3.3602    6.0413    0.4205 S.2     1  LIG1       -0.0905
     27 H          -3.9689    8.4016    0.0773 H       1  LIG1        0.0713
     28 O           0.2327    6.8464   -0.8776 O.3     1  LIG1       -0.5038
     29 H           0.3394    7.7827   -1.1465 H       1  LIG1        0.2923
     30 N          -1.2590    9.1637   -0.8984 N.pl3   1  LIG1       -0.3547
     31 H          -1.7671    9.5691   -1.6796 H       1  LIG1        0.1424
     32 H          -1.2053    9.8672   -0.1664 H       1  LIG1        0.1424
@<TRIPOS>BOND
     1    10     9    1
     2    31    30    1
     3    29    28    1
     4    30    24    1
     5    30    32    1
     6    28    23    1
     7     9     3    1
     8     9    11    1
     9     8     7    1
    10     7     2    1
    11    24    23   ar
    12    24    25   ar
    13    23    22   ar
    14     3     2   ar
    15     3     4   ar
    16    16    15   ar
    17    16    12   ar
    18     2     1   ar
    19    25    27    1
    20    25    26   ar
    21    22    15    1
    22    22    26   ar
    23     4    12    1
    24     4     5   ar
    25    15    14   ar
    26    12    13   ar
    27    20    19    1
    28     1     6    1
    29     1     5   ar
    30    14    13   ar
    31    14    19    1
    32    13    17    1
    33    17    18    1
    34    19    21    1
