@<TRIPOS>MOLECULE
mol_data/opt/b3lyp/geoms/mol2/5fh5fh-5fh5fh.out
 42 45 0 0 0
SMALL
GASTEIGER

@<TRIPOS>ATOM
      1 C          -2.1895   -1.9587    0.0725 C.ar    1  LIG1        0.0197
      2 C          -0.8594   -2.0019    0.3654 C.ar    1  LIG1        0.1450
      3 C          -0.1940   -0.7308    0.2773 C.ar    1  LIG1        0.0822
      4 C          -1.0548    0.2963   -0.0641 C.ar    1  LIG1        0.0538
      5 S          -2.6846   -0.3405   -0.3233 S.2     1  LIG1       -0.0904
      6 H          -2.8984   -2.7723    0.0946 H       1  LIG1        0.0731
      7 O          -0.1776   -3.1325    0.7270 O.3     1  LIG1       -0.5044
      8 H           0.5361   -2.8455    1.3194 H       1  LIG1        0.2922
      9 N           1.1700   -0.6711    0.6207 N.pl3   1  LIG1       -0.3542
     10 H           1.7001   -1.3491    0.0770 H       1  LIG1        0.1425
     11 H           1.5706    0.2459    0.4425 H       1  LIG1        0.1425
     12 C          -0.7982    1.7129   -0.2160 C.ar    1  LIG1        0.0716
     13 C           0.3510    2.3891   -0.5644 C.ar    1  LIG1        0.1533
     14 C           0.2229    3.8082   -0.6357 C.ar    1  LIG1        0.0828
     15 C          -1.0427    4.2610   -0.3212 C.ar    1  LIG1        0.0544
     16 S          -2.0728    2.8988    0.0974 S.2     1  LIG1       -0.0814
     17 O           1.5578    1.8215   -0.8526 O.3     1  LIG1       -0.5037
     18 H           2.1454    2.5976   -0.9823 H       1  LIG1        0.2923
     19 N           1.3810    4.5372   -1.0463 N.pl3   1  LIG1       -0.3542
     20 H           1.2983    4.8332   -2.0177 H       1  LIG1        0.1425
     21 H           1.4916    5.3808   -0.4852 H       1  LIG1        0.1425
     22 C          -1.5367    5.6172   -0.2875 C.ar    1  LIG1        0.0716
     23 C          -0.8765    6.7796    0.0494 C.ar    1  LIG1        0.1533
     24 C          -1.6698    7.9644   -0.0212 C.ar    1  LIG1        0.0828
     25 C          -2.9803    7.7222   -0.3789 C.ar    1  LIG1        0.0544
     26 S          -3.2193    6.0035   -0.6648 S.2     1  LIG1       -0.0814
     27 O           0.4187    6.8709    0.4563 O.3     1  LIG1       -0.5037
     28 H           0.5194    7.8168    0.6976 H       1  LIG1        0.2923
     29 N          -1.0209    9.1948    0.3024 N.pl3   1  LIG1       -0.3542
     30 H          -0.8199    9.7349   -0.5376 H       1  LIG1        0.1425
     31 H          -1.6171    9.7704    0.8956 H       1  LIG1        0.1425
     32 C          -4.0688    8.6662   -0.5101 C.ar    1  LIG1        0.0710
     33 C          -4.3297    9.8024    0.2251 C.ar    1  LIG1        0.1527
     34 C          -5.5189   10.4999   -0.1641 C.ar    1  LIG1        0.0744
     35 C          -6.1756    9.8861   -1.1951 C.ar    1  LIG1        0.0006
     36 S          -5.3378    8.4636   -1.7219 S.2     1  LIG1       -0.0905
     37 H          -7.0973   10.1842   -1.6754 H       1  LIG1        0.0713
     38 O          -3.5917   10.2609    1.2713 O.3     1  LIG1       -0.5038
     39 H          -4.0860   11.0472    1.5842 H       1  LIG1        0.2923
     40 N          -5.8537   11.6752    0.5847 N.pl3   1  LIG1       -0.3547
     41 H          -5.8384   12.5121    0.0077 H       1  LIG1        0.1424
     42 H          -6.7760   11.6070    1.0059 H       1  LIG1        0.1424
@<TRIPOS>BOND
     1    20    19    1
     2    36    35   ar
     3    36    32   ar
     4    37    35    1
     5    35    34   ar
     6    19    14    1
     7    19    21    1
     8    18    17    1
     9    17    13    1
    10    26    25   ar
    11    26    22   ar
    12    14    13   ar
    13    14    15   ar
    14    13    12   ar
    15    30    29    1
    16    32    25    1
    17    32    33   ar
    18    25    24   ar
    19     5     4   ar
    20     5     1   ar
    21    15    22    1
    22    15    16   ar
    23    22    23   ar
    24    12     4    1
    25    12    16   ar
    26    34    33   ar
    27    34    40    1
    28     4     3   ar
    29    24    23   ar
    30    24    29    1
    31    41    40    1
    32    23    27    1
    33     1     6    1
    34     1     2   ar
    35    10     9    1
    36    33    38    1
    37     3     2   ar
    38     3     9    1
    39    29    31    1
    40     2     7    1
    41    11     9    1
    42    27    28    1
    43    40    42    1
    44     7     8    1
    45    38    39    1
