@<TRIPOS>MOLECULE
mol_data/opt/b3lyp/geoms/mol2/5fh5fh5fh-5fh-.out
 42 45 0 0 0
SMALL
GASTEIGER

@<TRIPOS>ATOM
      1 C          -2.0519   -2.0962   -0.3050 C.ar    1  LIG1        0.0197
      2 C          -0.7399   -2.0771    0.0744 C.ar    1  LIG1        0.1450
      3 C          -0.1772   -0.7585    0.1455 C.ar    1  LIG1        0.0822
      4 C          -1.0686    0.2322   -0.2122 C.ar    1  LIG1        0.0538
      5 S          -2.6212   -0.4808   -0.6346 S.2     1  LIG1       -0.0904
      6 H          -2.7036   -2.9476   -0.4280 H       1  LIG1        0.0731
      7 O           0.0215   -3.1556    0.3808 O.3     1  LIG1       -0.5044
      8 H           0.9129   -2.7785    0.5247 H       1  LIG1        0.2922
      9 N           1.1810   -0.6496    0.5719 N.pl3   1  LIG1       -0.3542
     10 H           1.6743    0.0517    0.0210 H       1  LIG1        0.1425
     11 H           1.2334   -0.3577    1.5466 H       1  LIG1        0.1425
     12 C          -0.8550    1.6620   -0.2730 C.ar    1  LIG1        0.0716
     13 C           0.2765    2.3666   -0.6212 C.ar    1  LIG1        0.1533
     14 C           0.1317    3.7868   -0.6009 C.ar    1  LIG1        0.0828
     15 C          -1.1258    4.2018   -0.2119 C.ar    1  LIG1        0.0544
     16 S          -2.1331    2.8057    0.1494 S.2     1  LIG1       -0.0814
     17 O           1.4642    1.8284   -1.0116 O.3     1  LIG1       -0.5037
     18 H           2.0403    2.6127   -1.1390 H       1  LIG1        0.2923
     19 N           1.2617    4.5562   -1.0161 N.pl3   1  LIG1       -0.3542
     20 H           1.1217    4.9256   -1.9554 H       1  LIG1        0.1425
     21 H           1.3945    5.3574   -0.3998 H       1  LIG1        0.1425
     22 C          -1.6265    5.5490   -0.0691 C.ar    1  LIG1        0.0716
     23 C          -0.9651    6.6895    0.3341 C.ar    1  LIG1        0.1533
     24 C          -1.7769    7.8617    0.4024 C.ar    1  LIG1        0.0828
     25 C          -3.0874    7.6395    0.0323 C.ar    1  LIG1        0.0544
     26 S          -3.3077    5.9569   -0.4255 S.2     1  LIG1       -0.0814
     27 O           0.3416    6.7656    0.7037 O.3     1  LIG1       -0.5037
     28 H           0.4704    7.7194    0.8977 H       1  LIG1        0.2923
     29 N          -1.1476    9.0545    0.8744 N.pl3   1  LIG1       -0.3542
     30 H          -1.4045    9.8501    0.2914 H       1  LIG1        0.1425
     31 H          -1.4496    9.2723    1.8227 H       1  LIG1        0.1425
     32 C          -4.1773    8.5878   -0.0297 C.ar    1  LIG1        0.0710
     33 C          -4.1488    9.9232   -0.3707 C.ar    1  LIG1        0.1527
     34 C          -5.4280   10.5677   -0.3452 C.ar    1  LIG1        0.0744
     35 C          -6.4392    9.7157    0.0047 C.ar    1  LIG1        0.0006
     36 S          -5.8419    8.1224    0.3326 S.2     1  LIG1       -0.0905
     37 H          -7.4957    9.9287    0.0915 H       1  LIG1        0.0713
     38 O          -3.0476   10.6250   -0.7498 O.3     1  LIG1       -0.5038
     39 H          -3.3969   11.5149   -0.9665 H       1  LIG1        0.2923
     40 N          -5.4618   11.9520   -0.7142 N.pl3   1  LIG1       -0.3547
     41 H          -6.0968   12.1232   -1.4889 H       1  LIG1        0.1424
     42 H          -5.7503   12.5456    0.0592 H       1  LIG1        0.1424
@<TRIPOS>BOND
     1    20    19    1
     2    41    40    1
     3    18    17    1
     4    19    14    1
     5    19    21    1
     6    17    13    1
     7    39    38    1
     8    38    33    1
     9    40    34    1
    10    40    42    1
    11     5     1   ar
    12     5     4   ar
    13    13    14   ar
    14    13    12   ar
    15    14    15   ar
    16     6     1    1
    17    26    22   ar
    18    26    25   ar
    19    33    34   ar
    20    33    32   ar
    21    34    35   ar
    22     1     2   ar
    23    12     4    1
    24    12    16   ar
    25     4     3   ar
    26    15    22    1
    27    15    16   ar
    28    22    23   ar
    29    32    25    1
    30    32    36   ar
    31    35    37    1
    32    35    36   ar
    33    10     9    1
    34    25    24   ar
    35     2     3   ar
    36     2     7    1
    37     3     9    1
    38    30    29    1
    39    23    24   ar
    40    23    27    1
    41     7     8    1
    42    24    29    1
    43     9    11    1
    44    27    28    1
    45    29    31    1
