@<TRIPOS>MOLECULE
mol_data/opt/b3lyp/geoms/mol2/5fh5fh-5fh-5fh.out
 42 45 0 0 0
SMALL
GASTEIGER

@<TRIPOS>ATOM
      1 C          -2.1160   -2.0130   -0.2129 C.ar    1  LIG1        0.0197
      2 C          -0.7819   -2.0520    0.0616 C.ar    1  LIG1        0.1450
      3 C          -0.1409   -0.7654    0.0593 C.ar    1  LIG1        0.0822
      4 C          -1.0243    0.2673   -0.1969 C.ar    1  LIG1        0.0538
      5 S          -2.6452   -0.3800   -0.4845 S.2     1  LIG1       -0.0904
      6 H          -2.8096   -2.8394   -0.2429 H       1  LIG1        0.0731
      7 O          -0.0750   -3.1924    0.3330 O.3     1  LIG1       -0.5044
      8 H           0.6413   -2.9346    0.9355 H       1  LIG1        0.2922
      9 N           1.2260   -0.7052    0.3915 N.pl3   1  LIG1       -0.3542
     10 H           1.7618   -1.3303   -0.2073 H       1  LIG1        0.1425
     11 H           1.6075    0.2301    0.2781 H       1  LIG1        0.1425
     12 C          -0.7962    1.6962   -0.2452 C.ar    1  LIG1        0.0716
     13 C           0.3367    2.4191   -0.5509 C.ar    1  LIG1        0.1533
     14 C           0.1815    3.8369   -0.5126 C.ar    1  LIG1        0.0828
     15 C          -1.0884    4.2396   -0.1524 C.ar    1  LIG1        0.0544
     16 S          -2.0899    2.8299    0.1679 S.2     1  LIG1       -0.0814
     17 O           1.5513    1.8990   -0.8912 O.3     1  LIG1       -0.5037
     18 H           2.1234    2.6938   -0.9643 H       1  LIG1        0.2923
     19 N           1.3208    4.6185   -0.8757 N.pl3   1  LIG1       -0.3542
     20 H           1.2251    4.9797   -1.8236 H       1  LIG1        0.1425
     21 H           1.4135    5.4241   -0.2578 H       1  LIG1        0.1425
     22 C          -1.6072    5.5798   -0.0111 C.ar    1  LIG1        0.0716
     23 C          -0.9699    6.7256    0.4152 C.ar    1  LIG1        0.1533
     24 C          -1.7968    7.8874    0.4723 C.ar    1  LIG1        0.0828
     25 C          -3.0958    7.6526    0.0706 C.ar    1  LIG1        0.0544
     26 S          -3.2844    5.9707   -0.4047 S.2     1  LIG1       -0.0814
     27 O           0.3276    6.8144    0.8163 O.3     1  LIG1       -0.5037
     28 H           0.4412    7.7683    1.0180 H       1  LIG1        0.2923
     29 N          -1.1938    9.0844    0.9676 N.pl3   1  LIG1       -0.3542
     30 H          -1.4517    9.8820    0.3878 H       1  LIG1        0.1425
     31 H          -1.5164    9.2879    1.9123 H       1  LIG1        0.1425
     32 C          -4.1964    8.5873   -0.0071 C.ar    1  LIG1        0.0710
     33 C          -4.1786    9.9261   -0.3348 C.ar    1  LIG1        0.1527
     34 C          -5.4662   10.5539   -0.3294 C.ar    1  LIG1        0.0744
     35 C          -6.4735    9.6859   -0.0085 C.ar    1  LIG1        0.0006
     36 S          -5.8619    8.0973    0.3168 S.2     1  LIG1       -0.0905
     37 H          -7.5343    9.8844    0.0578 H       1  LIG1        0.0713
     38 O          -3.0787   10.6459   -0.6844 O.3     1  LIG1       -0.5038
     39 H          -3.4350   11.5335   -0.8986 H       1  LIG1        0.2923
     40 N          -5.5109   11.9415   -0.6857 N.pl3   1  LIG1       -0.3547
     41 H          -6.1307   12.1114   -1.4728 H       1  LIG1        0.1424
     42 H          -5.8258   12.5228    0.0867 H       1  LIG1        0.1424
@<TRIPOS>BOND
     1    20    19    1
     2    41    40    1
     3    18    17    1
     4    39    38    1
     5    17    13    1
     6    19    14    1
     7    19    21    1
     8    40    34    1
     9    40    42    1
    10    38    33    1
    11    13    14   ar
    12    13    12   ar
    13    14    15   ar
    14     5     1   ar
    15     5     4   ar
    16    26    22   ar
    17    26    25   ar
    18    33    34   ar
    19    33    32   ar
    20    34    35   ar
    21    12     4    1
    22    12    16   ar
    23     6     1    1
    24     1     2   ar
    25    10     9    1
    26     4     3   ar
    27    15    22    1
    28    15    16   ar
    29    22    23   ar
    30    35    37    1
    31    35    36   ar
    32    32    25    1
    33    32    36   ar
    34     3     2   ar
    35     3     9    1
    36     2     7    1
    37    25    24   ar
    38    11     9    1
    39     7     8    1
    40    30    29    1
    41    23    24   ar
    42    23    27    1
    43    24    29    1
    44    27    28    1
    45    29    31    1
