@<TRIPOS>MOLECULE
mol_data/opt/b3lyp/geoms/mol2/5fh5fh5fh-.out
 32 34 0 0 0
SMALL
GASTEIGER

@<TRIPOS>ATOM
      1 C          -2.0685   -1.8892   -0.8188 C.ar    1  LIG1        0.0197
      2 C          -0.8465   -1.9705   -0.2221 C.ar    1  LIG1        0.1450
      3 C          -0.2318   -0.6977    0.0416 C.ar    1  LIG1        0.0822
      4 C          -1.0295    0.3648   -0.3439 C.ar    1  LIG1        0.0538
      5 S          -2.5206   -0.2331   -1.0843 S.2     1  LIG1       -0.0904
      6 H          -2.7260   -2.7009   -1.0909 H       1  LIG1        0.0731
      7 O          -0.2241   -3.1427    0.1184 O.3     1  LIG1       -0.5044
      8 H           0.2789   -2.9659    0.9293 H       1  LIG1        0.2922
      9 N           1.0043   -0.6811    0.7110 N.pl3   1  LIG1       -0.3542
     10 H           1.6601   -1.3126    0.2564 H       1  LIG1        0.1425
     11 H           1.4230    0.2449    0.7291 H       1  LIG1        0.1425
     12 C          -0.8031    1.7885   -0.2143 C.ar    1  LIG1        0.0716
     13 C           0.3693    2.5107   -0.1681 C.ar    1  LIG1        0.1533
     14 C           0.2093    3.9187    0.0011 C.ar    1  LIG1        0.0828
     15 C          -1.1100    4.3181    0.0449 C.ar    1  LIG1        0.0544
     16 S          -2.1614    2.9144   -0.0788 S.2     1  LIG1       -0.0814
     17 O           1.6283    1.9955   -0.2659 O.3     1  LIG1       -0.5037
     18 H           2.2018    2.7918   -0.2412 H       1  LIG1        0.2923
     19 N           1.4052    4.6968    0.0893 N.pl3   1  LIG1       -0.3542
     20 H           1.3346    5.5292   -0.4947 H       1  LIG1        0.1425
     21 H           1.5600    5.0157    1.0444 H       1  LIG1        0.1425
     22 C          -1.6436    5.6578    0.1546 C.ar    1  LIG1        0.0710
     23 C          -1.1521    6.8355   -0.3659 C.ar    1  LIG1        0.1527
     24 C          -1.9470    7.9906   -0.0735 C.ar    1  LIG1        0.0744
     25 C          -3.0594    7.6916    0.6643 C.ar    1  LIG1        0.0006
     26 S          -3.1358    6.0005    1.0359 S.2     1  LIG1       -0.0905
     27 H          -3.8347    8.3610    1.0100 H       1  LIG1        0.0713
     28 O          -0.0377    6.9612   -1.1366 O.3     1  LIG1       -0.5038
     29 H          -0.0183    7.9123   -1.3715 H       1  LIG1        0.2923
     30 N          -1.4973    9.2400   -0.6136 N.pl3   1  LIG1       -0.3547
     31 H          -2.2052    9.6780   -1.1964 H       1  LIG1        0.1424
     32 H          -1.2450    9.9016    0.1160 H       1  LIG1        0.1424
@<TRIPOS>BOND
     1    29    28    1
     2    31    30    1
     3    28    23    1
     4     6     1    1
     5     5     1   ar
     6     5     4   ar
     7     1     2   ar
     8    30    24    1
     9    30    32    1
    10    20    19    1
    11    23    24   ar
    12    23    22   ar
    13     4    12    1
    14     4     3   ar
    15    17    18    1
    16    17    13    1
    17     2     3   ar
    18     2     7    1
    19    12    13   ar
    20    12    16   ar
    21    13    14   ar
    22    16    15   ar
    23    24    25   ar
    24    14    15   ar
    25    14    19    1
    26     3     9    1
    27    15    22    1
    28    19    21    1
    29     7     8    1
    30    22    26   ar
    31    10     9    1
    32    25    27    1
    33    25    26   ar
    34     9    11    1
