@<TRIPOS>MOLECULE
mol_data/opt/b3lyp/geoms/mol2/5fh5fh5fh5fh.out
 42 45 0 0 0
SMALL
GASTEIGER

@<TRIPOS>ATOM
      1 C          -1.6853   -2.0570   -1.1990 C.ar    1  LIG1        0.0197
      2 C          -0.7334   -2.0682   -0.2195 C.ar    1  LIG1        0.1450
      3 C          -0.3089   -0.7596    0.1895 C.ar    1  LIG1        0.0822
      4 C          -0.9298    0.2562   -0.5086 C.ar    1  LIG1        0.0538
      5 S          -2.0529   -0.4216   -1.6814 S.2     1  LIG1       -0.0904
      6 H          -2.1726   -2.8954   -1.6725 H       1  LIG1        0.0731
      7 O          -0.2004   -3.1673    0.3674 O.3     1  LIG1       -0.5044
      8 H           0.4904   -2.8040    0.9577 H       1  LIG1        0.2922
      9 N           0.6575   -0.6851    1.2385 N.pl3   1  LIG1       -0.3542
     10 H           1.3557    0.0281    1.0333 H       1  LIG1        0.1425
     11 H           0.2173   -0.4294    2.1209 H       1  LIG1        0.1425
     12 C          -0.7442    1.6850   -0.3785 C.ar    1  LIG1        0.0716
     13 C           0.3989    2.3938   -0.0811 C.ar    1  LIG1        0.1533
     14 C           0.2306    3.8105   -0.0171 C.ar    1  LIG1        0.0828
     15 C          -1.0543    4.2206   -0.3106 C.ar    1  LIG1        0.0544
     16 S          -2.0725    2.8216   -0.6323 S.2     1  LIG1       -0.0814
     17 O           1.6345    1.8628    0.1256 O.3     1  LIG1       -0.5037
     18 H           2.2118    2.6507    0.2198 H       1  LIG1        0.2923
     19 N           1.3853    4.5824    0.3159 N.pl3   1  LIG1       -0.3542
     20 H           1.4429    5.4137   -0.2712 H       1  LIG1        0.1425
     21 H           1.3433    4.9015    1.2825 H       1  LIG1        0.1425
     22 C          -1.5809    5.5645   -0.3780 C.ar    1  LIG1        0.0716
     23 C          -0.9643    6.7279   -0.7859 C.ar    1  LIG1        0.1533
     24 C          -1.7952    7.8886   -0.7615 C.ar    1  LIG1        0.0828
     25 C          -3.0746    7.6337   -0.3126 C.ar    1  LIG1        0.0544
     26 S          -3.2396    5.9343    0.1040 S.2     1  LIG1       -0.0814
     27 O           0.3132    6.8376   -1.2391 O.3     1  LIG1       -0.5037
     28 H           0.4170    7.7992   -1.4072 H       1  LIG1        0.2923
     29 N          -1.2155    9.1060   -1.2338 N.pl3   1  LIG1       -0.3542
     30 H          -1.5756    9.3457   -2.1561 H       1  LIG1        0.1425
     31 H          -1.4495    9.8795   -0.6127 H       1  LIG1        0.1425
     32 C          -4.1722    8.5613   -0.1502 C.ar    1  LIG1        0.0710
     33 C          -4.1412    9.8854    0.2318 C.ar    1  LIG1        0.1527
     34 C          -5.4282   10.5101    0.3057 C.ar    1  LIG1        0.0744
     35 C          -6.4472    9.6536   -0.0091 C.ar    1  LIG1        0.0006
     36 S          -5.8492    8.0812   -0.4245 S.2     1  LIG1       -0.0905
     37 H          -7.5099    9.8527   -0.0242 H       1  LIG1        0.0713
     38 O          -3.0282   10.5923    0.5645 O.3     1  LIG1       -0.5038
     39 H          -3.3756   11.4697    0.8297 H       1  LIG1        0.2923
     40 N          -5.4583   11.8816    0.7201 N.pl3   1  LIG1       -0.3547
     41 H          -5.8019   12.4941   -0.0152 H       1  LIG1        0.1424
     42 H          -6.0472   12.0189    1.5368 H       1  LIG1        0.1424
@<TRIPOS>BOND
     1    30    29    1
     2     5     1   ar
     3     5     4   ar
     4     6     1    1
     5    28    27    1
     6    27    23    1
     7    29    24    1
     8    29    31    1
     9     1     2   ar
    10    23    24   ar
    11    23    22   ar
    12    24    25   ar
    13    16    12   ar
    14    16    15   ar
    15     4    12    1
    16     4     3   ar
    17    36    32   ar
    18    36    35   ar
    19    12    13   ar
    20    22    15    1
    21    22    26   ar
    22    25    32    1
    23    25    26   ar
    24    15    14   ar
    25    20    19    1
    26     2     3   ar
    27     2     7    1
    28    32    33   ar
    29    13    14   ar
    30    13    17    1
    31    37    35    1
    32    14    19    1
    33    41    40    1
    34    35    34   ar
    35    17    18    1
    36     3     9    1
    37    33    34   ar
    38    33    38    1
    39    34    40    1
    40    19    21    1
    41     7     8    1
    42    38    39    1
    43    40    42    1
    44    10     9    1
    45     9    11    1
