@<TRIPOS>MOLECULE
mol_data/opt/b3lyp/geoms/mol2/5fh5fh.out
 22 23 0 0 0
SMALL
GASTEIGER

@<TRIPOS>ATOM
      1 C          -2.1118   -1.8588    0.4905 C.ar    1  LIG1        0.0197
      2 C          -0.7967   -1.8918    0.1231 C.ar    1  LIG1        0.1450
      3 C          -0.2426   -0.5971   -0.1566 C.ar    1  LIG1        0.0822
      4 C          -1.1451    0.4296    0.0265 C.ar    1  LIG1        0.0537
      5 S          -2.6948   -0.2166    0.5480 S.2     1  LIG1       -0.0904
      6 H          -2.7587   -2.6839    0.7462 H       1  LIG1        0.0731
      7 O          -0.0270   -3.0001    0.0031 O.3     1  LIG1       -0.5044
      8 H           0.8644   -2.6479   -0.1928 H       1  LIG1        0.2922
      9 N           1.1203   -0.5456   -0.5783 N.pl3   1  LIG1       -0.3542
     10 H           1.1869   -0.4092   -1.5855 H       1  LIG1        0.1425
     11 H           1.6063    0.2312   -0.1332 H       1  LIG1        0.1425
     12 C          -0.9387    1.8535   -0.1458 C.ar    1  LIG1        0.0710
     13 C           0.1809    2.6106    0.1181 C.ar    1  LIG1        0.1527
     14 C           0.0330    4.0076   -0.1659 C.ar    1  LIG1        0.0744
     15 C          -1.2115    4.3201   -0.6388 C.ar    1  LIG1        0.0006
     16 S          -2.2096    2.9090   -0.7692 S.2     1  LIG1       -0.0905
     17 H          -1.5989    5.2901   -0.9181 H       1  LIG1        0.0713
     18 O           1.3498    2.1474    0.6386 O.3     1  LIG1       -0.5038
     19 H           1.9002    2.9515    0.7398 H       1  LIG1        0.2923
     20 N           1.1605    4.8486    0.1121 N.pl3   1  LIG1       -0.3547
     21 H           1.5370    5.2708   -0.7327 H       1  LIG1        0.1424
     22 H           0.9235    5.6006    0.7533 H       1  LIG1        0.1424
@<TRIPOS>BOND
     1    10     9    1
     2    17    15    1
     3    16    15   ar
     4    16    12   ar
     5    21    20    1
     6    15    14   ar
     7     9     3    1
     8     9    11    1
     9     8     7    1
    10    14    20    1
    11    14    13   ar
    12     3     4   ar
    13     3     2   ar
    14    12     4    1
    15    12    13   ar
    16     7     2    1
    17     4     5   ar
    18    20    22    1
    19    13    18    1
    20     2     1   ar
    21     1     5   ar
    22     1     6    1
    23    18    19    1
