@<TRIPOS>MOLECULE
mol_data/opt/b3lyp/geoms/mol2/5fi.out
 13 13 0 0 0
SMALL
GASTEIGER

@<TRIPOS>ATOM
      1 C          -2.1513   -1.7505   -0.0294 C.ar    1  LIG1        0.0174
      2 C          -0.7851   -1.7004   -0.0520 C.ar    1  LIG1        0.1267
      3 C          -0.2514   -0.3641    0.0231 C.ar    1  LIG1       -0.0020
      4 C          -1.2528    0.5645    0.1013 C.ar    1  LIG1       -0.0179
      5 S          -2.8296   -0.1555    0.0852 S.2     1  LIG1       -0.1011
      6 H          -2.7793   -2.6272   -0.0734 H       1  LIG1        0.0730
      7 H          -1.1487    1.6388    0.1677 H       1  LIG1        0.0697
      8 O          -0.0171   -2.8294   -0.1386 O.3     1  LIG1       -0.5060
      9 H           0.9143   -2.5753   -0.1397 H       1  LIG1        0.2922
     10 C           1.2223   -0.0647    0.0145 C.3     1  LIG1       -0.0357
     11 H           1.4047    1.0104    0.0798 H       1  LIG1        0.0279
     12 H           1.7065   -0.4201   -0.9050 H       1  LIG1        0.0279
     13 H           1.7397   -0.5330    0.8626 H       1  LIG1        0.0279
@<TRIPOS>BOND
     1    12    10    1
     2     9     8    1
     3     8     2    1
     4     6     1    1
     5     2     1   ar
     6     2     3   ar
     7     1     5   ar
     8    10     3    1
     9    10    11    1
    10    10    13    1
    11     3     4   ar
    12     5     4   ar
    13     4     7    1
