@<TRIPOS>MOLECULE
mol_data/opt/b3lyp/geoms/mol2/5fi5fi-5fi.out
 35 37 0 0 0
SMALL
GASTEIGER

@<TRIPOS>ATOM
      1 C          -1.9128   -1.7634   -1.2487 C.ar    1  LIG1        0.0180
      2 C          -0.8354   -1.8926   -0.4167 C.ar    1  LIG1        0.1273
      3 C          -0.3110   -0.6447    0.0666 C.ar    1  LIG1        0.0064
      4 C          -1.0054    0.4332   -0.4438 C.ar    1  LIG1        0.0359
      5 S          -2.3089   -0.0942   -1.4978 S.2     1  LIG1       -0.0920
      6 H          -2.4817   -2.5539   -1.7143 H       1  LIG1        0.0730
      7 O          -0.3426   -3.1185   -0.0602 O.3     1  LIG1       -0.5060
      8 H           0.4835   -2.9914    0.4233 H       1  LIG1        0.2922
      9 C           0.8236   -0.5652    1.0485 C.3     1  LIG1       -0.0351
     10 H           0.7979    0.3801    1.5942 H       1  LIG1        0.0279
     11 H           1.8025   -0.6233    0.5580 H       1  LIG1        0.0279
     12 H           0.7613   -1.3730    1.7897 H       1  LIG1        0.0279
     13 C          -0.7722    1.8493   -0.2215 C.ar    1  LIG1        0.0685
     14 C           0.4139    2.5504   -0.2867 C.ar    1  LIG1        0.1356
     15 C           0.3057    3.9537   -0.0175 C.ar    1  LIG1        0.0070
     16 C          -1.0007    4.3322    0.2166 C.ar    1  LIG1        0.0365
     17 S          -2.0852    2.9555    0.1484 S.2     1  LIG1       -0.0831
     18 O           1.5966    1.9264   -0.5778 O.3     1  LIG1       -0.5053
     19 H           2.2563    2.5982   -0.7926 H       1  LIG1        0.2922
     20 C           1.4996    4.8654    0.0259 C.3     1  LIG1       -0.0351
     21 H           1.2883    5.7493    0.6308 H       1  LIG1        0.0279
     22 H           1.7856    5.2238   -0.9702 H       1  LIG1        0.0279
     23 H           2.3647    4.3591    0.4729 H       1  LIG1        0.0279
     24 C          -1.5219    5.6601    0.4897 C.ar    1  LIG1        0.0679
     25 C          -1.2740    6.8395   -0.1819 C.ar    1  LIG1        0.1350
     26 C          -1.9844    7.9790    0.3286 C.ar    1  LIG1       -0.0014
     27 C          -2.7796    7.6347    1.3872 C.ar    1  LIG1       -0.0172
     28 S          -2.6672    5.9563    1.7923 S.2     1  LIG1       -0.0921
     29 H          -3.4262    8.2866    1.9587 H       1  LIG1        0.0697
     30 O          -0.4331    6.8898   -1.2590 O.3     1  LIG1       -0.5053
     31 H          -0.4962    7.7635   -1.6655 H       1  LIG1        0.2922
     32 C          -1.8604    9.3564   -0.2623 C.3     1  LIG1       -0.0357
     33 H          -2.4852   10.0712    0.2778 H       1  LIG1        0.0279
     34 H          -2.1790    9.3821   -1.3134 H       1  LIG1        0.0279
     35 H          -0.8279    9.7268   -0.2199 H       1  LIG1        0.0279
@<TRIPOS>BOND
     1     6     1    1
     2    31    30    1
     3     5     1   ar
     4     5     4   ar
     5    34    32    1
     6    30    25    1
     7     1     2   ar
     8    22    20    1
     9    19    18    1
    10    18    14    1
    11     4    13    1
    12     4     3   ar
    13     2     7    1
    14     2     3   ar
    15    14    13   ar
    16    14    15   ar
    17    32    35    1
    18    32    33    1
    19    32    26    1
    20    13    17   ar
    21    25    26   ar
    22    25    24   ar
    23     7     8    1
    24    15    20    1
    25    15    16   ar
    26    20    23    1
    27    20    21    1
    28     3     9    1
    29    17    16   ar
    30    16    24    1
    31    26    27   ar
    32    24    28   ar
    33    11     9    1
    34     9    10    1
    35     9    12    1
    36    27    28   ar
    37    27    29    1
