@<TRIPOS>MOLECULE
mol_data/opt/b3lyp/geoms/mol2/5fi5fi-5fi5fi-.out
 46 49 0 0 0
SMALL
GASTEIGER

@<TRIPOS>ATOM
      1 C          -1.4821   -1.6578   -1.9947 C.ar    1  LIG1        0.0180
      2 C          -0.8168   -1.8599   -0.8174 C.ar    1  LIG1        0.1273
      3 C          -0.4532   -0.6507   -0.1306 C.ar    1  LIG1        0.0064
      4 C          -0.8385    0.4724   -0.8341 C.ar    1  LIG1        0.0359
      5 S          -1.6618    0.0349   -2.3240 S.2     1  LIG1       -0.0920
      6 H          -1.8695   -2.4077   -2.6675 H       1  LIG1        0.0730
      7 O          -0.5658   -3.1168   -0.3374 O.3     1  LIG1       -0.5060
      8 H           0.0144   -3.0442    0.4308 H       1  LIG1        0.2922
      9 C           0.2164   -0.6496    1.2145 C.3     1  LIG1       -0.0351
     10 H           0.0322    0.2909    1.7375 H       1  LIG1        0.0279
     11 H           1.3042   -0.7637    1.1377 H       1  LIG1        0.0279
     12 H          -0.1709   -1.4583    1.8484 H       1  LIG1        0.0279
     13 C          -0.6336    1.8695   -0.4948 C.ar    1  LIG1        0.0685
     14 C           0.5220    2.4963   -0.0767 C.ar    1  LIG1        0.1356
     15 C           0.3948    3.9010    0.1749 C.ar    1  LIG1        0.0070
     16 C          -0.8786    4.3587   -0.0996 C.ar    1  LIG1        0.0365
     17 S          -1.9258    3.0519   -0.6234 S.2     1  LIG1       -0.0831
     18 O           1.6901    1.8025    0.0886 O.3     1  LIG1       -0.5053
     19 H           2.4150    2.4348    0.1744 H       1  LIG1        0.2922
     20 C           1.5263    4.7341    0.7082 C.3     1  LIG1       -0.0351
     21 H           1.1451    5.6188    1.2219 H       1  LIG1        0.0279
     22 H           2.1907    5.0920   -0.0871 H       1  LIG1        0.0279
     23 H           2.1258    4.1659    1.4311 H       1  LIG1        0.0279
     24 C          -1.3934    5.7124   -0.0049 C.ar    1  LIG1        0.0685
     25 C          -0.8350    6.8837   -0.4746 C.ar    1  LIG1        0.1356
     26 C          -1.6072    8.0652   -0.2292 C.ar    1  LIG1        0.0070
     27 C          -2.7995    7.7766    0.4035 C.ar    1  LIG1        0.0365
     28 S          -2.9487    6.0607    0.7334 S.2     1  LIG1       -0.0831
     29 O           0.3725    6.8909   -1.1175 O.3     1  LIG1       -0.5053
     30 H           0.4843    7.7436   -1.5570 H       1  LIG1        0.2922
     31 C          -1.1293    9.4400   -0.6034 C.3     1  LIG1       -0.0351
     32 H          -1.6031   10.1967    0.0255 H       1  LIG1        0.0279
     33 H          -1.3694    9.6953   -1.6422 H       1  LIG1        0.0279
     34 H          -0.0442    9.5303   -0.4659 H       1  LIG1        0.0279
     35 C          -3.8617    8.6894    0.7877 C.ar    1  LIG1        0.0679
     36 C          -4.4692    9.6707    0.0316 C.ar    1  LIG1        0.1350
     37 C          -5.5226   10.3781    0.7050 C.ar    1  LIG1       -0.0014
     38 C          -5.7047    9.9045    1.9754 C.ar    1  LIG1       -0.0172
     39 S          -4.6075    8.6294    2.3802 S.2     1  LIG1       -0.0921
     40 H          -6.4281   10.2459    2.7033 H       1  LIG1        0.0697
     41 O          -4.0968    9.9150   -1.2610 O.3     1  LIG1       -0.5053
     42 H          -4.7256   10.5317   -1.6574 H       1  LIG1        0.2922
     43 C          -6.3150   11.4807    0.0585 C.3     1  LIG1       -0.0357
     44 H          -7.0648   11.8785    0.7460 H       1  LIG1        0.0279
     45 H          -6.8519   11.1311   -0.8340 H       1  LIG1        0.0279
     46 H          -5.6741   12.3177   -0.2471 H       1  LIG1        0.0279
@<TRIPOS>BOND
     1     6     1    1
     2     5     1   ar
     3     5     4   ar
     4     1     2   ar
     5    42    41    1
     6    33    31    1
     7    30    29    1
     8    41    36    1
     9    29    25    1
    10     4    13    1
    11     4     3   ar
    12    45    43    1
    13     2     7    1
    14     2     3   ar
    15    17    13   ar
    16    17    16   ar
    17    31    34    1
    18    31    26    1
    19    31    32    1
    20    13    14   ar
    21    25    26   ar
    22    25    24   ar
    23     7     8    1
    24    46    43    1
    25    26    27   ar
    26     3     9    1
    27    16    24    1
    28    16    15   ar
    29    22    20    1
    30    14    18    1
    31    14    15   ar
    32    24    28   ar
    33    36    37   ar
    34    36    35   ar
    35    43    37    1
    36    43    44    1
    37    18    19    1
    38    15    20    1
    39    27    28   ar
    40    27    35    1
    41    37    38   ar
    42    20    21    1
    43    20    23    1
    44    35    39   ar
    45    11     9    1
    46     9    10    1
    47     9    12    1
    48    38    39   ar
    49    38    40    1
