@<TRIPOS>MOLECULE
mol_data/opt/b3lyp/geoms/mol2/5fi5fi-5fi-5fi-.out
 46 49 0 0 0
SMALL
GASTEIGER

@<TRIPOS>ATOM
      1 C          -1.4725   -1.6647   -1.9757 C.ar    1  LIG1        0.0180
      2 C          -0.8129   -1.8624   -0.7945 C.ar    1  LIG1        0.1273
      3 C          -0.4525   -0.6507   -0.1106 C.ar    1  LIG1        0.0064
      4 C          -0.8345    0.4698   -0.8201 C.ar    1  LIG1        0.0359
      5 S          -1.6507    0.0267   -2.3122 S.2     1  LIG1       -0.0920
      6 H          -1.8567   -2.4173   -2.6476 H       1  LIG1        0.0730
      7 O          -0.5643   -3.1175   -0.3085 O.3     1  LIG1       -0.5060
      8 H           0.0127   -3.0420    0.4619 H       1  LIG1        0.2922
      9 C           0.2109   -0.6444    1.2376 C.3     1  LIG1       -0.0351
     10 H           0.0250    0.2985    1.7557 H       1  LIG1        0.0279
     11 H           1.2989   -0.7595    1.1662 H       1  LIG1        0.0279
     12 H          -0.1799   -1.4501    1.8731 H       1  LIG1        0.0279
     13 C          -0.6311    1.8681   -0.4849 C.ar    1  LIG1        0.0685
     14 C           0.5229    2.4963   -0.0647 C.ar    1  LIG1        0.1356
     15 C           0.3948    3.9019    0.1816 C.ar    1  LIG1        0.0070
     16 C          -0.8776    4.3587   -0.0992 C.ar    1  LIG1        0.0365
     17 S          -1.9228    3.0500   -0.6225 S.2     1  LIG1       -0.0831
     18 O           1.6903    1.8030    0.1076 O.3     1  LIG1       -0.5053
     19 H           2.4149    2.4355    0.1938 H       1  LIG1        0.2922
     20 C           1.5243    4.7367    0.7164 C.3     1  LIG1       -0.0351
     21 H           1.1412    5.6233    1.2256 H       1  LIG1        0.0279
     22 H           2.1918    5.0918   -0.0776 H       1  LIG1        0.0279
     23 H           2.1209    4.1710    1.4435 H       1  LIG1        0.0279
     24 C          -1.3928    5.7125   -0.0111 C.ar    1  LIG1        0.0685
     25 C          -0.8329    6.8825   -0.4824 C.ar    1  LIG1        0.1356
     26 C          -1.6063    8.0646   -0.2440 C.ar    1  LIG1        0.0070
     27 C          -2.8011    7.7778    0.3848 C.ar    1  LIG1        0.0365
     28 S          -2.9512    6.0630    0.7198 S.2     1  LIG1       -0.0831
     29 O           0.3772    6.8879   -1.1204 O.3     1  LIG1       -0.5053
     30 H           0.4909    7.7395   -1.5616 H       1  LIG1        0.2922
     31 C          -1.1270    9.4382   -0.6206 C.3     1  LIG1       -0.0351
     32 H          -1.6042   10.1970    0.0031 H       1  LIG1        0.0279
     33 H          -1.3619    9.6897   -1.6616 H       1  LIG1        0.0279
     34 H          -0.0426    9.5294   -0.4780 H       1  LIG1        0.0279
     35 C          -3.8652    8.6915    0.7616 C.ar    1  LIG1        0.0679
     36 C          -4.4697    9.6704    0.0000 C.ar    1  LIG1        0.1350
     37 C          -5.5264   10.3793    0.6668 C.ar    1  LIG1       -0.0014
     38 C          -5.7140    9.9092    1.9377 C.ar    1  LIG1       -0.0172
     39 S          -4.6181    8.6357    2.3509 S.2     1  LIG1       -0.0921
     40 H          -6.4408   10.2524    2.6613 H       1  LIG1        0.0697
     41 O          -4.0917    9.9113   -1.2916 O.3     1  LIG1       -0.5053
     42 H          -4.7192   10.5260   -1.6927 H       1  LIG1        0.2922
     43 C          -6.3162   11.4798    0.0136 C.3     1  LIG1       -0.0357
     44 H          -7.0688   11.8797    0.6968 H       1  LIG1        0.0279
     45 H          -6.8495   11.1274   -0.8799 H       1  LIG1        0.0279
     46 H          -5.6741   12.3159   -0.2920 H       1  LIG1        0.0279
@<TRIPOS>BOND
     1     6     1    1
     2     5     1   ar
     3     5     4   ar
     4     1     2   ar
     5    42    41    1
     6    33    31    1
     7    30    29    1
     8    41    36    1
     9    29    25    1
    10    45    43    1
    11     4    13    1
    12     4     3   ar
    13     2     7    1
    14     2     3   ar
    15    17    13   ar
    16    17    16   ar
    17    31    34    1
    18    31    26    1
    19    31    32    1
    20    13    14   ar
    21    25    26   ar
    22    25    24   ar
    23     7     8    1
    24    46    43    1
    25    26    27   ar
    26     3     9    1
    27    16    24    1
    28    16    15   ar
    29    22    20    1
    30    14    18    1
    31    14    15   ar
    32    24    28   ar
    33    36    37   ar
    34    36    35   ar
    35    43    37    1
    36    43    44    1
    37    18    19    1
    38    15    20    1
    39    27    28   ar
    40    27    35    1
    41    37    38   ar
    42    20    21    1
    43    20    23    1
    44    35    39   ar
    45    11     9    1
    46     9    10    1
    47     9    12    1
    48    38    39   ar
    49    38    40    1
