@<TRIPOS>MOLECULE
mol_data/opt/b3lyp/geoms/mol2/5fi5fi-5fi-.out
 35 37 0 0 0
SMALL
GASTEIGER

@<TRIPOS>ATOM
      1 C          -1.9054   -1.7625   -1.2556 C.ar    1  LIG1        0.0180
      2 C          -0.8316   -1.8923   -0.4192 C.ar    1  LIG1        0.1273
      3 C          -0.3099   -0.6447    0.0681 C.ar    1  LIG1        0.0064
      4 C          -1.0025    0.4336   -0.4439 C.ar    1  LIG1        0.0359
      5 S          -2.3011   -0.0930   -1.5044 S.2     1  LIG1       -0.0920
      6 H          -2.4719   -2.5525   -1.7248 H       1  LIG1        0.0730
      7 O          -0.3396   -3.1183   -0.0622 O.3     1  LIG1       -0.5060
      8 H           0.4838   -2.9915    0.4258 H       1  LIG1        0.2922
      9 C           0.8201   -0.5662    1.0554 C.3     1  LIG1       -0.0351
     10 H           0.7922    0.3788    1.6014 H       1  LIG1        0.0279
     11 H           1.8013   -0.6245    0.5695 H       1  LIG1        0.0279
     12 H           0.7538   -1.3743    1.7959 H       1  LIG1        0.0279
     13 C          -0.7709    1.8495   -0.2188 C.ar    1  LIG1        0.0685
     14 C           0.4154    2.5509   -0.2773 C.ar    1  LIG1        0.1356
     15 C           0.3055    3.9538   -0.0070 C.ar    1  LIG1        0.0070
     16 C          -1.0021    4.3318    0.2207 C.ar    1  LIG1        0.0365
     17 S          -2.0860    2.9549    0.1456 S.2     1  LIG1       -0.0831
     18 O           1.5997    1.9275   -0.5632 O.3     1  LIG1       -0.5053
     19 H           2.2600    2.5997   -0.7750 H       1  LIG1        0.2922
     20 C           1.4989    4.8659    0.0431 C.3     1  LIG1       -0.0351
     21 H           1.2848    5.7484    0.6493 H       1  LIG1        0.0279
     22 H           1.7885    5.2268   -0.9510 H       1  LIG1        0.0279
     23 H           2.3624    4.3590    0.4923 H       1  LIG1        0.0279
     24 C          -1.5251    5.6593    0.4927 C.ar    1  LIG1        0.0679
     25 C          -1.2743    6.8395   -0.1764 C.ar    1  LIG1        0.1350
     26 C          -1.9874    7.9783    0.3319 C.ar    1  LIG1       -0.0014
     27 C          -2.7876    7.6326    1.3862 C.ar    1  LIG1       -0.0172
     28 S          -2.6767    5.9539    1.7901 S.2     1  LIG1       -0.0921
     29 H          -3.4370    8.2837    1.9553 H       1  LIG1        0.0697
     30 O          -0.4283    6.8911   -1.2496 O.3     1  LIG1       -0.5053
     31 H          -0.4888    7.7658   -1.6546 H       1  LIG1        0.2922
     32 C          -1.8609    9.3563   -0.2569 C.3     1  LIG1       -0.0357
     33 H          -2.4893   10.0702    0.2803 H       1  LIG1        0.0279
     34 H          -2.1734    9.3829   -1.3097 H       1  LIG1        0.0279
     35 H          -0.8289    9.7275   -0.2081 H       1  LIG1        0.0279
@<TRIPOS>BOND
     1     6     1    1
     2    31    30    1
     3     5     1   ar
     4     5     4   ar
     5    34    32    1
     6     1     2   ar
     7    30    25    1
     8    22    20    1
     9    19    18    1
    10    18    14    1
    11     4    13    1
    12     4     3   ar
    13     2     7    1
    14     2     3   ar
    15    14    13   ar
    16    14    15   ar
    17    32    35    1
    18    32    33    1
    19    32    26    1
    20    13    17   ar
    21    25    26   ar
    22    25    24   ar
    23     7     8    1
    24    15    20    1
    25    15    16   ar
    26    20    23    1
    27    20    21    1
    28     3     9    1
    29    17    16   ar
    30    16    24    1
    31    26    27   ar
    32    24    28   ar
    33    11     9    1
    34     9    10    1
    35     9    12    1
    36    27    28   ar
    37    27    29    1
