@<TRIPOS>MOLECULE
mol_data/opt/b3lyp/geoms/mol2/5fi5fi-5fi5fi.out
 46 49 0 0 0
SMALL
GASTEIGER

@<TRIPOS>ATOM
      1 C          -1.4799   -1.6529   -2.0066 C.ar    1  LIG1        0.0180
      2 C          -0.8140   -1.8574   -0.8301 C.ar    1  LIG1        0.1273
      3 C          -0.4506   -0.6496   -0.1408 C.ar    1  LIG1        0.0064
      4 C          -0.8367    0.4749   -0.8415 C.ar    1  LIG1        0.0359
      5 S          -1.6606    0.0405   -2.3319 S.2     1  LIG1       -0.0920
      6 H          -1.8674   -2.4015   -2.6810 H       1  LIG1        0.0730
      7 O          -0.5621   -3.1152   -0.3532 O.3     1  LIG1       -0.5060
      8 H           0.0178   -3.0441    0.4155 H       1  LIG1        0.2922
      9 C           0.2199   -0.6511    1.2040 C.3     1  LIG1       -0.0351
     10 H           0.0354    0.2881    1.7291 H       1  LIG1        0.0279
     11 H           1.3076   -0.7644    1.1262 H       1  LIG1        0.0279
     12 H          -0.1666   -1.4614    1.8364 H       1  LIG1        0.0279
     13 C          -0.6323    1.8713   -0.4990 C.ar    1  LIG1        0.0685
     14 C           0.5233    2.4975   -0.0802 C.ar    1  LIG1        0.1356
     15 C           0.3957    3.9016    0.1748 C.ar    1  LIG1        0.0070
     16 C          -0.8780    4.3595   -0.0979 C.ar    1  LIG1        0.0365
     17 S          -1.9250    3.0535   -0.6242 S.2     1  LIG1       -0.0831
     18 O           1.6917    1.8038    0.0828 O.3     1  LIG1       -0.5053
     19 H           2.4166    2.4362    0.1690 H       1  LIG1        0.2922
     20 C           1.5274    4.7340    0.7087 C.3     1  LIG1       -0.0351
     21 H           1.1464    5.6176    1.2245 H       1  LIG1        0.0279
     22 H           2.1909    5.0937   -0.0866 H       1  LIG1        0.0279
     23 H           2.1279    4.1646    1.4298 H       1  LIG1        0.0279
     24 C          -1.3933    5.7127    0.0003 C.ar    1  LIG1        0.0685
     25 C          -0.8360    6.8854   -0.4672 C.ar    1  LIG1        0.1356
     26 C          -1.6086    8.0659   -0.2184 C.ar    1  LIG1        0.0070
     27 C          -2.8002    7.7753    0.4146 C.ar    1  LIG1        0.0365
     28 S          -2.9482    6.0585    0.7407 S.2     1  LIG1       -0.0831
     29 O           0.3710    6.8948   -1.1109 O.3     1  LIG1       -0.5053
     30 H           0.4821    7.7487   -1.5483 H       1  LIG1        0.2922
     31 C          -1.1317    9.4418   -0.5899 C.3     1  LIG1       -0.0351
     32 H          -1.6065   10.1970    0.0399 H       1  LIG1        0.0279
     33 H          -1.3715    9.6986   -1.6285 H       1  LIG1        0.0279
     34 H          -0.0467    9.5328   -0.4517 H       1  LIG1        0.0279
     35 C          -3.8627    8.6865    0.8016 C.ar    1  LIG1        0.0679
     36 C          -4.4715    9.6691    0.0482 C.ar    1  LIG1        0.1350
     37 C          -5.5251   10.3740    0.7239 C.ar    1  LIG1       -0.0014
     38 C          -5.7061    9.8973    1.9933 C.ar    1  LIG1       -0.0172
     39 S          -4.6073    8.6223    2.3945 S.2     1  LIG1       -0.0921
     40 H          -6.4293   10.2363    2.7224 H       1  LIG1        0.0697
     41 O          -4.1001    9.9167   -1.2441 O.3     1  LIG1       -0.5053
     42 H          -4.7300   10.5332   -1.6389 H       1  LIG1        0.2922
     43 C          -6.3187   11.4775    0.0804 C.3     1  LIG1       -0.0357
     44 H          -7.0690   11.8725    0.7690 H       1  LIG1        0.0279
     45 H          -6.8553   11.1296   -0.8130 H       1  LIG1        0.0279
     46 H          -5.6787   12.3161   -0.2230 H       1  LIG1        0.0279
@<TRIPOS>BOND
     1     6     1    1
     2     5     1   ar
     3     5     4   ar
     4     1     2   ar
     5    42    41    1
     6    33    31    1
     7    30    29    1
     8    41    36    1
     9    29    25    1
    10     4    13    1
    11     4     3   ar
    12     2     7    1
    13     2     3   ar
    14    45    43    1
    15    17    13   ar
    16    17    16   ar
    17    31    34    1
    18    31    26    1
    19    31    32    1
    20    13    14   ar
    21    25    26   ar
    22    25    24   ar
    23     7     8    1
    24    46    43    1
    25    26    27   ar
    26     3     9    1
    27    16    24    1
    28    16    15   ar
    29    22    20    1
    30    14    18    1
    31    14    15   ar
    32    24    28   ar
    33    36    37   ar
    34    36    35   ar
    35    43    37    1
    36    43    44    1
    37    18    19    1
    38    15    20    1
    39    27    28   ar
    40    27    35    1
    41    20    21    1
    42    20    23    1
    43    37    38   ar
    44    35    39   ar
    45    11     9    1
    46     9    10    1
    47     9    12    1
    48    38    39   ar
    49    38    40    1
