@<TRIPOS>MOLECULE
mol_data/opt/b3lyp/geoms/mol2/5fi5fi5fi-.out
 35 37 0 0 0
SMALL
GASTEIGER

@<TRIPOS>ATOM
      1 C          -1.8993   -1.7660   -1.2547 C.ar    1  LIG1        0.0180
      2 C          -0.8308   -1.8934   -0.4111 C.ar    1  LIG1        0.1273
      3 C          -0.3118   -0.6445    0.0756 C.ar    1  LIG1        0.0064
      4 C          -1.0009    0.4323   -0.4442 C.ar    1  LIG1        0.0359
      5 S          -2.2930   -0.0972   -1.5111 S.2     1  LIG1       -0.0920
      6 H          -2.4631   -2.5573   -1.7250 H       1  LIG1        0.0730
      7 O          -0.3416   -3.1185   -0.0470 O.3     1  LIG1       -0.5060
      8 H           0.4793   -2.9904    0.4448 H       1  LIG1        0.2922
      9 C           0.8121   -0.5631    1.0696 C.3     1  LIG1       -0.0351
     10 H           0.7809    0.3835    1.6125 H       1  LIG1        0.0279
     11 H           1.7961   -0.6229    0.5899 H       1  LIG1        0.0279
     12 H           0.7412   -1.3691    1.8120 H       1  LIG1        0.0279
     13 C          -0.7702    1.8489   -0.2221 C.ar    1  LIG1        0.0685
     14 C           0.4167    2.5497   -0.2756 C.ar    1  LIG1        0.1356
     15 C           0.3057    3.9535   -0.0103 C.ar    1  LIG1        0.0070
     16 C          -1.0031    4.3326    0.2086 C.ar    1  LIG1        0.0365
     17 S          -2.0871    2.9558    0.1311 S.2     1  LIG1       -0.0831
     18 O           1.6025    1.9251   -0.5526 O.3     1  LIG1       -0.5053
     19 H           2.2643    2.5964   -0.7623 H       1  LIG1        0.2922
     20 C           1.4991    4.8652    0.0443 C.3     1  LIG1       -0.0351
     21 H           1.2814    5.7501    0.6457 H       1  LIG1        0.0279
     22 H           1.7955    5.2221   -0.9492 H       1  LIG1        0.0279
     23 H           2.3594    4.3596    0.5012 H       1  LIG1        0.0279
     24 C          -1.5273    5.6611    0.4733 C.ar    1  LIG1        0.0679
     25 C          -1.2718    6.8392   -0.1977 C.ar    1  LIG1        0.1350
     26 C          -1.9875    7.9798    0.3029 C.ar    1  LIG1       -0.0014
     27 C          -2.7943    7.6376    1.3533 C.ar    1  LIG1       -0.0172
     28 S          -2.6867    5.9599    1.7628 S.2     1  LIG1       -0.0921
     29 H          -3.4470    8.2906    1.9164 H       1  LIG1        0.0697
     30 O          -0.4192    6.8873   -1.2657 O.3     1  LIG1       -0.5053
     31 H          -0.4775    7.7605   -1.6742 H       1  LIG1        0.2922
     32 C          -1.8568    9.3560   -0.2892 C.3     1  LIG1       -0.0357
     33 H          -2.4873   10.0719    0.2428 H       1  LIG1        0.0279
     34 H          -2.1641    9.3798   -1.3437 H       1  LIG1        0.0279
     35 H          -0.8248    9.7264   -0.2363 H       1  LIG1        0.0279
@<TRIPOS>BOND
     1     6     1    1
     2    31    30    1
     3     5     1   ar
     4     5     4   ar
     5    34    32    1
     6    30    25    1
     7     1     2   ar
     8    22    20    1
     9    19    18    1
    10    18    14    1
    11     4    13    1
    12     4     3   ar
    13     2     7    1
    14     2     3   ar
    15    32    35    1
    16    32    33    1
    17    32    26    1
    18    14    13   ar
    19    14    15   ar
    20    13    17   ar
    21    25    26   ar
    22    25    24   ar
    23     7     8    1
    24    15    20    1
    25    15    16   ar
    26    20    23    1
    27    20    21    1
    28     3     9    1
    29    17    16   ar
    30    16    24    1
    31    26    27   ar
    32    24    28   ar
    33    11     9    1
    34     9    10    1
    35     9    12    1
    36    27    28   ar
    37    27    29    1
