@<TRIPOS>MOLECULE
mol_data/opt/b3lyp/geoms/mol2/5fi5fi5fi5fi-.out
 46 49 0 0 0
SMALL
GASTEIGER

@<TRIPOS>ATOM
      1 C          -1.4588   -1.6612   -2.0020 C.ar    1  LIG1        0.0180
      2 C          -0.8027   -1.8603   -0.8191 C.ar    1  LIG1        0.1273
      3 C          -0.4460   -0.6496   -0.1317 C.ar    1  LIG1        0.0064
      4 C          -0.8271    0.4718   -0.8402 C.ar    1  LIG1        0.0359
      5 S          -1.6381    0.0307   -2.3357 S.2     1  LIG1       -0.0920
      6 H          -1.8400   -2.4129   -2.6765 H       1  LIG1        0.0730
      7 O          -0.5540   -3.1161   -0.3349 O.3     1  LIG1       -0.5060
      8 H           0.0204   -3.0415    0.4376 H       1  LIG1        0.2922
      9 C           0.2125   -0.6450    1.2190 C.3     1  LIG1       -0.0351
     10 H           0.0223    0.2960    1.7387 H       1  LIG1        0.0279
     11 H           1.3011   -0.7572    1.1514 H       1  LIG1        0.0279
     12 H          -0.1785   -1.4533    1.8510 H       1  LIG1        0.0279
     13 C          -0.6265    1.8697   -0.5015 C.ar    1  LIG1        0.0685
     14 C           0.5251    2.4982   -0.0751 C.ar    1  LIG1        0.1356
     15 C           0.3946    3.9032    0.1733 C.ar    1  LIG1        0.0070
     16 C          -0.8769    4.3593   -0.1123 C.ar    1  LIG1        0.0365
     17 S          -1.9187    3.0507   -0.6427 S.2     1  LIG1       -0.0831
     18 O           1.6925    1.8057    0.1007 O.3     1  LIG1       -0.5053
     19 H           2.4160    2.4388    0.1918 H       1  LIG1        0.2922
     20 C           1.5210    4.7381    0.7145 C.3     1  LIG1       -0.0351
     21 H           1.1349    5.6236    1.2233 H       1  LIG1        0.0279
     22 H           2.1918    5.0950   -0.0759 H       1  LIG1        0.0279
     23 H           2.1148    4.1717    1.4434 H       1  LIG1        0.0279
     24 C          -1.3937    5.7126   -0.0240 C.ar    1  LIG1        0.0685
     25 C          -0.8326    6.8839   -0.4906 C.ar    1  LIG1        0.1356
     26 C          -1.6079    8.0649   -0.2535 C.ar    1  LIG1        0.0070
     27 C          -2.8052    7.7761    0.3697 C.ar    1  LIG1        0.0365
     28 S          -2.9556    6.0606    0.7007 S.2     1  LIG1       -0.0831
     29 O           0.3803    6.8913   -1.1234 O.3     1  LIG1       -0.5053
     30 H           0.4951    7.7436   -1.5629 H       1  LIG1        0.2922
     31 C          -1.1283    9.4397   -0.6255 C.3     1  LIG1       -0.0351
     32 H          -1.6086   10.1968   -0.0021 H       1  LIG1        0.0279
     33 H          -1.3595    9.6930   -1.6669 H       1  LIG1        0.0279
     34 H          -0.0446    9.5315   -0.4785 H       1  LIG1        0.0279
     35 C          -3.8714    8.6886    0.7435 C.ar    1  LIG1        0.0679
     36 C          -4.4738    9.6677   -0.0196 C.ar    1  LIG1        0.1350
     37 C          -5.5334   10.3753    0.6438 C.ar    1  LIG1       -0.0014
     38 C          -5.7254    9.9040    1.9136 C.ar    1  LIG1       -0.0172
     39 S          -4.6302    8.6309    2.3299 S.2     1  LIG1       -0.0921
     40 H          -6.4551   10.2461    2.6348 H       1  LIG1        0.0697
     41 O          -4.0909    9.9098   -1.3095 O.3     1  LIG1       -0.5053
     42 H          -4.7171   10.5248   -1.7124 H       1  LIG1        0.2922
     43 C          -6.3216   11.4757   -0.0114 C.3     1  LIG1       -0.0357
     44 H          -7.0778   11.8737    0.6689 H       1  LIG1        0.0279
     45 H          -6.8504   11.1238   -0.9079 H       1  LIG1        0.0279
     46 H          -5.6792   12.3130   -0.3130 H       1  LIG1        0.0279
@<TRIPOS>BOND
     1     6     1    1
     2     5     1   ar
     3     5     4   ar
     4     1     2   ar
     5    42    41    1
     6    33    31    1
     7    30    29    1
     8    41    36    1
     9    29    25    1
    10    45    43    1
    11     4    13    1
    12     4     3   ar
    13     2     7    1
    14     2     3   ar
    15    17    13   ar
    16    17    16   ar
    17    31    34    1
    18    31    26    1
    19    31    32    1
    20    13    14   ar
    21    25    26   ar
    22    25    24   ar
    23     7     8    1
    24    46    43    1
    25    26    27   ar
    26     3     9    1
    27    16    24    1
    28    16    15   ar
    29    22    20    1
    30    14    18    1
    31    14    15   ar
    32    24    28   ar
    33    36    37   ar
    34    36    35   ar
    35    43    37    1
    36    43    44    1
    37    18    19    1
    38    15    20    1
    39    27    28   ar
    40    27    35    1
    41    37    38   ar
    42    20    21    1
    43    20    23    1
    44    35    39   ar
    45    11     9    1
    46     9    10    1
    47     9    12    1
    48    38    39   ar
    49    38    40    1
