@<TRIPOS>MOLECULE
mol_data/opt/b3lyp/geoms/mol2/5fi5fi5fi.out
 35 37 0 0 0
SMALL
GASTEIGER

@<TRIPOS>ATOM
      1 C          -1.8954   -1.7687   -1.2525 C.ar    1  LIG1        0.0180
      2 C          -0.8254   -1.8942   -0.4106 C.ar    1  LIG1        0.1273
      3 C          -0.3069   -0.6442    0.0739 C.ar    1  LIG1        0.0064
      4 C          -0.9979    0.4314   -0.4458 C.ar    1  LIG1        0.0359
      5 S          -2.2912   -0.1006   -1.5101 S.2     1  LIG1       -0.0920
      6 H          -2.4591   -2.5611   -1.7211 H       1  LIG1        0.0730
      7 O          -0.3344   -3.1184   -0.0460 O.3     1  LIG1       -0.5060
      8 H           0.4872   -2.9890    0.4444 H       1  LIG1        0.2922
      9 C           0.8185   -0.5605    1.0661 C.3     1  LIG1       -0.0351
     10 H           0.7862    0.3860    1.6091 H       1  LIG1        0.0279
     11 H           1.8019   -0.6184    0.5848 H       1  LIG1        0.0279
     12 H           0.7505   -1.3666    1.8086 H       1  LIG1        0.0279
     13 C          -0.7683    1.8484   -0.2257 C.ar    1  LIG1        0.0685
     14 C           0.4177    2.5505   -0.2818 C.ar    1  LIG1        0.1356
     15 C           0.3055    3.9544   -0.0176 C.ar    1  LIG1        0.0070
     16 C          -1.0034    4.3323    0.2031 C.ar    1  LIG1        0.0365
     17 S          -2.0859    2.9542    0.1286 S.2     1  LIG1       -0.0831
     18 O           1.6037    1.9270   -0.5601 O.3     1  LIG1       -0.5053
     19 H           2.2647    2.5990   -0.7704 H       1  LIG1        0.2922
     20 C           1.4980    4.8675    0.0341 C.3     1  LIG1       -0.0351
     21 H           1.2802    5.7530    0.6345 H       1  LIG1        0.0279
     22 H           1.7927    5.2234   -0.9604 H       1  LIG1        0.0279
     23 H           2.3594    4.3635    0.4905 H       1  LIG1        0.0279
     24 C          -1.5287    5.6604    0.4674 C.ar    1  LIG1        0.0679
     25 C          -1.2760    6.8382   -0.2052 C.ar    1  LIG1        0.1350
     26 C          -1.9924    7.9783    0.2955 C.ar    1  LIG1       -0.0014
     27 C          -2.7969    7.6361    1.3476 C.ar    1  LIG1       -0.0172
     28 S          -2.6863    5.9590    1.7586 S.2     1  LIG1       -0.0921
     29 H          -3.4496    8.2887    1.9113 H       1  LIG1        0.0697
     30 O          -0.4252    6.8865   -1.2747 O.3     1  LIG1       -0.5053
     31 H          -0.4855    7.7592   -1.6840 H       1  LIG1        0.2922
     32 C          -1.8646    9.3541   -0.2981 C.3     1  LIG1       -0.0357
     33 H          -2.4954   10.0697    0.2341 H       1  LIG1        0.0279
     34 H          -2.1735    9.3764   -1.3522 H       1  LIG1        0.0279
     35 H          -0.8331    9.7260   -0.2472 H       1  LIG1        0.0279
@<TRIPOS>BOND
     1     6     1    1
     2    31    30    1
     3     5     1   ar
     4     5     4   ar
     5    34    32    1
     6    30    25    1
     7     1     2   ar
     8    22    20    1
     9    19    18    1
    10    18    14    1
    11     4    13    1
    12     4     3   ar
    13     2     7    1
    14     2     3   ar
    15    32    35    1
    16    32    33    1
    17    32    26    1
    18    14    13   ar
    19    14    15   ar
    20    13    17   ar
    21    25    26   ar
    22    25    24   ar
    23     7     8    1
    24    15    20    1
    25    15    16   ar
    26    20    23    1
    27    20    21    1
    28     3     9    1
    29    17    16   ar
    30    16    24    1
    31    26    27   ar
    32    24    28   ar
    33    11     9    1
    34     9    10    1
    35     9    12    1
    36    27    28   ar
    37    27    29    1
