@<TRIPOS>MOLECULE
mol_data/opt/b3lyp/geoms/mol2/5fi5fi-5fi-5fi.out
 46 49 0 0 0
SMALL
GASTEIGER

@<TRIPOS>ATOM
      1 C          -1.4698   -1.6608   -1.9848 C.ar    1  LIG1        0.0180
      2 C          -0.8097   -1.8606   -0.8042 C.ar    1  LIG1        0.1273
      3 C          -0.4499   -0.6502   -0.1178 C.ar    1  LIG1        0.0064
      4 C          -0.8327    0.4716   -0.8247 C.ar    1  LIG1        0.0359
      5 S          -1.6490    0.0313   -2.3176 S.2     1  LIG1       -0.0920
      6 H          -1.8537   -2.4120   -2.6582 H       1  LIG1        0.0730
      7 O          -0.5602   -3.1166   -0.3210 O.3     1  LIG1       -0.5060
      8 H           0.0166   -3.0424    0.4497 H       1  LIG1        0.2922
      9 C           0.2137   -0.6465    1.2304 C.3     1  LIG1       -0.0351
     10 H           0.0278    0.2953    1.7503 H       1  LIG1        0.0279
     11 H           1.3017   -0.7615    1.1586 H       1  LIG1        0.0279
     12 H          -0.1770   -1.4535    1.8643 H       1  LIG1        0.0279
     13 C          -0.6300    1.8693   -0.4866 C.ar    1  LIG1        0.0685
     14 C           0.5235    2.4972   -0.0646 C.ar    1  LIG1        0.1356
     15 C           0.3946    3.9022    0.1844 C.ar    1  LIG1        0.0070
     16 C          -0.8778    4.3590   -0.0962 C.ar    1  LIG1        0.0365
     17 S          -1.9223    3.0509   -0.6225 S.2     1  LIG1       -0.0831
     18 O           1.6911    1.8041    0.1068 O.3     1  LIG1       -0.5053
     19 H           2.4156    2.4369    0.1935 H       1  LIG1        0.2922
     20 C           1.5234    4.7367    0.7212 C.3     1  LIG1       -0.0351
     21 H           1.1395    5.6215    1.2328 H       1  LIG1        0.0279
     22 H           2.1904    5.0946   -0.0719 H       1  LIG1        0.0279
     23 H           2.1206    4.1696    1.4468 H       1  LIG1        0.0279
     24 C          -1.3936    5.7125   -0.0056 C.ar    1  LIG1        0.0685
     25 C          -0.8337    6.8835   -0.4745 C.ar    1  LIG1        0.1356
     26 C          -1.6074    8.0649   -0.2341 C.ar    1  LIG1        0.0070
     27 C          -2.8023    7.7767    0.3938 C.ar    1  LIG1        0.0365
     28 S          -2.9523    6.0612    0.7254 S.2     1  LIG1       -0.0831
     29 O           0.3766    6.8903   -1.1121 O.3     1  LIG1       -0.5053
     30 H           0.4902    7.7427   -1.5517 H       1  LIG1        0.2922
     31 C          -1.1283    9.4394   -0.6080 C.3     1  LIG1       -0.0351
     32 H          -1.6064   10.1969    0.0166 H       1  LIG1        0.0279
     33 H          -1.3623    9.6925   -1.6487 H       1  LIG1        0.0279
     34 H          -0.0441    9.5307   -0.4642 H       1  LIG1        0.0279
     35 C          -3.8668    8.6895    0.7719 C.ar    1  LIG1        0.0679
     36 C          -4.4714    9.6695    0.0118 C.ar    1  LIG1        0.1350
     37 C          -5.5285   10.3769    0.6795 C.ar    1  LIG1       -0.0014
     38 C          -5.7163    9.9046    1.9495 C.ar    1  LIG1       -0.0172
     39 S          -4.6201    8.6307    2.3609 S.2     1  LIG1       -0.0921
     40 H          -6.4433   10.2462    2.6735 H       1  LIG1        0.0697
     41 O          -4.0930    9.9127   -1.2793 O.3     1  LIG1       -0.5053
     42 H          -4.7205   10.5282   -1.6794 H       1  LIG1        0.2922
     43 C          -6.3184   11.4783    0.0280 C.3     1  LIG1       -0.0357
     44 H          -7.0719   11.8762    0.7114 H       1  LIG1        0.0279
     45 H          -6.8507   11.1274   -0.8668 H       1  LIG1        0.0279
     46 H          -5.6766   12.3155   -0.2752 H       1  LIG1        0.0279
@<TRIPOS>BOND
     1     6     1    1
     2     5     1   ar
     3     5     4   ar
     4     1     2   ar
     5    42    41    1
     6    33    31    1
     7    30    29    1
     8    41    36    1
     9    29    25    1
    10    45    43    1
    11     4    13    1
    12     4     3   ar
    13     2     7    1
    14     2     3   ar
    15    17    13   ar
    16    17    16   ar
    17    31    34    1
    18    31    26    1
    19    31    32    1
    20    13    14   ar
    21    25    26   ar
    22    25    24   ar
    23     7     8    1
    24    46    43    1
    25    26    27   ar
    26     3     9    1
    27    16    24    1
    28    16    15   ar
    29    22    20    1
    30    14    18    1
    31    14    15   ar
    32    24    28   ar
    33    36    37   ar
    34    36    35   ar
    35    43    37    1
    36    43    44    1
    37    18    19    1
    38    15    20    1
    39    27    28   ar
    40    27    35    1
    41    37    38   ar
    42    20    21    1
    43    20    23    1
    44    35    39   ar
    45    11     9    1
    46     9    10    1
    47     9    12    1
    48    38    39   ar
    49    38    40    1
