@<TRIPOS>MOLECULE
mol_data/opt/b3lyp/geoms/mol2/5fi5fi5fi-5fi-.out
 46 49 0 0 0
SMALL
GASTEIGER

@<TRIPOS>ATOM
      1 C          -1.4536   -1.6655   -1.9925 C.ar    1  LIG1        0.0180
      2 C          -0.8036   -1.8625   -0.8058 C.ar    1  LIG1        0.1273
      3 C          -0.4495   -0.6504   -0.1193 C.ar    1  LIG1        0.0064
      4 C          -0.8261    0.4696   -0.8323 C.ar    1  LIG1        0.0359
      5 S          -1.6298    0.0258   -2.3309 S.2     1  LIG1       -0.0920
      6 H          -1.8319   -2.4183   -2.6673 H       1  LIG1        0.0730
      7 O          -0.5583   -3.1174   -0.3175 O.3     1  LIG1       -0.5060
      8 H           0.0120   -3.0414    0.4578 H       1  LIG1        0.2922
      9 C           0.2025   -0.6434    1.2344 C.3     1  LIG1       -0.0351
     10 H           0.0112    0.2993    1.7509 H       1  LIG1        0.0279
     11 H           1.2913   -0.7573    1.1722 H       1  LIG1        0.0279
     12 H          -0.1927   -1.4495    1.8667 H       1  LIG1        0.0279
     13 C          -0.6262    1.8681   -0.4956 C.ar    1  LIG1        0.0685
     14 C           0.5239    2.4967   -0.0655 C.ar    1  LIG1        0.1356
     15 C           0.3932    3.9023    0.1794 C.ar    1  LIG1        0.0070
     16 C          -0.8767    4.3586   -0.1125 C.ar    1  LIG1        0.0365
     17 S          -1.9171    3.0496   -0.6446 S.2     1  LIG1       -0.0831
     18 O           1.6900    1.8038    0.1167 O.3     1  LIG1       -0.5053
     19 H           2.4137    2.4366    0.2095 H       1  LIG1        0.2922
     20 C           1.5178    4.7376    0.7237 C.3     1  LIG1       -0.0351
     21 H           1.1300    5.6242    1.2294 H       1  LIG1        0.0279
     22 H           2.1920    5.0928   -0.0646 H       1  LIG1        0.0279
     23 H           2.1084    4.1723    1.4561 H       1  LIG1        0.0279
     24 C          -1.3931    5.7124   -0.0292 C.ar    1  LIG1        0.0685
     25 C          -0.8293    6.8823   -0.4961 C.ar    1  LIG1        0.1356
     26 C          -1.6049    8.0643   -0.2647 C.ar    1  LIG1        0.0070
     27 C          -2.8050    7.7776    0.3538 C.ar    1  LIG1        0.0365
     28 S          -2.9578    6.0628    0.6880 S.2     1  LIG1       -0.0831
     29 O           0.3863    6.8877   -1.1236 O.3     1  LIG1       -0.5053
     30 H           0.5034    7.7389   -1.5646 H       1  LIG1        0.2922
     31 C          -1.1227    9.4380   -0.6378 C.3     1  LIG1       -0.0351
     32 H          -1.6047   10.1967   -0.0178 H       1  LIG1        0.0279
     33 H          -1.3497    9.6894   -1.6805 H       1  LIG1        0.0279
     34 H          -0.0395    9.5292   -0.4868 H       1  LIG1        0.0279
     35 C          -3.8725    8.6912    0.7212 C.ar    1  LIG1        0.0679
     36 C          -4.4707    9.6697   -0.0458 C.ar    1  LIG1        0.1350
     37 C          -5.5330   10.3788    0.6118 C.ar    1  LIG1       -0.0014
     38 C          -5.7312    9.9091    1.8812 C.ar    1  LIG1       -0.0172
     39 S          -4.6387    8.6359    2.3041 S.2     1  LIG1       -0.0921
     40 H          -6.4641   10.2524    2.5986 H       1  LIG1        0.0697
     41 O          -4.0819    9.9102   -1.3343 O.3     1  LIG1       -0.5053
     42 H          -4.7058   10.5251   -1.7407 H       1  LIG1        0.2922
     43 C          -6.3175   11.4788   -0.0484 C.3     1  LIG1       -0.0357
     44 H          -7.0760   11.8788    0.6282 H       1  LIG1        0.0279
     45 H          -6.8431   11.1260   -0.9464 H       1  LIG1        0.0279
     46 H          -5.6730   12.3150   -0.3488 H       1  LIG1        0.0279
@<TRIPOS>BOND
     1     6     1    1
     2     5     1   ar
     3     5     4   ar
     4     1     2   ar
     5    42    41    1
     6    33    31    1
     7    30    29    1
     8    41    36    1
     9    29    25    1
    10    45    43    1
    11     4    13    1
    12     4     3   ar
    13     2     7    1
    14     2     3   ar
    15    17    13   ar
    16    17    16   ar
    17    31    34    1
    18    31    26    1
    19    31    32    1
    20    25    26   ar
    21    25    24   ar
    22    13    14   ar
    23    46    43    1
    24     7     8    1
    25    26    27   ar
    26     3     9    1
    27    16    24    1
    28    16    15   ar
    29    14    18    1
    30    14    15   ar
    31    22    20    1
    32    43    37    1
    33    43    44    1
    34    36    37   ar
    35    36    35   ar
    36    24    28   ar
    37    18    19    1
    38    15    20    1
    39    27    28   ar
    40    27    35    1
    41    37    38   ar
    42    35    39   ar
    43    20    21    1
    44    20    23    1
    45    11     9    1
    46     9    10    1
    47     9    12    1
    48    38    39   ar
    49    38    40    1
