@<TRIPOS>MOLECULE
mol_data/opt/b3lyp/geoms/mol2/5fi5fi.out
 24 25 0 0 0
SMALL
GASTEIGER

@<TRIPOS>ATOM
      1 C          -2.0856   -1.7724   -0.6601 C.ar    1  LIG1        0.0180
      2 C          -0.7881   -1.8380   -0.2338 C.ar    1  LIG1        0.1273
      3 C          -0.2224   -0.5670    0.1288 C.ar    1  LIG1        0.0064
      4 C          -1.1197    0.4636   -0.0605 C.ar    1  LIG1        0.0359
      5 S          -2.6568   -0.1356   -0.6637 S.2     1  LIG1       -0.0920
      6 H          -2.7197   -2.5916   -0.9635 H       1  LIG1        0.0730
      7 O          -0.1216   -3.0287   -0.1335 O.3     1  LIG1       -0.5060
      8 H           0.8080   -2.8493    0.0553 H       1  LIG1        0.2922
      9 C           1.1650   -0.4238    0.6871 C.3     1  LIG1       -0.0351
     10 H           1.2549    0.4957    1.2690 H       1  LIG1        0.0279
     11 H           1.9267   -0.3792   -0.1004 H       1  LIG1        0.0279
     12 H           1.4097   -1.2598    1.3554 H       1  LIG1        0.0279
     13 C          -0.9247    1.8866    0.1618 C.ar    1  LIG1        0.0679
     14 C           0.1151    2.6909   -0.2549 C.ar    1  LIG1        0.1350
     15 C          -0.0136    4.0741    0.1125 C.ar    1  LIG1       -0.0014
     16 C          -1.1731    4.2989    0.8025 C.ar    1  LIG1       -0.0172
     17 S          -2.1031    2.8581    1.0359 S.2     1  LIG1       -0.0921
     18 H          -1.5296    5.2421    1.1933 H       1  LIG1        0.0697
     19 O           1.1640    2.1928   -0.9783 O.3     1  LIG1       -0.5053
     20 H           1.7211    2.9269   -1.2668 H       1  LIG1        0.2922
     21 C           1.0068    5.1176   -0.2494 C.3     1  LIG1       -0.0357
     22 H           0.7119    6.1000    0.1263 H       1  LIG1        0.0279
     23 H           1.1283    5.2129   -1.3372 H       1  LIG1        0.0279
     24 H           1.9930    4.8882    0.1749 H       1  LIG1        0.0279
@<TRIPOS>BOND
     1    23    21    1
     2    20    19    1
     3    19    14    1
     4     6     1    1
     5     5     1   ar
     6     5     4   ar
     7     1     2   ar
     8    14    15   ar
     9    14    13   ar
    10    21    15    1
    11    21    22    1
    12    21    24    1
    13     2     7    1
    14     2     3   ar
    15     7     8    1
    16    11     9    1
    17     4     3   ar
    18     4    13    1
    19    15    16   ar
    20     3     9    1
    21    13    17   ar
    22     9    10    1
    23     9    12    1
    24    16    17   ar
    25    16    18    1
