@<TRIPOS>MOLECULE
mol_data/opt/b3lyp/geoms/mol2/5fi5fi5fi5fi.out
 46 49 0 0 0
SMALL
GASTEIGER

@<TRIPOS>ATOM
      1 C          -1.4658   -1.6619   -1.9967 C.ar    1  LIG1        0.0180
      2 C          -0.8081   -1.8610   -0.8146 C.ar    1  LIG1        0.1273
      3 C          -0.4496   -0.6501   -0.1282 C.ar    1  LIG1        0.0064
      4 C          -0.8309    0.4712   -0.8367 C.ar    1  LIG1        0.0359
      5 S          -1.6443    0.0300   -2.3309 S.2     1  LIG1       -0.0920
      6 H          -1.8485   -2.4136   -2.6703 H       1  LIG1        0.0730
      7 O          -0.5595   -3.1167   -0.3302 O.3     1  LIG1       -0.5060
      8 H           0.0157   -3.0421    0.4416 H       1  LIG1        0.2922
      9 C           0.2113   -0.6455    1.2212 C.3     1  LIG1       -0.0351
     10 H           0.0234    0.2962    1.7406 H       1  LIG1        0.0279
     11 H           1.2996   -0.7593    1.1516 H       1  LIG1        0.0279
     12 H          -0.1797   -1.4528    1.8546 H       1  LIG1        0.0279
     13 C          -0.6289    1.8691   -0.4989 C.ar    1  LIG1        0.0685
     14 C           0.5239    2.4972   -0.0751 C.ar    1  LIG1        0.1356
     15 C           0.3945    3.9023    0.1731 C.ar    1  LIG1        0.0070
     16 C          -0.8773    4.3589   -0.1099 C.ar    1  LIG1        0.0365
     17 S          -1.9208    3.0506   -0.6376 S.2     1  LIG1       -0.0831
     18 O           1.6912    1.8041    0.0986 O.3     1  LIG1       -0.5053
     19 H           2.4153    2.4369    0.1878 H       1  LIG1        0.2922
     20 C           1.5224    4.7368    0.7117 C.3     1  LIG1       -0.0351
     21 H           1.1378    5.6224    1.2214 H       1  LIG1        0.0279
     22 H           2.1915    5.0935   -0.0802 H       1  LIG1        0.0279
     23 H           2.1178    4.1702    1.4393 H       1  LIG1        0.0279
     24 C          -1.3933    5.7125   -0.0209 C.ar    1  LIG1        0.0685
     25 C          -0.8326    6.8833   -0.4892 C.ar    1  LIG1        0.1356
     26 C          -1.6069    8.0648   -0.2508 C.ar    1  LIG1        0.0070
     27 C          -2.8030    7.7768    0.3749 C.ar    1  LIG1        0.0365
     28 S          -2.9534    6.0614    0.7070 S.2     1  LIG1       -0.0831
     29 O           0.3789    6.8900   -1.1245 O.3     1  LIG1       -0.5053
     30 H           0.4932    7.7421   -1.5645 H       1  LIG1        0.2922
     31 C          -1.1272    9.4392   -0.6243 C.3     1  LIG1       -0.0351
     32 H          -1.6055   10.1968    0.0000 H       1  LIG1        0.0279
     33 H          -1.3606    9.6924   -1.6652 H       1  LIG1        0.0279
     34 H          -0.0431    9.5302   -0.4799 H       1  LIG1        0.0279
     35 C          -3.8683    8.6896    0.7507 C.ar    1  LIG1        0.0679
     36 C          -4.4714    9.6695   -0.0107 C.ar    1  LIG1        0.1350
     37 C          -5.5297   10.3771    0.6549 C.ar    1  LIG1       -0.0014
     38 C          -5.7198    9.9051    1.9247 C.ar    1  LIG1       -0.0172
     39 S          -4.6245    8.6312    2.3383 S.2     1  LIG1       -0.0921
     40 H          -6.4482   10.2469    2.6472 H       1  LIG1        0.0697
     41 O          -4.0907    9.9123   -1.3011 O.3     1  LIG1       -0.5053
     42 H          -4.7173   10.5279   -1.7025 H       1  LIG1        0.2922
     43 C          -6.3184   11.4783    0.0017 C.3     1  LIG1       -0.0357
     44 H          -7.0728   11.8768    0.6838 H       1  LIG1        0.0279
     45 H          -6.8494   11.1272   -0.8937 H       1  LIG1        0.0279
     46 H          -5.6759   12.3152   -0.3010 H       1  LIG1        0.0279
@<TRIPOS>BOND
     1     6     1    1
     2     5     1   ar
     3     5     4   ar
     4     1     2   ar
     5    42    41    1
     6    33    31    1
     7    30    29    1
     8    41    36    1
     9    29    25    1
    10    45    43    1
    11     4    13    1
    12     4     3   ar
    13     2     7    1
    14     2     3   ar
    15    17    13   ar
    16    17    16   ar
    17    31    34    1
    18    31    26    1
    19    31    32    1
    20    13    14   ar
    21    25    26   ar
    22    25    24   ar
    23     7     8    1
    24    46    43    1
    25    26    27   ar
    26     3     9    1
    27    16    24    1
    28    16    15   ar
    29    22    20    1
    30    14    18    1
    31    14    15   ar
    32    24    28   ar
    33    36    37   ar
    34    36    35   ar
    35    43    37    1
    36    43    44    1
    37    18    19    1
    38    15    20    1
    39    27    28   ar
    40    27    35    1
    41    37    38   ar
    42    20    21    1
    43    20    23    1
    44    35    39   ar
    45    11     9    1
    46     9    10    1
    47     9    12    1
    48    38    39   ar
    49    38    40    1
