@<TRIPOS>MOLECULE
mol_data/opt/b3lyp/geoms/mol2/5fi5fi-.out
 24 25 0 0 0
SMALL
GASTEIGER

@<TRIPOS>ATOM
      1 C          -2.0901   -1.7732   -0.6499 C.ar    1  LIG1        0.0180
      2 C          -0.7900   -1.8382   -0.2318 C.ar    1  LIG1        0.1273
      3 C          -0.2218   -0.5668    0.1251 C.ar    1  LIG1        0.0064
      4 C          -1.1203    0.4637   -0.0599 C.ar    1  LIG1        0.0359
      5 S          -2.6611   -0.1363   -0.6523 S.2     1  LIG1       -0.0920
      6 H          -2.7262   -2.5928   -0.9482 H       1  LIG1        0.0730
      7 O          -0.1229   -3.0288   -0.1339 O.3     1  LIG1       -0.5060
      8 H           0.8079   -2.8492    0.0491 H       1  LIG1        0.2922
      9 C           1.1692   -0.4228    0.6745 C.3     1  LIG1       -0.0351
     10 H           1.2630    0.4982    1.2534 H       1  LIG1        0.0279
     11 H           1.9260   -0.3807   -0.1178 H       1  LIG1        0.0279
     12 H           1.4175   -1.2572    1.3434 H       1  LIG1        0.0279
     13 C          -0.9236    1.8869    0.1590 C.ar    1  LIG1        0.0679
     14 C           0.1137    2.6904   -0.2655 C.ar    1  LIG1        0.1350
     15 C          -0.0126    4.0742    0.1003 C.ar    1  LIG1       -0.0014
     16 C          -1.1677    4.3003    0.7971 C.ar    1  LIG1       -0.0172
     17 S          -2.0965    2.8601    1.0386 S.2     1  LIG1       -0.0921
     18 H          -1.5216    5.2442    1.1887 H       1  LIG1        0.0697
     19 O           1.1582    2.1908   -0.9942 O.3     1  LIG1       -0.5053
     20 H           1.7128    2.9244   -1.2888 H       1  LIG1        0.2922
     21 C           1.0057    5.1170   -0.2696 C.3     1  LIG1       -0.0357
     22 H           0.7140    6.0997    0.1077 H       1  LIG1        0.0279
     23 H           1.1195    5.2117   -1.3582 H       1  LIG1        0.0279
     24 H           1.9948    4.8874    0.1478 H       1  LIG1        0.0279
@<TRIPOS>BOND
     1    23    21    1
     2    20    19    1
     3    19    14    1
     4     6     1    1
     5     5     1   ar
     6     5     4   ar
     7     1     2   ar
     8    21    15    1
     9    21    22    1
    10    21    24    1
    11    14    15   ar
    12    14    13   ar
    13     2     7    1
    14     2     3   ar
    15     7     8    1
    16    11     9    1
    17     4     3   ar
    18     4    13    1
    19    15    16   ar
    20     3     9    1
    21    13    17   ar
    22     9    10    1
    23     9    12    1
    24    16    17   ar
    25    16    18    1
