@<TRIPOS>MOLECULE
mol_data/opt/b3lyp/geoms/mol2/5fi5fi5fi-5fi.out
 46 49 0 0 0
SMALL
GASTEIGER

@<TRIPOS>ATOM
      1 C          -1.4480   -1.6558   -2.0185 C.ar    1  LIG1        0.0180
      2 C          -0.8000   -1.8583   -0.8317 C.ar    1  LIG1        0.1273
      3 C          -0.4473   -0.6495   -0.1388 C.ar    1  LIG1        0.0064
      4 C          -0.8229    0.4739   -0.8471 C.ar    1  LIG1        0.0359
      5 S          -1.6240    0.0370   -2.3491 S.2     1  LIG1       -0.0920
      6 H          -1.8250   -2.4056   -2.6975 H       1  LIG1        0.0730
      7 O          -0.5553   -3.1155   -0.3490 O.3     1  LIG1       -0.5060
      8 H           0.0131   -3.0431    0.4281 H       1  LIG1        0.2922
      9 C           0.2025   -0.6488    1.2161 C.3     1  LIG1       -0.0351
     10 H           0.0098    0.2912    1.7369 H       1  LIG1        0.0279
     11 H           1.2914   -0.7619    1.1552 H       1  LIG1        0.0279
     12 H          -0.1934   -1.4582    1.8437 H       1  LIG1        0.0279
     13 C          -0.6239    1.8709   -0.5036 C.ar    1  LIG1        0.0685
     14 C           0.5251    2.4979   -0.0682 C.ar    1  LIG1        0.1356
     15 C           0.3934    3.9023    0.1827 C.ar    1  LIG1        0.0070
     16 C          -0.8760    4.3596   -0.1100 C.ar    1  LIG1        0.0365
     17 S          -1.9148    3.0526   -0.6501 S.2     1  LIG1       -0.0831
     18 O           1.6910    1.8046    0.1136 O.3     1  LIG1       -0.5053
     19 H           2.4143    2.4372    0.2105 H       1  LIG1        0.2922
     20 C           1.5166    4.7355    0.7333 C.3     1  LIG1       -0.0351
     21 H           1.1276    5.6197    1.2419 H       1  LIG1        0.0279
     22 H           2.1926    5.0942   -0.0519 H       1  LIG1        0.0279
     23 H           2.1056    4.1670    1.4645 H       1  LIG1        0.0279
     24 C          -1.3930    5.7128   -0.0217 C.ar    1  LIG1        0.0685
     25 C          -0.8285    6.8850   -0.4819 C.ar    1  LIG1        0.1356
     26 C          -1.6051    8.0657   -0.2470 C.ar    1  LIG1        0.0070
     27 C          -2.8066    7.7757    0.3675 C.ar    1  LIG1        0.0365
     28 S          -2.9595    6.0594    0.6936 S.2     1  LIG1       -0.0831
     29 O           0.3885    6.8937   -1.1066 O.3     1  LIG1       -0.5053
     30 H           0.5063    7.7469   -1.5435 H       1  LIG1        0.2922
     31 C          -1.1227    9.4412   -0.6129 C.3     1  LIG1       -0.0351
     32 H          -1.6070   10.1971    0.0088 H       1  LIG1        0.0279
     33 H          -1.3469    9.6967   -1.6553 H       1  LIG1        0.0279
     34 H          -0.0400    9.5324   -0.4585 H       1  LIG1        0.0279
     35 C          -3.8752    8.6873    0.7364 C.ar    1  LIG1        0.0679
     36 C          -4.4726    9.6684   -0.0281 C.ar    1  LIG1        0.1350
     37 C          -5.5366   10.3742    0.6300 C.ar    1  LIG1       -0.0014
     38 C          -5.7370    9.8997    1.8974 C.ar    1  LIG1       -0.0172
     39 S          -4.6445    8.6256    2.3176 S.2     1  LIG1       -0.0921
     40 H          -6.4714   10.2399    2.6146 H       1  LIG1        0.0697
     41 O          -4.0813    9.9139   -1.3149 O.3     1  LIG1       -0.5053
     42 H          -4.7047   10.5300   -1.7203 H       1  LIG1        0.2922
     43 C          -6.3206   11.4762   -0.0276 C.3     1  LIG1       -0.0357
     44 H          -7.0808   11.8730    0.6490 H       1  LIG1        0.0279
     45 H          -6.8440   11.1264   -0.9280 H       1  LIG1        0.0279
     46 H          -5.6761   12.3140   -0.3235 H       1  LIG1        0.0279
@<TRIPOS>BOND
     1     6     1    1
     2     5     1   ar
     3     5     4   ar
     4     1     2   ar
     5    42    41    1
     6    33    31    1
     7    30    29    1
     8    41    36    1
     9    29    25    1
    10    45    43    1
    11     4    13    1
    12     4     3   ar
    13     2     7    1
    14     2     3   ar
    15    17    13   ar
    16    17    16   ar
    17    31    34    1
    18    31    26    1
    19    31    32    1
    20    13    14   ar
    21    25    26   ar
    22    25    24   ar
    23     7     8    1
    24    46    43    1
    25    26    27   ar
    26     3     9    1
    27    16    24    1
    28    16    15   ar
    29    14    18    1
    30    14    15   ar
    31    22    20    1
    32    36    37   ar
    33    36    35   ar
    34    43    37    1
    35    43    44    1
    36    24    28   ar
    37    18    19    1
    38    15    20    1
    39    27    28   ar
    40    27    35    1
    41    37    38   ar
    42    20    21    1
    43    20    23    1
    44    35    39   ar
    45    11     9    1
    46     9    10    1
    47     9    12    1
    48    38    39   ar
    49    38    40    1
