@<TRIPOS>MOLECULE
mol_data/opt/b3lyp/geoms/mol2/5fl.out
 14 14 0 0 0
SMALL
GASTEIGER

@<TRIPOS>ATOM
      1 C          -2.2588   -1.6900    0.0003 C.ar    1  LIG1        0.0209
      2 C          -0.8938   -1.7874   -0.0003 C.ar    1  LIG1        0.1656
      3 C          -0.2551   -0.4860   -0.0003 C.ar    1  LIG1        0.1683
      4 C          -1.1685    0.5349    0.0003 C.ar    1  LIG1        0.0211
      5 S          -2.7972   -0.0451    0.0008 S.2     1  LIG1       -0.0976
      6 H          -2.9572   -2.5132    0.0004 H       1  LIG1        0.0731
      7 H          -0.9440    1.5905    0.0004 H       1  LIG1        0.0731
      8 O          -0.2987   -3.0237   -0.0008 O.3     1  LIG1       -0.5029
      9 H           0.6583   -2.9355   -0.0011 H       1  LIG1        0.2923
     10 O           1.0810   -0.1652   -0.0007 O.3     1  LIG1       -0.4909
     11 C           2.0708   -1.1742   -0.0011 C.3     1  LIG1        0.0790
     12 H           3.0311   -0.6554   -0.0013 H       1  LIG1        0.0660
     13 H           2.0297   -1.8002    0.9029 H       1  LIG1        0.0660
     14 H           2.0292   -1.8000   -0.9051 H       1  LIG1        0.0660
@<TRIPOS>BOND
     1    14    11    1
     2    12    11    1
     3    11    10    1
     4    11    13    1
     5     9     8    1
     6     8     2    1
     7    10     3    1
     8     2     3   ar
     9     2     1   ar
    10     3     4   ar
    11     4     7    1
    12     4     5   ar
    13     1     6    1
    14     1     5   ar
