@<TRIPOS>MOLECULE
mol_data/opt/b3lyp/geoms/mol2/5fl5fl-5fl-5fl.out
 50 53 0 0 0
SMALL
GASTEIGER

@<TRIPOS>ATOM
      1 C          -2.4088   -1.9169    1.4915 C.ar    1  LIG1        0.0215
      2 C          -1.4815   -2.1913    0.5301 C.ar    1  LIG1        0.1663
      3 C          -0.7163   -1.0438    0.1308 C.ar    1  LIG1        0.1766
      4 C          -1.0821    0.1182    0.7744 C.ar    1  LIG1        0.0749
      5 S          -2.3634   -0.2342    1.9306 S.2     1  LIG1       -0.0885
      6 H          -3.1194   -2.5925    1.9429 H       1  LIG1        0.0731
      7 O          -1.2870   -3.4129   -0.0456 O.3     1  LIG1       -0.5029
      8 H          -0.8100   -3.2478   -0.8741 H       1  LIG1        0.2923
      9 O           0.2003   -1.1595   -0.8863 O.3     1  LIG1       -0.4903
     10 C           1.4667   -1.7174   -0.4792 C.3     1  LIG1        0.0790
     11 H           2.0685   -1.7901   -1.3875 H       1  LIG1        0.0660
     12 H           1.9577   -1.0594    0.2391 H       1  LIG1        0.0660
     13 H           1.3350   -2.7163   -0.0466 H       1  LIG1        0.0660
     14 C          -0.6152    1.4796    0.5947 C.ar    1  LIG1        0.0753
     15 C           0.6583    1.9758    0.4542 C.ar    1  LIG1        0.1748
     16 C           0.7172    3.3929    0.2600 C.ar    1  LIG1        0.1773
     17 C          -0.5110    4.0181    0.2783 C.ar    1  LIG1        0.0755
     18 S          -1.7721    2.8095    0.5031 S.2     1  LIG1       -0.0794
     19 O           1.8028    1.2459    0.4971 O.3     1  LIG1       -0.5025
     20 H           2.5242    1.8885    0.3859 H       1  LIG1        0.2923
     21 O           1.9739    3.9223    0.1125 O.3     1  LIG1       -0.4903
     22 C           2.1940    4.7741   -1.0182 C.3     1  LIG1        0.0790
     23 H           3.2738    4.9226   -1.0768 H       1  LIG1        0.0660
     24 H           1.8346    4.2996   -1.9383 H       1  LIG1        0.0660
     25 H           1.7026    5.7401   -0.8865 H       1  LIG1        0.0660
     26 C          -0.8554    5.4223    0.2018 C.ar    1  LIG1        0.0753
     27 C          -0.2233    6.5035    0.7701 C.ar    1  LIG1        0.1748
     28 C          -0.8592    7.7604    0.5050 C.ar    1  LIG1        0.1773
     29 C          -2.0106    7.6593   -0.2453 C.ar    1  LIG1        0.0755
     30 S          -2.2878    5.9691   -0.6689 S.2     1  LIG1       -0.0794
     31 O           0.9129    6.4360    1.5085 O.3     1  LIG1       -0.5025
     32 H           1.1059    7.3473    1.7855 H       1  LIG1        0.2923
     33 O          -0.2387    8.8477    1.0547 O.3     1  LIG1       -0.4903
     34 C          -0.1999   10.0672    0.3062 C.3     1  LIG1        0.0790
     35 H           0.6062   10.6605    0.7422 H       1  LIG1        0.0660
     36 H           0.0160    9.8697   -0.7493 H       1  LIG1        0.0660
     37 H          -1.1416   10.6110    0.3977 H       1  LIG1        0.0660
     38 C          -2.9820    8.6635   -0.6357 C.ar    1  LIG1        0.0747
     39 C          -3.5701    9.6359    0.1366 C.ar    1  LIG1        0.1742
     40 C          -4.5530   10.4092   -0.5664 C.ar    1  LIG1        0.1689
     41 C          -4.7297   10.0200   -1.8635 C.ar    1  LIG1        0.0218
     42 S          -3.6625    8.7042   -2.2652 S.2     1  LIG1       -0.0885
     43 H          -5.4058   10.4175   -2.6046 H       1  LIG1        0.0731
     44 O          -3.2727    9.8672    1.4433 O.3     1  LIG1       -0.5025
     45 H          -3.8840   10.5518    1.7572 H       1  LIG1        0.2923
     46 O          -5.1760   11.3871    0.1527 O.3     1  LIG1       -0.4909
     47 C          -6.2140   12.0987   -0.5117 C.3     1  LIG1        0.0790
     48 H          -6.6112   12.8129    0.2100 H       1  LIG1        0.0660
     49 H          -5.8234   12.6374   -1.3838 H       1  LIG1        0.0660
     50 H          -7.0108   11.4172   -0.8336 H       1  LIG1        0.0660
@<TRIPOS>BOND
     1    43    41    1
     2    42    41   ar
     3    42    38   ar
     4    24    22    1
     5    41    40   ar
     6    11    10    1
     7    49    47    1
     8    23    22    1
     9    22    25    1
    10    22    21    1
    11     9    10    1
    12     9     3    1
    13     8     7    1
    14    50    47    1
    15    36    34    1
    16    30    29   ar
    17    30    26   ar
    18    38    29    1
    19    38    39   ar
    20    40    39   ar
    21    40    46    1
    22    47    46    1
    23    47    48    1
    24    10    13    1
    25    10    12    1
    26    29    28   ar
    27     7     2    1
    28    21    16    1
    29     3     2   ar
    30     3     4   ar
    31    39    44    1
    32    26    17    1
    33    26    27   ar
    34    16    17   ar
    35    16    15   ar
    36    17    18   ar
    37    34    37    1
    38    34    35    1
    39    34    33    1
    40    20    19    1
    41    15    19    1
    42    15    14   ar
    43    18    14   ar
    44    28    27   ar
    45    28    33    1
    46     2     1   ar
    47    14     4    1
    48    27    31    1
    49     4     5   ar
    50    44    45    1
    51     1     5   ar
    52     1     6    1
    53    31    32    1
