@<TRIPOS>MOLECULE
mol_data/opt/b3lyp/geoms/mol2/5fl5fl-5fl-.out
 38 40 0 0 0
SMALL
GASTEIGER

@<TRIPOS>ATOM
      1 C          -0.5025   -2.3657    1.6352 C.ar    1  LIG1        0.0215
      2 C          -0.9791   -2.2371    0.3631 C.ar    1  LIG1        0.1663
      3 C          -0.8500   -0.9069   -0.1591 C.ar    1  LIG1        0.1766
      4 C          -0.2917   -0.0040    0.7171 C.ar    1  LIG1        0.0749
      5 S           0.0728   -0.8337    2.2357 S.2     1  LIG1       -0.0885
      6 H          -0.4566   -3.2533    2.2471 H       1  LIG1        0.0731
      7 O          -1.5125   -3.2365   -0.3834 O.3     1  LIG1       -0.5029
      8 H          -1.8203   -2.8197   -1.2054 H       1  LIG1        0.2923
      9 O          -1.3071   -0.6685   -1.4350 O.3     1  LIG1       -0.4903
     10 C          -0.2850   -0.3963   -2.4112 C.3     1  LIG1        0.0790
     11 H          -0.7984   -0.3063   -3.3697 H       1  LIG1        0.0660
     12 H           0.2313    0.5405   -2.1860 H       1  LIG1        0.0660
     13 H           0.4400   -1.2172   -2.4537 H       1  LIG1        0.0660
     14 C          -0.0369    1.4123    0.5601 C.ar    1  LIG1        0.0753
     15 C           1.0432    2.1321    1.0300 C.ar    1  LIG1        0.1748
     16 C           0.9978    3.5283    0.7034 C.ar    1  LIG1        0.1773
     17 C          -0.1277    3.8758   -0.0147 C.ar    1  LIG1        0.0755
     18 S          -1.1507    2.4754   -0.2948 S.2     1  LIG1       -0.0794
     19 O           2.1153    1.6388    1.7088 O.3     1  LIG1       -0.5025
     20 H           2.0499    0.6712    1.7500 H       1  LIG1        0.2923
     21 O           2.0152    4.3964    0.9522 O.3     1  LIG1       -0.4903
     22 C           2.3120    4.6338    2.3368 C.3     1  LIG1        0.0790
     23 H           3.1362    5.3493    2.3443 H       1  LIG1        0.0660
     24 H           1.4458    5.0720    2.8413 H       1  LIG1        0.0660
     25 H           2.6216    3.7132    2.8391 H       1  LIG1        0.0660
     26 C          -0.4944    5.1767   -0.5347 C.ar    1  LIG1        0.0747
     27 C          -0.4117    6.4060    0.0740 C.ar    1  LIG1        0.1742
     28 C          -0.8807    7.4813   -0.7522 C.ar    1  LIG1        0.1689
     29 C          -1.3275    7.0804   -1.9785 C.ar    1  LIG1        0.0218
     30 S          -1.1618    5.3571   -2.1601 S.2     1  LIG1       -0.0885
     31 H          -1.7358    7.6755   -2.7804 H       1  LIG1        0.0731
     32 O           0.0218    6.6258    1.3425 O.3     1  LIG1       -0.5025
     33 H          -0.0619    7.5779    1.5067 H       1  LIG1        0.2923
     34 O          -0.8328    8.7281   -0.1983 O.3     1  LIG1       -0.4909
     35 C          -1.3224    9.7962   -0.9995 C.3     1  LIG1        0.0790
     36 H          -1.2139   10.7046   -0.4060 H       1  LIG1        0.0660
     37 H          -0.7402    9.8900   -1.9244 H       1  LIG1        0.0660
     38 H          -2.3794    9.6447   -1.2508 H       1  LIG1        0.0660
@<TRIPOS>BOND
     1    11    10    1
     2    31    29    1
     3    13    10    1
     4    10    12    1
     5    10     9    1
     6    30    29   ar
     7    30    26   ar
     8    29    28   ar
     9    37    35    1
    10     9     3    1
    11    38    35    1
    12     8     7    1
    13    35    36    1
    14    35    34    1
    15    28    34    1
    16    28    27   ar
    17    26    17    1
    18    26    27   ar
    19     7     2    1
    20    18    17   ar
    21    18    14   ar
    22     3     2   ar
    23     3     4   ar
    24    17    16   ar
    25    27    32    1
    26     2     1   ar
    27    14     4    1
    28    14    15   ar
    29    16    21    1
    30    16    15   ar
    31     4     5   ar
    32    21    22    1
    33    15    19    1
    34    32    33    1
    35     1     5   ar
    36     1     6    1
    37    19    20    1
    38    22    23    1
    39    22    25    1
    40    22    24    1
