@<TRIPOS>MOLECULE
mol_data/opt/b3lyp/geoms/mol2/5fl5fl-5fl5fl.out
 50 53 0 0 0
SMALL
GASTEIGER

@<TRIPOS>ATOM
      1 C          -2.3186   -1.9576    1.2986 C.ar    1  LIG1        0.0215
      2 C          -1.2958   -2.1568    0.4187 C.ar    1  LIG1        0.1663
      3 C          -0.5796   -0.9554    0.0951 C.ar    1  LIG1        0.1766
      4 C          -1.0795    0.1705    0.7133 C.ar    1  LIG1        0.0749
      5 S          -2.4271   -0.2823    1.7529 S.2     1  LIG1       -0.0885
      6 H          -3.0177   -2.6854    1.6817 H       1  LIG1        0.0731
      7 O          -0.9720   -3.3568   -0.1441 O.3     1  LIG1       -0.5029
      8 H          -0.4550   -3.1548   -0.9395 H       1  LIG1        0.2923
      9 O           0.4270   -0.9897   -0.8390 O.3     1  LIG1       -0.4903
     10 C           1.6831   -1.4894   -0.3363 C.3     1  LIG1        0.0790
     11 H           2.3634   -1.5054   -1.1902 H       1  LIG1        0.0660
     12 H           2.0737   -0.8253    0.4365 H       1  LIG1        0.0660
     13 H           1.5718   -2.5044    0.0623 H       1  LIG1        0.0660
     14 C          -0.6903    1.5600    0.5820 C.ar    1  LIG1        0.0753
     15 C           0.5551    2.1428    0.5559 C.ar    1  LIG1        0.1748
     16 C           0.5169    3.5574    0.3913 C.ar    1  LIG1        0.1773
     17 C          -0.7437    4.1104    0.3225 C.ar    1  LIG1        0.0755
     18 S          -1.9264    2.8173    0.4268 S.2     1  LIG1       -0.0794
     19 O           1.7380    1.4822    0.6865 O.3     1  LIG1       -0.5025
     20 H           2.4210    2.1618    0.8015 H       1  LIG1        0.2923
     21 O           1.7154    4.2652    0.3495 O.3     1  LIG1       -0.4903
     22 C           2.1429    4.6084   -0.9902 C.3     1  LIG1        0.0790
     23 H           3.0952    5.1302   -0.8832 H       1  LIG1        0.0660
     24 H           2.2753    3.7007   -1.5863 H       1  LIG1        0.0660
     25 H           1.4090    5.2610   -1.4704 H       1  LIG1        0.0660
     26 C          -1.1255    5.4993    0.2155 C.ar    1  LIG1        0.0753
     27 C          -0.4368    6.6192    0.6563 C.ar    1  LIG1        0.1748
     28 C          -1.1448    7.8476    0.4292 C.ar    1  LIG1        0.1773
     29 C          -2.3797    7.6710   -0.1568 C.ar    1  LIG1        0.0755
     30 S          -2.6854    5.9677   -0.4567 S.2     1  LIG1       -0.0794
     31 O           0.7687    6.6545    1.2721 O.3     1  LIG1       -0.5025
     32 H           1.2164    5.7915    1.1640 H       1  LIG1        0.2923
     33 O          -0.6716    9.0709    0.7961 O.3     1  LIG1       -0.4903
     34 C           0.5266    9.4936    0.1358 C.3     1  LIG1        0.0790
     35 H           0.7474   10.4894    0.5243 H       1  LIG1        0.0660
     36 H           1.3611    8.8213    0.3543 H       1  LIG1        0.0660
     37 H           0.3734    9.5544   -0.9491 H       1  LIG1        0.0660
     38 C          -3.3541    8.6792   -0.5200 C.ar    1  LIG1        0.0747
     39 C          -3.7986    9.7523    0.2158 C.ar    1  LIG1        0.1742
     40 C          -4.7867   10.5361   -0.4718 C.ar    1  LIG1        0.1689
     41 C          -5.1042   10.0617   -1.7118 C.ar    1  LIG1        0.0218
     42 S          -4.1749    8.6373   -2.0843 S.2     1  LIG1       -0.0885
     43 H          -5.8143   10.4500   -2.4254 H       1  LIG1        0.0731
     44 O          -3.4082   10.0484    1.4780 O.3     1  LIG1       -0.5025
     45 H          -3.9095   10.8312    1.7537 H       1  LIG1        0.2923
     46 O          -5.2765   11.6135    0.2081 O.3     1  LIG1       -0.4909
     47 C          -6.2884   12.3688   -0.4458 C.3     1  LIG1        0.0790
     48 H          -6.5656   13.1727    0.2367 H       1  LIG1        0.0660
     49 H          -5.9134   12.7967   -1.3838 H       1  LIG1        0.0660
     50 H          -7.1667   11.7467   -0.6581 H       1  LIG1        0.0660
@<TRIPOS>BOND
     1    43    41    1
     2    42    41   ar
     3    42    38   ar
     4    41    40   ar
     5    24    22    1
     6    25    22    1
     7    49    47    1
     8    11    10    1
     9    22    23    1
    10    22    21    1
    11    37    34    1
    12     8     7    1
    13     9    10    1
    14     9     3    1
    15    50    47    1
    16    38    29    1
    17    38    39   ar
    18    40    46    1
    19    40    39   ar
    20    30    29   ar
    21    30    26   ar
    22    47    46    1
    23    47    48    1
    24    10    13    1
    25    10    12    1
    26    29    28   ar
    27     7     2    1
    28     3     2   ar
    29     3     4   ar
    30    34    36    1
    31    34    35    1
    32    34    33    1
    33    26    17    1
    34    26    27   ar
    35    39    44    1
    36    17    16   ar
    37    17    18   ar
    38    21    16    1
    39    16    15   ar
    40     2     1   ar
    41    18    14   ar
    42    28    27   ar
    43    28    33    1
    44    15    14   ar
    45    15    19    1
    46    14     4    1
    47    27    31    1
    48    19    20    1
    49     4     5   ar
    50    32    31    1
    51     1     6    1
    52     1     5   ar
    53    44    45    1
