@<TRIPOS>MOLECULE
mol_data/opt/b3lyp/geoms/mol2/5fl5fl-5fl5fl-.out
 50 53 0 0 0
SMALL
GASTEIGER

@<TRIPOS>ATOM
      1 C          -2.4488   -1.9237    1.4244 C.ar    1  LIG1        0.0215
      2 C          -1.4986   -2.1938    0.4844 C.ar    1  LIG1        0.1663
      3 C          -0.7232   -1.0449    0.1097 C.ar    1  LIG1        0.1766
      4 C          -1.1038    0.1140    0.7503 C.ar    1  LIG1        0.0749
      5 S          -2.4130   -0.2433    1.8732 S.2     1  LIG1       -0.0885
      6 H          -3.1706   -2.6010    1.8549 H       1  LIG1        0.0731
      7 O          -1.2910   -3.4126   -0.0928 O.3     1  LIG1       -0.5029
      8 H          -0.7940   -3.2436   -0.9086 H       1  LIG1        0.2923
      9 O           0.2178   -1.1561   -0.8854 O.3     1  LIG1       -0.4903
     10 C           1.4733   -1.7174   -0.4506 C.3     1  LIG1        0.0790
     11 H           2.0969   -1.7863   -1.3444 H       1  LIG1        0.0660
     12 H           1.9475   -1.0634    0.2827 H       1  LIG1        0.0660
     13 H           1.3302   -2.7182   -0.0261 H       1  LIG1        0.0660
     14 C          -0.6318    1.4760    0.5890 C.ar    1  LIG1        0.0753
     15 C           0.6449    1.9720    0.4811 C.ar    1  LIG1        0.1748
     16 C           0.7093    3.3901    0.2961 C.ar    1  LIG1        0.1773
     17 C          -0.5185    4.0161    0.2891 C.ar    1  LIG1        0.0755
     18 S          -1.7854    2.8073    0.4777 S.2     1  LIG1       -0.0794
     19 O           1.7877    1.2409    0.5468 O.3     1  LIG1       -0.5025
     20 H           2.5119    1.8836    0.4561 H       1  LIG1        0.2923
     21 O           1.9695    3.9193    0.1811 O.3     1  LIG1       -0.4903
     22 C           2.2167    4.7765   -0.9399 C.3     1  LIG1        0.0790
     23 H           3.2976    4.9254   -0.9716 H       1  LIG1        0.0660
     24 H           1.8798    4.3064   -1.8706 H       1  LIG1        0.0660
     25 H           1.7220    5.7418   -0.8155 H       1  LIG1        0.0660
     26 C          -0.8600    5.4210    0.2122 C.ar    1  LIG1        0.0753
     27 C          -0.2407    6.4986    0.8011 C.ar    1  LIG1        0.1748
     28 C          -0.8692    7.7575    0.5279 C.ar    1  LIG1        0.1773
     29 C          -2.0026    7.6615   -0.2499 C.ar    1  LIG1        0.0755
     30 S          -2.2710    5.9739   -0.6891 S.2     1  LIG1       -0.0794
     31 O           0.8777    6.4260    1.5657 O.3     1  LIG1       -0.5025
     32 H           1.0648    7.3355    1.8524 H       1  LIG1        0.2923
     33 O          -0.2609    8.8412    1.0979 O.3     1  LIG1       -0.4903
     34 C          -0.2042   10.0650    0.3577 C.3     1  LIG1        0.0790
     35 H           0.5921   10.6551    0.8155 H       1  LIG1        0.0660
     36 H           0.0356    9.8736   -0.6936 H       1  LIG1        0.0660
     37 H          -1.1474   10.6091    0.4310 H       1  LIG1        0.0660
     38 C          -2.9639    8.6686   -0.6576 C.ar    1  LIG1        0.0747
     39 C          -3.5695    9.6371    0.1060 C.ar    1  LIG1        0.1742
     40 C          -4.5350   10.4150   -0.6158 C.ar    1  LIG1        0.1689
     41 C          -4.6813   10.0331   -1.9189 C.ar    1  LIG1        0.0218
     42 S          -3.6056    8.7188   -2.3025 S.2     1  LIG1       -0.0885
     43 H          -5.3394   10.4351   -2.6735 H       1  LIG1        0.0731
     44 O          -3.3030    9.8611    1.4206 O.3     1  LIG1       -0.5025
     45 H          -3.9216   10.5439    1.7238 H       1  LIG1        0.2923
     46 O          -5.1743   11.3893    0.0939 O.3     1  LIG1       -0.4909
     47 C          -6.1960   12.1052   -0.5909 C.3     1  LIG1        0.0790
     48 H          -6.6095   12.8159    0.1251 H       1  LIG1        0.0660
     49 H          -5.7846   12.6483   -1.4507 H       1  LIG1        0.0660
     50 H          -6.9853   11.4261   -0.9352 H       1  LIG1        0.0660
@<TRIPOS>BOND
     1    43    41    1
     2    42    41   ar
     3    42    38   ar
     4    41    40   ar
     5    24    22    1
     6    49    47    1
     7    11    10    1
     8    23    22    1
     9    22    25    1
    10    22    21    1
    11    50    47    1
    12     8     7    1
    13     9    10    1
    14     9     3    1
    15    36    34    1
    16    30    29   ar
    17    30    26   ar
    18    38    29    1
    19    38    39   ar
    20    40    46    1
    21    40    39   ar
    22    47    46    1
    23    47    48    1
    24    10    13    1
    25    10    12    1
    26    29    28   ar
    27     7     2    1
    28    39    44    1
    29     3     2   ar
    30     3     4   ar
    31    21    16    1
    32    26    17    1
    33    26    27   ar
    34    17    16   ar
    35    17    18   ar
    36    16    15   ar
    37    34    37    1
    38    34    35    1
    39    34    33    1
    40    20    19    1
    41    18    14   ar
    42    15    19    1
    43    15    14   ar
    44     2     1   ar
    45    28    27   ar
    46    28    33    1
    47    14     4    1
    48     4     5   ar
    49    27    31    1
    50    44    45    1
    51     1     6    1
    52     1     5   ar
    53    31    32    1
