@<TRIPOS>MOLECULE
mol_data/opt/b3lyp/geoms/mol2/5fl5fl-.out
 26 27 0 0 0
SMALL
GASTEIGER

@<TRIPOS>ATOM
      1 C          -2.4941   -1.8566    0.4473 C.ar    1  LIG1        0.0215
      2 C          -1.2351   -2.1751    0.0310 C.ar    1  LIG1        0.1663
      3 C          -0.4055   -1.0268   -0.2043 C.ar    1  LIG1        0.1766
      4 C          -1.0451    0.1728    0.0125 C.ar    1  LIG1        0.0749
      5 S          -2.6899   -0.1315    0.5597 S.2     1  LIG1       -0.0885
      6 H          -3.3107   -2.5263    0.6703 H       1  LIG1        0.0731
      7 O          -0.7750   -3.4411   -0.1817 O.3     1  LIG1       -0.5029
      8 H           0.0145   -3.3515   -0.7384 H       1  LIG1        0.2923
      9 O           0.8632   -1.1980   -0.7030 O.3     1  LIG1       -0.4903
     10 C           1.8515   -1.5331    0.2929 C.3     1  LIG1        0.0790
     11 H           2.7866   -1.6816   -0.2510 H       1  LIG1        0.0660
     12 H           1.9619   -0.7159    1.0074 H       1  LIG1        0.0660
     13 H           1.5828   -2.4575    0.8178 H       1  LIG1        0.0660
     14 C          -0.5767    1.5334   -0.1878 C.ar    1  LIG1        0.0747
     15 C           0.5767    2.1428    0.2388 C.ar    1  LIG1        0.1742
     16 C           0.6797    3.5166   -0.1626 C.ar    1  LIG1        0.1689
     17 C          -0.3907    3.9609   -0.8839 C.ar    1  LIG1        0.0218
     18 S          -1.5514    2.6846   -1.1079 S.2     1  LIG1       -0.0885
     19 H          -0.5718    4.9420   -1.2950 H       1  LIG1        0.0731
     20 O           1.5417    1.5613    1.0025 O.3     1  LIG1       -0.5025
     21 H           2.2142    2.2401    1.1688 H       1  LIG1        0.2923
     22 O           1.8045    4.1765    0.2427 O.3     1  LIG1       -0.4909
     23 C           1.9010    5.5471   -0.1250 C.3     1  LIG1        0.0790
     24 H           2.8459    5.9114    0.2792 H       1  LIG1        0.0660
     25 H           1.9001    5.6599   -1.2161 H       1  LIG1        0.0660
     26 H           1.0714    6.1257    0.2994 H       1  LIG1        0.0660
@<TRIPOS>BOND
     1    19    17    1
     2    25    23    1
     3    18    17   ar
     4    18    14   ar
     5    17    16   ar
     6     8     7    1
     7     9     3    1
     8     9    10    1
     9    11    10    1
    10     3     4   ar
    11     3     2   ar
    12    14     4    1
    13    14    15   ar
    14     7     2    1
    15    16    15   ar
    16    16    22    1
    17    23    22    1
    18    23    24    1
    19    23    26    1
    20     4     5   ar
    21     2     1   ar
    22    15    20    1
    23    10    13    1
    24    10    12    1
    25     1     5   ar
    26     1     6    1
    27    20    21    1
