@<TRIPOS>MOLECULE
mol_data/opt/b3lyp/geoms/mol2/5fl5fl.out
 26 27 0 0 0
SMALL
GASTEIGER

@<TRIPOS>ATOM
      1 C          -2.4929   -1.8551    0.4724 C.ar    1  LIG1        0.0215
      2 C          -1.2344   -2.1750    0.0558 C.ar    1  LIG1        0.1663
      3 C          -0.4054   -1.0275   -0.1852 C.ar    1  LIG1        0.1766
      4 C          -1.0450    0.1728    0.0276 C.ar    1  LIG1        0.0749
      5 S          -2.6891   -0.1296    0.5781 S.2     1  LIG1       -0.0885
      6 H          -3.3091   -2.5241    0.6993 H       1  LIG1        0.0731
      7 O          -0.7745   -3.4418   -0.1523 O.3     1  LIG1       -0.5029
      8 H           0.0140   -3.3546   -0.7108 H       1  LIG1        0.2923
      9 O           0.8627   -1.2002   -0.6849 O.3     1  LIG1       -0.4903
     10 C           1.8523   -1.5321    0.3108 C.3     1  LIG1        0.0790
     11 H           2.7868   -1.6820   -0.2338 H       1  LIG1        0.0660
     12 H           1.9635   -0.7128    1.0228 H       1  LIG1        0.0660
     13 H           1.5845   -2.4550    0.8388 H       1  LIG1        0.0660
     14 C          -0.5774    1.5327   -0.1791 C.ar    1  LIG1        0.0747
     15 C           0.5773    2.1437    0.2417 C.ar    1  LIG1        0.1742
     16 C           0.6790    3.5160   -0.1649 C.ar    1  LIG1        0.1689
     17 C          -0.3937    3.9578   -0.8844 C.ar    1  LIG1        0.0218
     18 S          -1.5550    2.6805   -1.1003 S.2     1  LIG1       -0.0885
     19 H          -0.5761    4.9373   -1.2985 H       1  LIG1        0.0731
     20 O           1.5447    1.5650    1.0045 O.3     1  LIG1       -0.5025
     21 H           2.2176    2.2445    1.1663 H       1  LIG1        0.2923
     22 O           1.8049    4.1774    0.2347 O.3     1  LIG1       -0.4909
     23 C           1.9001    5.5468   -0.1378 C.3     1  LIG1        0.0790
     24 H           2.8461    5.9127    0.2623 H       1  LIG1        0.0660
     25 H           1.8958    5.6561   -1.2293 H       1  LIG1        0.0660
     26 H           1.0715    6.1267    0.2872 H       1  LIG1        0.0660
@<TRIPOS>BOND
     1    19    17    1
     2    25    23    1
     3    18    17   ar
     4    18    14   ar
     5    17    16   ar
     6     8     7    1
     7     9     3    1
     8     9    10    1
     9    11    10    1
    10     3     4   ar
    11     3     2   ar
    12    14     4    1
    13    14    15   ar
    14    16    22    1
    15    16    15   ar
    16     7     2    1
    17    23    22    1
    18    23    24    1
    19    23    26    1
    20     4     5   ar
    21     2     1   ar
    22    15    20    1
    23    10    13    1
    24    10    12    1
    25     1     5   ar
    26     1     6    1
    27    20    21    1
