@<TRIPOS>MOLECULE
mol_data/opt/b3lyp/geoms/mol2/5fl5fl5fl5fl.out
 50 53 0 0 0
SMALL
GASTEIGER

@<TRIPOS>ATOM
      1 C          -2.2013   -1.9092    1.4727 C.ar    1  LIG1        0.0215
      2 C          -1.2841   -2.1446    0.4911 C.ar    1  LIG1        0.1663
      3 C          -0.5949   -0.9616    0.0592 C.ar    1  LIG1        0.1766
      4 C          -1.0110    0.1863    0.6985 C.ar    1  LIG1        0.0749
      5 S          -2.2407   -0.2215    1.8915 S.2     1  LIG1       -0.0885
      6 H          -2.8618   -2.6173    1.9495 H       1  LIG1        0.0731
      7 O          -1.0373   -3.3623   -0.0724 O.3     1  LIG1       -0.5029
      8 H          -0.6058   -3.1867   -0.9230 H       1  LIG1        0.2923
      9 O           0.3018   -1.0326   -0.9789 O.3     1  LIG1       -0.4903
     10 C           1.6005   -1.5367   -0.6055 C.3     1  LIG1        0.0790
     11 H           2.1823   -1.5809   -1.5284 H       1  LIG1        0.0660
     12 H           2.0809   -0.8605    0.1035 H       1  LIG1        0.0660
     13 H           1.5237   -2.5410   -0.1728 H       1  LIG1        0.0660
     14 C          -0.6241    1.5665    0.4863 C.ar    1  LIG1        0.0753
     15 C           0.6175    2.1301    0.3066 C.ar    1  LIG1        0.1748
     16 C           0.5776    3.5392    0.1002 C.ar    1  LIG1        0.1773
     17 C          -0.6766    4.1080    0.1511 C.ar    1  LIG1        0.0755
     18 S          -1.8555    2.8362    0.4258 S.2     1  LIG1       -0.0794
     19 O           1.7999    1.4566    0.3304 O.3     1  LIG1       -0.5025
     20 H           2.4990    2.1295    0.3411 H       1  LIG1        0.2923
     21 O           1.7721    4.2264   -0.0980 O.3     1  LIG1       -0.4903
     22 C           2.0511    4.5250   -1.4880 C.3     1  LIG1        0.0790
     23 H           3.0131    5.0393   -1.5022 H       1  LIG1        0.0660
     24 H           2.1096    3.5980   -2.0658 H       1  LIG1        0.0660
     25 H           1.2744    5.1721   -1.9034 H       1  LIG1        0.0660
     26 C          -1.0520    5.4986    0.0426 C.ar    1  LIG1        0.0753
     27 C          -0.3047    6.6218    0.3609 C.ar    1  LIG1        0.1748
     28 C          -1.0137    7.8550    0.1597 C.ar    1  LIG1        0.1773
     29 C          -2.3019    7.6770   -0.3001 C.ar    1  LIG1        0.0755
     30 S          -2.6536    5.9702   -0.5200 S.2     1  LIG1       -0.0794
     31 O           0.9656    6.6584    0.8273 O.3     1  LIG1       -0.5025
     32 H           1.3882    5.7852    0.6993 H       1  LIG1        0.2923
     33 O          -0.4410    9.0815    0.2958 O.3     1  LIG1       -0.4903
     34 C          -0.0174    9.4345    1.6222 C.3     1  LIG1        0.0790
     35 H           0.3999   10.4399    1.5411 H       1  LIG1        0.0660
     36 H          -0.8740    9.4511    2.3023 H       1  LIG1        0.0660
     37 H           0.7491    8.7465    1.9881 H       1  LIG1        0.0660
     38 C          -3.2897    8.6831   -0.6297 C.ar    1  LIG1        0.0747
     39 C          -3.6162    9.8318    0.0506 C.ar    1  LIG1        0.1742
     40 C          -4.6654   10.5838   -0.5761 C.ar    1  LIG1        0.1689
     41 C          -5.1451   10.0136   -1.7201 C.ar    1  LIG1        0.0218
     42 S          -4.2965    8.5356   -2.0737 S.2     1  LIG1       -0.0885
     43 H          -5.9294   10.3607   -2.3746 H       1  LIG1        0.0731
     44 O          -3.0633   10.2335    1.2242 O.3     1  LIG1       -0.5025
     45 H          -3.5142   11.0528    1.4812 H       1  LIG1        0.2923
     46 O          -5.0417   11.7320    0.0592 O.3     1  LIG1       -0.4909
     47 C          -6.1009   12.4692   -0.5385 C.3     1  LIG1        0.0790
     48 H          -6.2657   13.3430    0.0926 H       1  LIG1        0.0660
     49 H          -5.8292   12.7930   -1.5507 H       1  LIG1        0.0660
     50 H          -7.0187   11.8700   -0.5843 H       1  LIG1        0.0660
@<TRIPOS>BOND
     1    43    41    1
     2    42    41   ar
     3    42    38   ar
     4    24    22    1
     5    25    22    1
     6    41    40   ar
     7    49    47    1
     8    11    10    1
     9    23    22    1
    10    22    21    1
    11     9    10    1
    12     9     3    1
    13     8     7    1
    14    38    29    1
    15    38    39   ar
    16    10    13    1
    17    10    12    1
    18    50    47    1
    19    40    39   ar
    20    40    46    1
    21    47    46    1
    22    47    48    1
    23    30    29   ar
    24    30    26   ar
    25    29    28   ar
    26    21    16    1
    27     7     2    1
    28    26    17    1
    29    26    27   ar
    30    39    44    1
    31     3     2   ar
    32     3     4   ar
    33    16    17   ar
    34    16    15   ar
    35    17    18   ar
    36    28    33    1
    37    28    27   ar
    38    33    34    1
    39    15    19    1
    40    15    14   ar
    41    19    20    1
    42    27    31    1
    43    18    14   ar
    44    14     4    1
    45     2     1   ar
    46     4     5   ar
    47    32    31    1
    48    44    45    1
    49     1     5   ar
    50     1     6    1
    51    35    34    1
    52    34    37    1
    53    34    36    1
