@<TRIPOS>MOLECULE
mol_data/opt/b3lyp/geoms/mol2/5fl5fl-5fl.out
 38 40 0 0 0
SMALL
GASTEIGER

@<TRIPOS>ATOM
      1 C          -2.5690   -1.9311    0.7165 C.ar    1  LIG1        0.0215
      2 C          -1.3722   -2.2167    0.1286 C.ar    1  LIG1        0.1663
      3 C          -0.5429   -1.0613   -0.0693 C.ar    1  LIG1        0.1766
      4 C          -1.1235    0.1162    0.3484 C.ar    1  LIG1        0.0749
      5 S          -2.7053   -0.2276    1.0427 S.2     1  LIG1       -0.0885
      6 H          -3.3736   -2.6105    0.9530 H       1  LIG1        0.0731
      7 O          -0.9733   -3.4569   -0.2760 O.3     1  LIG1       -0.5029
      8 H          -0.2523   -3.3149   -0.9094 H       1  LIG1        0.2923
      9 O           0.6582   -1.1932   -0.7233 O.3     1  LIG1       -0.4903
     10 C           1.7337   -1.6760    0.1082 C.3     1  LIG1        0.0790
     11 H           2.6004   -1.7735   -0.5489 H       1  LIG1        0.0660
     12 H           1.9492   -0.9600    0.9026 H       1  LIG1        0.0660
     13 H           1.4887   -2.6543    0.5385 H       1  LIG1        0.0660
     14 C          -0.6521    1.4844    0.2488 C.ar    1  LIG1        0.0753
     15 C           0.5867    2.0227    0.4992 C.ar    1  LIG1        0.1748
     16 C           0.6753    3.4302    0.2506 C.ar    1  LIG1        0.1773
     17 C          -0.5044    4.0052   -0.1681 C.ar    1  LIG1        0.0755
     18 S          -1.7442    2.7613   -0.2931 S.2     1  LIG1       -0.0794
     19 O           1.6698    1.3423    0.9553 O.3     1  LIG1       -0.5025
     20 H           2.3760    2.0052    1.0413 H       1  LIG1        0.2923
     21 O           1.8994    3.9992    0.4907 O.3     1  LIG1       -0.4903
     22 C           2.4483    4.8354   -0.5350 C.3     1  LIG1        0.0790
     23 H           3.4926    4.9987   -0.2624 H       1  LIG1        0.0660
     24 H           2.3931    4.3406   -1.5111 H       1  LIG1        0.0660
     25 H           1.9316    5.7961   -0.5802 H       1  LIG1        0.0660
     26 C          -0.8337    5.3921   -0.4293 C.ar    1  LIG1        0.0747
     27 C          -0.4722    6.5117    0.2827 C.ar    1  LIG1        0.1742
     28 C          -1.0373    7.7246   -0.2354 C.ar    1  LIG1        0.1689
     29 C          -1.8373    7.5347   -1.3258 C.ar    1  LIG1        0.0218
     30 S          -1.8923    5.8510   -1.7662 S.2     1  LIG1       -0.0885
     31 H          -2.3886    8.2644   -1.8983 H       1  LIG1        0.0731
     32 O           0.3304    6.5044    1.3792 O.3     1  LIG1       -0.5025
     33 H           0.3614    7.4141    1.7140 H       1  LIG1        0.2923
     34 O          -0.7195    8.8698    0.4353 O.3     1  LIG1       -0.4909
     35 C          -1.3324   10.0668   -0.0294 C.3     1  LIG1        0.0790
     36 H          -0.9813   10.8679    0.6216 H       1  LIG1        0.0660
     37 H          -1.0392   10.2800   -1.0647 H       1  LIG1        0.0660
     38 H          -2.4253    9.9954    0.0301 H       1  LIG1        0.0660
@<TRIPOS>BOND
     1    31    29    1
     2    30    29   ar
     3    30    26   ar
     4    24    22    1
     5    29    28   ar
     6    37    35    1
     7     8     7    1
     8     9     3    1
     9     9    10    1
    10    25    22    1
    11    11    10    1
    12    22    23    1
    13    22    21    1
    14    26    17    1
    15    26    27   ar
    16    18    17   ar
    17    18    14   ar
    18     7     2    1
    19    28    27   ar
    20    28    34    1
    21    17    16   ar
    22     3     2   ar
    23     3     4   ar
    24    35    38    1
    25    35    34    1
    26    35    36    1
    27    10    13    1
    28    10    12    1
    29     2     1   ar
    30    14     4    1
    31    14    15   ar
    32    16    21    1
    33    16    15   ar
    34    27    32    1
    35     4     5   ar
    36    15    19    1
    37     1     6    1
    38     1     5   ar
    39    19    20    1
    40    32    33    1
