@<TRIPOS>MOLECULE
mol_data/opt/b3lyp/geoms/mol2/5fl5fl5fl-5fl-.out
 50 53 0 0 0
SMALL
GASTEIGER

@<TRIPOS>ATOM
      1 C          -2.2081   -2.0973    1.1830 C.ar    1  LIG1        0.0215
      2 C          -1.2527   -2.2546    0.2227 C.ar    1  LIG1        0.1663
      3 C          -0.5578   -1.0393   -0.0962 C.ar    1  LIG1        0.1766
      4 C          -1.0062    0.0568    0.6082 C.ar    1  LIG1        0.0749
      5 S          -2.2767   -0.4441    1.7204 S.2     1  LIG1       -0.0885
      6 H          -2.8795   -2.8421    1.5823 H       1  LIG1        0.0731
      7 O          -0.9732   -3.4254   -0.4198 O.3     1  LIG1       -0.5029
      8 H          -0.4999   -3.1824   -1.2310 H       1  LIG1        0.2923
      9 O           0.3766   -1.0355   -1.1035 O.3     1  LIG1       -0.4903
     10 C           1.6705   -1.5381   -0.7113 C.3     1  LIG1        0.0790
     11 H           2.2864   -1.5171   -1.6128 H       1  LIG1        0.0660
     12 H           2.1109   -0.8964    0.0532 H       1  LIG1        0.0660
     13 H           1.5969   -2.5679   -0.3423 H       1  LIG1        0.0660
     14 C          -0.6253    1.4529    0.5163 C.ar    1  LIG1        0.0753
     15 C           0.6154    2.0363    0.4210 C.ar    1  LIG1        0.1748
     16 C           0.5853    3.4630    0.3180 C.ar    1  LIG1        0.1773
     17 C          -0.6804    4.0073    0.3648 C.ar    1  LIG1        0.0755
     18 S          -1.8645    2.7108    0.4955 S.2     1  LIG1       -0.0794
     19 O           1.8035    1.3784    0.4324 O.3     1  LIG1       -0.5025
     20 H           2.4840    2.0710    0.3788 H       1  LIG1        0.2923
     21 O           1.8043    4.0859    0.2203 O.3     1  LIG1       -0.4903
     22 C           1.9852    4.9779   -0.8867 C.3     1  LIG1        0.0790
     23 H           3.0419    5.2510   -0.8835 H       1  LIG1        0.0660
     24 H           1.7328    4.4822   -1.8310 H       1  LIG1        0.0660
     25 H           1.3776    5.8785   -0.7738 H       1  LIG1        0.0660
     26 C          -1.1032    5.3906    0.3729 C.ar    1  LIG1        0.0753
     27 C          -0.5343    6.4688    1.0126 C.ar    1  LIG1        0.1748
     28 C          -1.2689    7.6894    0.8716 C.ar    1  LIG1        0.1773
     29 C          -2.4354    7.5592    0.1506 C.ar    1  LIG1        0.0755
     30 S          -2.5857    5.9058   -0.4306 S.2     1  LIG1       -0.0794
     31 O           0.5956    6.4055    1.7690 O.3     1  LIG1       -0.5025
     32 H           0.5813    7.1880    2.3435 H       1  LIG1        0.2923
     33 O          -0.8509    8.8091    1.5480 O.3     1  LIG1       -0.4903
     34 C           0.2184    9.5317    0.9045 C.3     1  LIG1        0.0790
     35 H           0.4616   10.3622    1.5699 H       1  LIG1        0.0660
     36 H           1.1023    8.8954    0.7775 H       1  LIG1        0.0660
     37 H          -0.1101    9.9154   -0.0626 H       1  LIG1        0.0660
     38 C          -3.4829    8.5243   -0.1216 C.ar    1  LIG1        0.0747
     39 C          -3.3966    9.8332   -0.5292 C.ar    1  LIG1        0.1742
     40 C          -4.6736   10.4648   -0.6953 C.ar    1  LIG1        0.1689
     41 C          -5.7318    9.6452   -0.4267 C.ar    1  LIG1        0.0218
     42 S          -5.1809    8.0692    0.0617 S.2     1  LIG1       -0.0885
     43 H          -6.7877    9.8608   -0.4794 H       1  LIG1        0.0731
     44 O          -2.2437   10.5008   -0.8038 O.3     1  LIG1       -0.5025
     45 H          -2.4979   11.3912   -1.0927 H       1  LIG1        0.2923
     46 O          -4.6484   11.7657   -1.1083 O.3     1  LIG1       -0.4909
     47 C          -5.9106   12.3928   -1.3041 C.3     1  LIG1        0.0790
     48 H          -5.7033   13.4117   -1.6321 H       1  LIG1        0.0660
     49 H          -6.4922   11.8694   -2.0728 H       1  LIG1        0.0660
     50 H          -6.4838   12.4168   -0.3692 H       1  LIG1        0.0660
@<TRIPOS>BOND
     1    49    47    1
     2    24    22    1
     3    48    47    1
     4    11    10    1
     5    47    46    1
     6    47    50    1
     7     8     7    1
     8    46    40    1
     9     9    10    1
    10     9     3    1
    11    45    44    1
    12    22    23    1
    13    22    25    1
    14    22    21    1
    15    44    39    1
    16    10    13    1
    17    10    12    1
    18    40    39   ar
    19    40    41   ar
    20    39    38   ar
    21    43    41    1
    22    30    29   ar
    23    30    26   ar
    24    41    42   ar
    25     7     2    1
    26    38    42   ar
    27    38    29    1
    28     3     2   ar
    29     3     4   ar
    30    37    34    1
    31    29    28   ar
    32    21    16    1
    33     2     1   ar
    34    16    17   ar
    35    16    15   ar
    36    17    26    1
    37    17    18   ar
    38    26    27   ar
    39    20    19    1
    40    15    19    1
    41    15    14   ar
    42    18    14   ar
    43    14     4    1
    44     4     5   ar
    45    36    34    1
    46    28    27   ar
    47    28    33    1
    48    34    33    1
    49    34    35    1
    50    27    31    1
    51     1     6    1
    52     1     5   ar
    53    31    32    1
