@<TRIPOS>MOLECULE
mol_data/opt/b3lyp/geoms/mol2/5fl5fl-5fl-5fl-.out
 50 53 0 0 0
SMALL
GASTEIGER

@<TRIPOS>ATOM
      1 C           0.1386   -2.4485    1.1479 C.ar    1  LIG1        0.0215
      2 C          -0.9994   -2.1419    0.4603 C.ar    1  LIG1        0.1663
      3 C          -1.1154   -0.7464    0.1486 C.ar    1  LIG1        0.1766
      4 C          -0.0763    0.0286    0.6122 C.ar    1  LIG1        0.0749
      5 S           1.0701   -1.0101    1.4694 S.2     1  LIG1       -0.0885
      6 H           0.4800   -3.4159    1.4824 H       1  LIG1        0.0731
      7 O          -1.9478   -3.0303    0.0697 O.3     1  LIG1       -0.5029
      8 H          -2.6612   -2.5016   -0.3250 H       1  LIG1        0.2923
      9 O          -2.2323   -0.3281   -0.5386 O.3     1  LIG1       -0.4903
     10 C          -1.9942    0.0834   -1.8975 C.3     1  LIG1        0.0790
     11 H          -2.9739    0.3104   -2.3211 H       1  LIG1        0.0660
     12 H          -1.3677    0.9785   -1.9310 H       1  LIG1        0.0660
     13 H          -1.5193   -0.7221   -2.4693 H       1  LIG1        0.0660
     14 C           0.1329    1.4571    0.5199 C.ar    1  LIG1        0.0753
     15 C           1.3279    2.1278    0.3503 C.ar    1  LIG1        0.1748
     16 C           1.1929    3.5545    0.2996 C.ar    1  LIG1        0.1773
     17 C          -0.1144    3.9763    0.4389 C.ar    1  LIG1        0.0755
     18 S          -1.1979    2.6057    0.6333 S.2     1  LIG1       -0.0794
     19 O           2.5590    1.5675    0.1944 O.3     1  LIG1       -0.5025
     20 H           2.4659    0.6036    0.1276 H       1  LIG1        0.2923
     21 O           2.2181    4.3994    0.0075 O.3     1  LIG1       -0.4903
     22 C           3.2821    4.4505    0.9700 C.3     1  LIG1        0.0790
     23 H           4.0029    5.1694    0.5763 H       1  LIG1        0.0660
     24 H           2.9050    4.8051    1.9337 H       1  LIG1        0.0660
     25 H           3.7619    3.4743    1.0818 H       1  LIG1        0.0660
     26 C          -0.6307    5.3267    0.4144 C.ar    1  LIG1        0.0753
     27 C          -0.1224    6.4625    0.9999 C.ar    1  LIG1        0.1748
     28 C          -0.9436    7.6236    0.8283 C.ar    1  LIG1        0.1773
     29 C          -2.0918    7.4004    0.0994 C.ar    1  LIG1        0.0755
     30 S          -2.1494    5.7086   -0.3946 S.2     1  LIG1       -0.0794
     31 O           1.0065    6.5216    1.7481 O.3     1  LIG1       -0.5025
     32 H           1.0667    7.4403    2.0603 H       1  LIG1        0.2923
     33 O          -0.4768    8.7590    1.4328 O.3     1  LIG1       -0.4903
     34 C          -1.4141    9.5965    2.1192 C.3     1  LIG1        0.0790
     35 H          -2.1254    8.9942    2.6943 H       1  LIG1        0.0660
     36 H          -0.8228   10.2157    2.7967 H       1  LIG1        0.0660
     37 H          -1.9512   10.2371    1.4179 H       1  LIG1        0.0660
     38 C          -3.1231    8.3138   -0.3508 C.ar    1  LIG1        0.0747
     39 C          -2.9846    9.5628   -0.9076 C.ar    1  LIG1        0.1742
     40 C          -4.2303   10.1563   -1.2996 C.ar    1  LIG1        0.1689
     41 C          -5.3147    9.3605   -1.0631 C.ar    1  LIG1        0.0218
     42 S          -4.8313    7.8634   -0.3162 S.2     1  LIG1       -0.0885
     43 H          -6.3559    9.5532   -1.2707 H       1  LIG1        0.0731
     44 O          -1.7964   10.2004   -1.0857 O.3     1  LIG1       -0.5025
     45 H          -1.9854   11.0259   -1.5583 H       1  LIG1        0.2923
     46 O          -4.1542   11.3967   -1.8638 O.3     1  LIG1       -0.4909
     47 C          -5.3784   11.9610   -2.3192 C.3     1  LIG1        0.0790
     48 H          -5.1314   12.9318   -2.7495 H       1  LIG1        0.0660
     49 H          -5.8415   11.3255   -3.0838 H       1  LIG1        0.0660
     50 H          -6.0803   12.0961   -1.4870 H       1  LIG1        0.0660
@<TRIPOS>BOND
     1    49    47    1
     2    48    47    1
     3    13    10    1
     4    11    10    1
     5    47    46    1
     6    47    50    1
     7    12    10    1
     8    10     9    1
     9    46    40    1
    10    45    44    1
    11    40    41   ar
    12    40    39   ar
    13    43    41    1
    14    44    39    1
    15    41    42   ar
    16    39    38   ar
    17     9     3    1
    18    30    29   ar
    19    30    26   ar
    20    38    42   ar
    21    38    29    1
    22     8     7    1
    23    21    16    1
    24    21    22    1
    25     7     2    1
    26    29    28   ar
    27    20    19    1
    28     3     2   ar
    29     3     4   ar
    30    19    15    1
    31    16    15   ar
    32    16    17   ar
    33    15    14   ar
    34    26    17    1
    35    26    27   ar
    36    17    18   ar
    37     2     1   ar
    38    14     4    1
    39    14    18   ar
    40    23    22    1
    41     4     5   ar
    42    28    27   ar
    43    28    33    1
    44    22    25    1
    45    22    24    1
    46    27    31    1
    47     1     5   ar
    48     1     6    1
    49    37    34    1
    50    33    34    1
    51    31    32    1
    52    34    35    1
    53    34    36    1
