@<TRIPOS>MOLECULE
mol_data/opt/b3lyp/geoms/mol2/5fl5fl5fl.out
 38 40 0 0 0
SMALL
GASTEIGER

@<TRIPOS>ATOM
      1 C          -2.4880   -1.9792    0.3888 C.ar    1  LIG1        0.0215
      2 C          -1.2993   -2.1497   -0.2573 C.ar    1  LIG1        0.1663
      3 C          -0.5119   -0.9513   -0.3298 C.ar    1  LIG1        0.1766
      4 C          -1.1192    0.1459    0.2416 C.ar    1  LIG1        0.0749
      5 S          -2.6704   -0.3338    0.9241 S.2     1  LIG1       -0.0885
      6 H          -3.2641   -2.7098    0.5590 H       1  LIG1        0.0731
      7 O          -0.8745   -3.3178   -0.8198 O.3     1  LIG1       -0.5029
      8 H          -0.1835   -3.0765   -1.4564 H       1  LIG1        0.2923
      9 O           0.6752   -0.9570   -1.0215 O.3     1  LIG1       -0.4903
     10 C           1.7850   -1.5142   -0.2878 C.3     1  LIG1        0.0790
     11 H           2.6373   -1.4914   -0.9698 H       1  LIG1        0.0660
     12 H           1.9995   -0.9081    0.5937 H       1  LIG1        0.0660
     13 H           1.5803   -2.5498    0.0085 H       1  LIG1        0.0660
     14 C          -0.6927    1.5301    0.2970 C.ar    1  LIG1        0.0753
     15 C           0.5371    2.0764    0.5751 C.ar    1  LIG1        0.1748
     16 C           0.5627    3.5076    0.5596 C.ar    1  LIG1        0.1773
     17 C          -0.6590    4.0878    0.3014 C.ar    1  LIG1        0.0755
     18 S          -1.8478    2.8295   -0.0034 S.2     1  LIG1       -0.0794
     19 O           1.6520    1.3722    0.9212 O.3     1  LIG1       -0.5025
     20 H           2.2405    2.0070    1.3615 H       1  LIG1        0.2923
     21 O           1.7188    4.1584    0.9176 O.3     1  LIG1       -0.4903
     22 C           2.6909    4.2689   -0.1437 C.3     1  LIG1        0.0790
     23 H           3.5621    4.7565    0.2983 H       1  LIG1        0.0660
     24 H           2.9753    3.2790   -0.5193 H       1  LIG1        0.0660
     25 H           2.2963    4.8795   -0.9568 H       1  LIG1        0.0660
     26 C          -1.0588    5.4821    0.3046 C.ar    1  LIG1        0.0747
     27 C          -0.4453    6.5833   -0.2413 C.ar    1  LIG1        0.1742
     28 C          -1.1668    7.8043   -0.0262 C.ar    1  LIG1        0.1689
     29 C          -2.3289    7.6417    0.6713 C.ar    1  LIG1        0.0218
     30 S          -2.5573    5.9724    1.1038 S.2     1  LIG1       -0.0885
     31 H          -3.0574    8.3838    0.9591 H       1  LIG1        0.0731
     32 O           0.7098    6.5698   -0.9597 O.3     1  LIG1       -0.5025
     33 H           0.8770    7.4834   -1.2389 H       1  LIG1        0.2923
     34 O          -0.6071    8.9312   -0.5561 O.3     1  LIG1       -0.4909
     35 C          -1.3299   10.1430   -0.3742 C.3     1  LIG1        0.0790
     36 H          -0.7469   10.9277   -0.8572 H       1  LIG1        0.0660
     37 H          -2.3212   10.0810   -0.8397 H       1  LIG1        0.0660
     38 H          -1.4441   10.3731    0.6922 H       1  LIG1        0.0660
@<TRIPOS>BOND
     1     8     7    1
     2    33    32    1
     3     9     3    1
     4     9    10    1
     5    11    10    1
     6    32    27    1
     7    25    22    1
     8    36    35    1
     9    37    35    1
    10     7     2    1
    11    34    35    1
    12    34    28    1
    13    24    22    1
    14    35    38    1
    15     3     2   ar
    16     3     4   ar
    17    10    13    1
    18    10    12    1
    19     2     1   ar
    20    27    28   ar
    21    27    26   ar
    22    22    23    1
    23    22    21    1
    24    28    29   ar
    25    18    14   ar
    26    18    17   ar
    27     4    14    1
    28     4     5   ar
    29    14    15   ar
    30    17    26    1
    31    17    16   ar
    32    26    30   ar
    33     1     6    1
    34     1     5   ar
    35    16    15   ar
    36    16    21    1
    37    15    19    1
    38    29    31    1
    39    29    30   ar
    40    19    20    1
