@<TRIPOS>MOLECULE
mol_data/opt/b3lyp/geoms/mol2/5fl5fl5fl5fl-.out
 50 53 0 0 0
SMALL
GASTEIGER

@<TRIPOS>ATOM
      1 C          -2.5867   -1.9598    0.2080 C.ar    1  LIG1        0.0215
      2 C          -1.3102   -2.1747   -0.2209 C.ar    1  LIG1        0.1663
      3 C          -0.5106   -0.9827   -0.2537 C.ar    1  LIG1        0.1766
      4 C          -1.1929    0.1531    0.1261 C.ar    1  LIG1        0.0749
      5 S          -2.8390   -0.2790    0.5811 S.2     1  LIG1       -0.0885
      6 H          -3.3869   -2.6778    0.3035 H       1  LIG1        0.0731
      7 O          -0.8100   -3.3805   -0.6173 O.3     1  LIG1       -0.5029
      8 H          -0.0221   -3.1854   -1.1485 H       1  LIG1        0.2923
      9 O           0.7741   -1.0375   -0.7381 O.3     1  LIG1       -0.4903
     10 C           1.7400   -1.5416    0.2069 C.3     1  LIG1        0.0790
     11 H           2.6935   -1.5699   -0.3244 H       1  LIG1        0.0660
     12 H           1.8146   -0.8731    1.0659 H       1  LIG1        0.0660
     13 H           1.4749   -2.5523    0.5387 H       1  LIG1        0.0660
     14 C          -0.7696    1.5386    0.1445 C.ar    1  LIG1        0.0753
     15 C           0.4152    2.1081    0.5462 C.ar    1  LIG1        0.1748
     16 C           0.4520    3.5341    0.4329 C.ar    1  LIG1        0.1773
     17 C          -0.7219    4.0919   -0.0259 C.ar    1  LIG1        0.0755
     18 S          -1.8663    2.8097   -0.3995 S.2     1  LIG1       -0.0794
     19 O           1.4691    1.4341    1.0881 O.3     1  LIG1       -0.5025
     20 H           1.9949    2.1003    1.5602 H       1  LIG1        0.2923
     21 O           1.5540    4.2131    0.8950 O.3     1  LIG1       -0.4903
     22 C           2.6641    4.2376   -0.0273 C.3     1  LIG1        0.0790
     23 H           3.4677    4.7698    0.4855 H       1  LIG1        0.0660
     24 H           2.9935    3.2210   -0.2714 H       1  LIG1        0.0660
     25 H           2.3881    4.7714   -0.9375 H       1  LIG1        0.0660
     26 C          -1.1097    5.4784   -0.1744 C.ar    1  LIG1        0.0753
     27 C          -0.4043    6.5617   -0.6436 C.ar    1  LIG1        0.1748
     28 C          -1.1485    7.7837   -0.6660 C.ar    1  LIG1        0.1773
     29 C          -2.4537    7.6539   -0.2460 C.ar    1  LIG1        0.0755
     30 S          -2.7406    5.9952    0.2596 S.2     1  LIG1       -0.0794
     31 O           0.8656    6.5221   -1.1358 O.3     1  LIG1       -0.5025
     32 H           0.9680    7.3274   -1.6694 H       1  LIG1        0.2923
     33 O          -0.5691    8.9065   -1.2059 O.3     1  LIG1       -0.4903
     34 C           0.3015    9.6197   -0.3016 C.3     1  LIG1        0.0790
     35 H           0.7195   10.4466   -0.8792 H       1  LIG1        0.0660
     36 H          -0.2673   10.0077    0.5443 H       1  LIG1        0.0660
     37 H           1.1124    8.9730    0.0535 H       1  LIG1        0.0660
     38 C          -3.5364    8.6183   -0.2215 C.ar    1  LIG1        0.0747
     39 C          -3.5525    9.9250    0.2022 C.ar    1  LIG1        0.1742
     40 C          -4.8367   10.5510    0.0741 C.ar    1  LIG1        0.1689
     41 C          -5.8012    9.7298   -0.4348 C.ar    1  LIG1        0.0218
     42 S          -5.1450    8.1594   -0.7935 S.2     1  LIG1       -0.0885
     43 H          -6.8420    9.9414   -0.6248 H       1  LIG1        0.0731
     44 O          -2.4978   10.5954    0.7389 O.3     1  LIG1       -0.5025
     45 H          -2.8185   11.4805    0.9729 H       1  LIG1        0.2923
     46 O          -4.9131   11.8490    0.4897 O.3     1  LIG1       -0.4909
     47 C          -6.1914   12.4680    0.4035 C.3     1  LIG1        0.0790
     48 H          -6.0695   13.4850    0.7772 H       1  LIG1        0.0660
     49 H          -6.5417   12.4978   -0.6355 H       1  LIG1        0.0660
     50 H          -6.9265   11.9349    1.0188 H       1  LIG1        0.0660
@<TRIPOS>BOND
     1    32    31    1
     2    33    28    1
     3    33    34    1
     4     8     7    1
     5    31    27    1
     6    25    22    1
     7    35    34    1
     8    42    41   ar
     9    42    38   ar
    10     9     3    1
    11     9    10    1
    12    28    27   ar
    13    28    29   ar
    14    27    26   ar
    15    49    47    1
    16    43    41    1
    17     7     2    1
    18    41    40   ar
    19    18    17   ar
    20    18    14   ar
    21    11    10    1
    22    34    37    1
    23    34    36    1
    24    24    22    1
    25     3     2   ar
    26     3     4   ar
    27    29    38    1
    28    29    30   ar
    29    38    39   ar
    30     2     1   ar
    31    26    17    1
    32    26    30   ar
    33    22    23    1
    34    22    21    1
    35    17    16   ar
    36    40    39   ar
    37    40    46    1
    38     4    14    1
    39     4     5   ar
    40    14    15   ar
    41    39    44    1
    42    10    13    1
    43    10    12    1
    44     1     6    1
    45     1     5   ar
    46    47    46    1
    47    47    48    1
    48    47    50    1
    49    16    15   ar
    50    16    21    1
    51    15    19    1
    52    44    45    1
    53    19    20    1
