@<TRIPOS>MOLECULE
mol_data/opt/b3lyp/geoms/mol2/5fl5fl5fl-.out
 38 40 0 0 0
SMALL
GASTEIGER

@<TRIPOS>ATOM
      1 C          -2.5916   -1.9331    0.6162 C.ar    1  LIG1        0.0215
      2 C          -1.3817   -2.2157    0.0542 C.ar    1  LIG1        0.1663
      3 C          -0.5466   -1.0600   -0.1148 C.ar    1  LIG1        0.1766
      4 C          -1.1353    0.1150    0.2988 C.ar    1  LIG1        0.0749
      5 S          -2.7334   -0.2322    0.9531 S.2     1  LIG1       -0.0885
      6 H          -3.4024   -2.6133    0.8284 H       1  LIG1        0.0731
      7 O          -0.9750   -3.4532   -0.3511 O.3     1  LIG1       -0.5029
      8 H          -0.2391   -3.3070   -0.9661 H       1  LIG1        0.2923
      9 O           0.6694   -1.1884   -0.7416 O.3     1  LIG1       -0.4903
     10 C           1.7245   -1.6793    0.1110 C.3     1  LIG1        0.0790
     11 H           2.6062   -1.7726   -0.5263 H       1  LIG1        0.0660
     12 H           1.9222   -0.9699    0.9159 H       1  LIG1        0.0660
     13 H           1.4683   -2.6606    0.5277 H       1  LIG1        0.0660
     14 C          -0.6600    1.4832    0.2214 C.ar    1  LIG1        0.0753
     15 C           0.5733    2.0177    0.5051 C.ar    1  LIG1        0.1748
     16 C           0.6695    3.4271    0.2701 C.ar    1  LIG1        0.1773
     17 C          -0.4993    4.0071   -0.1714 C.ar    1  LIG1        0.0755
     18 S          -1.7374    2.7660   -0.3356 S.2     1  LIG1       -0.0794
     19 O           1.6445    1.3321    0.9811 O.3     1  LIG1       -0.5025
     20 H           2.3493    1.9933    1.0890 H       1  LIG1        0.2923
     21 O           1.8882    3.9923    0.5435 O.3     1  LIG1       -0.4903
     22 C           2.4622    4.8359   -0.4623 C.3     1  LIG1        0.0790
     23 H           3.5000    4.9956   -0.1639 H       1  LIG1        0.0660
     24 H           2.4294    4.3489   -1.4433 H       1  LIG1        0.0660
     25 H           1.9479    5.7976   -0.5120 H       1  LIG1        0.0660
     26 C          -0.8207    5.3965   -0.4291 C.ar    1  LIG1        0.0747
     27 C          -0.4747    6.5098    0.3003 C.ar    1  LIG1        0.1742
     28 C          -1.0258    7.7277   -0.2212 C.ar    1  LIG1        0.1689
     29 C          -1.8001    7.5478   -1.3316 C.ar    1  LIG1        0.0218
     30 S          -1.8468    5.8677   -1.7868 S.2     1  LIG1       -0.0885
     31 H          -2.3367    8.2829   -1.9110 H       1  LIG1        0.0731
     32 O           0.3018    6.4925    1.4154 O.3     1  LIG1       -0.5025
     33 H           0.3261    7.3995    1.7580 H       1  LIG1        0.2923
     34 O          -0.7224    8.8670    0.4661 O.3     1  LIG1       -0.4909
     35 C          -1.3226   10.0687   -0.0032 C.3     1  LIG1        0.0790
     36 H          -0.9858   10.8640    0.6623 H       1  LIG1        0.0660
     37 H          -1.0048   10.2897   -1.0296 H       1  LIG1        0.0660
     38 H          -2.4167    9.9984    0.0300 H       1  LIG1        0.0660
@<TRIPOS>BOND
     1    31    29    1
     2    30    29   ar
     3    30    26   ar
     4    24    22    1
     5    29    28   ar
     6    37    35    1
     7     8     7    1
     8     9     3    1
     9     9    10    1
    10    11    10    1
    11    25    22    1
    12    22    23    1
    13    22    21    1
    14    26    17    1
    15    26    27   ar
    16     7     2    1
    17    18    17   ar
    18    18    14   ar
    19    28    27   ar
    20    28    34    1
    21    17    16   ar
    22     3     2   ar
    23     3     4   ar
    24    35    38    1
    25    35    34    1
    26    35    36    1
    27     2     1   ar
    28    10    13    1
    29    10    12    1
    30    14     4    1
    31    14    15   ar
    32    16    15   ar
    33    16    21    1
    34     4     5   ar
    35    27    32    1
    36    15    19    1
    37     1     6    1
    38     1     5   ar
    39    19    20    1
    40    32    33    1
