@<TRIPOS>MOLECULE
mol_data/opt/b3lyp/geoms/mol2/5fl5fl5fl-5fl.out
 50 53 0 0 0
SMALL
GASTEIGER

@<TRIPOS>ATOM
      1 C          -2.4687   -1.9186    1.4119 C.ar    1  LIG1        0.0215
      2 C          -1.5168   -2.1924    0.4747 C.ar    1  LIG1        0.1663
      3 C          -0.7378   -1.0458    0.1001 C.ar    1  LIG1        0.1766
      4 C          -1.1174    0.1150    0.7379 C.ar    1  LIG1        0.0749
      5 S          -2.4302   -0.2375    1.8580 S.2     1  LIG1       -0.0885
      6 H          -3.1930   -2.5936    1.8417 H       1  LIG1        0.0731
      7 O          -1.3105   -3.4126   -0.1000 O.3     1  LIG1       -0.5029
      8 H          -0.8112   -3.2461   -0.9149 H       1  LIG1        0.2923
      9 O           0.2054   -1.1606   -0.8924 O.3     1  LIG1       -0.4903
     10 C           1.4587   -1.7241   -0.4536 C.3     1  LIG1        0.0790
     11 H           2.0844   -1.7955   -1.3457 H       1  LIG1        0.0660
     12 H           1.9324   -1.0700    0.2800 H       1  LIG1        0.0660
     13 H           1.3123   -2.7239   -0.0281 H       1  LIG1        0.0660
     14 C          -0.6419    1.4757    0.5756 C.ar    1  LIG1        0.0753
     15 C           0.6362    1.9686    0.4703 C.ar    1  LIG1        0.1748
     16 C           0.7043    3.3862    0.2831 C.ar    1  LIG1        0.1773
     17 C          -0.5221    4.0150    0.2718 C.ar    1  LIG1        0.0755
     18 S          -1.7922    2.8094    0.4590 S.2     1  LIG1       -0.0794
     19 O           1.7772    1.2351    0.5402 O.3     1  LIG1       -0.5025
     20 H           2.5030    1.8762    0.4512 H       1  LIG1        0.2923
     21 O           1.9660    3.9126    0.1707 O.3     1  LIG1       -0.4903
     22 C           2.2184    4.7650   -0.9528 C.3     1  LIG1        0.0790
     23 H           3.2995    4.9134   -0.9804 H       1  LIG1        0.0660
     24 H           1.8855    4.2910   -1.8830 H       1  LIG1        0.0660
     25 H           1.7235    5.7309   -0.8347 H       1  LIG1        0.0660
     26 C          -0.8601    5.4206    0.1917 C.ar    1  LIG1        0.0753
     27 C          -0.2388    6.4979    0.7791 C.ar    1  LIG1        0.1748
     28 C          -0.8639    7.7577    0.5024 C.ar    1  LIG1        0.1773
     29 C          -1.9966    7.6628   -0.2767 C.ar    1  LIG1        0.0755
     30 S          -2.2686    5.9749   -0.7126 S.2     1  LIG1       -0.0794
     31 O           0.8783    6.4243    1.5454 O.3     1  LIG1       -0.5025
     32 H           1.0671    7.3340    1.8304 H       1  LIG1        0.2923
     33 O          -0.2539    8.8412    1.0709 O.3     1  LIG1       -0.4903
     34 C          -0.1915   10.0625    0.3268 C.3     1  LIG1        0.0790
     35 H           0.6050   10.6520    0.7853 H       1  LIG1        0.0660
     36 H           0.0512    9.8669   -0.7231 H       1  LIG1        0.0660
     37 H          -1.1334   10.6093    0.3952 H       1  LIG1        0.0660
     38 C          -2.9548    8.6714   -0.6876 C.ar    1  LIG1        0.0747
     39 C          -3.5581    9.6438    0.0730 C.ar    1  LIG1        0.1742
     40 C          -4.5211   10.4222   -0.6514 C.ar    1  LIG1        0.1689
     41 C          -4.6679   10.0371   -1.9535 C.ar    1  LIG1        0.0218
     42 S          -3.5957    8.7188   -2.3329 S.2     1  LIG1       -0.0885
     43 H          -5.3244   10.4390   -2.7096 H       1  LIG1        0.0731
     44 O          -3.2916    9.8705    1.3871 O.3     1  LIG1       -0.5025
     45 H          -3.9079   10.5565    1.6880 H       1  LIG1        0.2923
     46 O          -5.1579   11.4004    0.0552 O.3     1  LIG1       -0.4909
     47 C          -6.1775   12.1171   -0.6319 C.3     1  LIG1        0.0790
     48 H          -6.5894   12.8308    0.0820 H       1  LIG1        0.0660
     49 H          -5.7644   12.6567   -1.4930 H       1  LIG1        0.0660
     50 H          -6.9685   11.4391   -0.9745 H       1  LIG1        0.0660
@<TRIPOS>BOND
     1    43    41    1
     2    42    41   ar
     3    42    38   ar
     4    41    40   ar
     5    24    22    1
     6    49    47    1
     7    11    10    1
     8    23    22    1
     9    50    47    1
    10    22    25    1
    11    22    21    1
    12     8     7    1
    13     9    10    1
    14     9     3    1
    15    36    34    1
    16    30    29   ar
    17    30    26   ar
    18    38    29    1
    19    38    39   ar
    20    40    46    1
    21    40    39   ar
    22    47    46    1
    23    47    48    1
    24    10    13    1
    25    10    12    1
    26    29    28   ar
    27     7     2    1
    28    39    44    1
    29     3     2   ar
    30     3     4   ar
    31    21    16    1
    32    26    17    1
    33    26    27   ar
    34    17    16   ar
    35    17    18   ar
    36    16    15   ar
    37    34    37    1
    38    34    35    1
    39    34    33    1
    40    20    19    1
    41    18    14   ar
    42    15    19    1
    43    15    14   ar
    44     2     1   ar
    45    28    27   ar
    46    28    33    1
    47    14     4    1
    48     4     5   ar
    49    27    31    1
    50    44    45    1
    51     1     6    1
    52     1     5   ar
    53    31    32    1
