@<TRIPOS>MOLECULE
mol_data/opt/b3lyp/geoms/mol2/5ga.out
 10 10 0 0 0
SMALL
GASTEIGER

@<TRIPOS>ATOM
      1 C          -2.0996   -1.6672   -0.0001 C.ar    1  LIG1       -0.0112
      2 C          -0.7298   -1.6441   -0.0003 C.ar    1  LIG1        0.0117
      3 C          -0.2023   -0.3101    0.0001 C.ar    1  LIG1       -0.0415
      4 C          -1.1809    0.6418    0.0005 C.ar    1  LIG1       -0.0233
      5 S          -2.7634   -0.0631    0.0005 S.2     1  LIG1       -0.1040
      6 H          -2.7548   -2.5264   -0.0003 H       1  LIG1        0.0704
      7 H          -1.0644    1.7167    0.0008 H       1  LIG1        0.0694
      8 S           0.2552   -3.1337   -0.0008 S.3     1  LIG1       -0.1421
      9 H           1.4525   -2.5176   -0.0009 H       1  LIG1        0.1071
     10 H           0.8565   -0.0796    0.0001 H       1  LIG1        0.0634
@<TRIPOS>BOND
     1     9     8    1
     2     8     2    1
     3     6     1    1
     4     2     1   ar
     5     2     3   ar
     6     1     5   ar
     7    10     3    1
     8     3     4   ar
     9     4     5   ar
    10     4     7    1
