@<TRIPOS>MOLECULE
mol_data/opt/b3lyp/geoms/mol2/5ga5ga-5ga.out
 26 28 0 0 0
SMALL
GASTEIGER

@<TRIPOS>ATOM
      1 C          -2.1996   -1.8516    0.0005 C.ar    1  LIG1       -0.0105
      2 C          -0.8316   -1.9121   -0.0004 C.ar    1  LIG1        0.0124
      3 C          -0.2179   -0.6233   -0.0002 C.ar    1  LIG1       -0.0332
      4 C          -1.1230    0.4204    0.0009 C.ar    1  LIG1        0.0280
      5 S          -2.7637   -0.2129    0.0016 S.2     1  LIG1       -0.0950
      6 H          -2.9089   -2.6665    0.0005 H       1  LIG1        0.0704
      7 S           0.0566   -3.4610   -0.0017 S.3     1  LIG1       -0.1421
      8 H           1.2908   -2.9229   -0.0023 H       1  LIG1        0.1071
      9 H           0.8547   -0.4886   -0.0009 H       1  LIG1        0.0640
     10 C          -0.8798    1.8478    0.0014 C.ar    1  LIG1        0.0397
     11 C           0.3094    2.5629    0.0015 C.ar    1  LIG1        0.0206
     12 C           0.1270    3.9747    0.0021 C.ar    1  LIG1       -0.0326
     13 C          -1.1917    4.3764    0.0026 C.ar    1  LIG1        0.0286
     14 S          -2.2380    2.9683    0.0022 S.2     1  LIG1       -0.0861
     15 S           1.9278    1.8204    0.0009 S.3     1  LIG1       -0.1415
     16 H           2.6106    2.9803    0.0011 H       1  LIG1        0.1071
     17 H           0.9619    4.6616    0.0022 H       1  LIG1        0.0640
     18 C          -1.7502    5.7124    0.0033 C.ar    1  LIG1        0.0391
     19 C          -1.1219    6.9514    0.0038 C.ar    1  LIG1        0.0200
     20 C          -2.0395    8.0486    0.0044 C.ar    1  LIG1       -0.0409
     21 C          -3.3452    7.6571    0.0044 C.ar    1  LIG1       -0.0227
     22 S          -3.4988    5.9363    0.0037 S.2     1  LIG1       -0.0950
     23 H          -4.2282    8.2802    0.0049 H       1  LIG1        0.0694
     24 S           0.6426    7.1865    0.0037 S.3     1  LIG1       -0.1415
     25 H           0.6024    8.5319    0.0041 H       1  LIG1        0.1071
     26 H          -1.7272    9.0865    0.0049 H       1  LIG1        0.0634
@<TRIPOS>BOND
     1     8     7    1
     2     7     2    1
     3     9     3    1
     4     2     3   ar
     5     2     1   ar
     6     3     4   ar
     7     1     6    1
     8     1     5   ar
     9    15    16    1
    10    15    11    1
    11     4    10    1
    12     4     5   ar
    13    10    11   ar
    14    10    14   ar
    15    11    12   ar
    16    12    17    1
    17    12    13   ar
    18    14    13   ar
    19    13    18    1
    20    18    22   ar
    21    18    19   ar
    22    22    21   ar
    23    24    19    1
    24    24    25    1
    25    19    20   ar
    26    20    21   ar
    27    20    26    1
    28    21    23    1
