@<TRIPOS>MOLECULE
mol_data/opt/b3lyp/geoms/mol2/5ga5ga-5ga-.out
 26 28 0 0 0
SMALL
GASTEIGER

@<TRIPOS>ATOM
      1 C          -2.0280   -1.8674   -0.0564 C.ar    1  LIG1       -0.0105
      2 C          -0.7410   -1.8247    0.4113 C.ar    1  LIG1        0.0124
      3 C          -0.2128   -0.4975    0.4651 C.ar    1  LIG1       -0.0332
      4 C          -1.0941    0.4582    0.0133 C.ar    1  LIG1        0.0280
      5 S          -2.6146   -0.2903   -0.4654 S.2     1  LIG1       -0.0950
      6 H          -2.6547   -2.7375   -0.1894 H       1  LIG1        0.0704
      7 S           0.1097   -3.2813    1.0039 S.3     1  LIG1       -0.1421
      8 H           1.1417   -3.2429    0.1336 H       1  LIG1        0.1071
      9 H           0.7645   -0.2649    0.8688 H       1  LIG1        0.0640
     10 C          -0.8936    1.8892   -0.1005 C.ar    1  LIG1        0.0397
     11 C           0.2546    2.5867   -0.4338 C.ar    1  LIG1        0.0206
     12 C           0.0666    3.9994   -0.4666 C.ar    1  LIG1       -0.0326
     13 C          -1.2163    4.3972   -0.1667 C.ar    1  LIG1        0.0286
     14 S          -2.2139    3.0064    0.2109 S.2     1  LIG1       -0.0861
     15 S           1.8027    1.7941   -0.8226 S.3     1  LIG1       -0.1415
     16 H           2.3400    2.8543   -1.4576 H       1  LIG1        0.1071
     17 H           0.8467    4.6938   -0.7534 H       1  LIG1        0.0640
     18 C          -1.7527    5.7428   -0.1120 C.ar    1  LIG1        0.0391
     19 C          -1.1358    6.9169    0.2852 C.ar    1  LIG1        0.0200
     20 C          -1.9941    8.0585    0.1965 C.ar    1  LIG1       -0.0409
     21 C          -3.2480    7.7506   -0.2449 C.ar    1  LIG1       -0.0227
     22 S          -3.4115    6.0665   -0.6023 S.2     1  LIG1       -0.0950
     23 H          -4.0841    8.4199   -0.3913 H       1  LIG1        0.0694
     24 S           0.5490    6.9961    0.8602 S.3     1  LIG1       -0.1415
     25 H           0.4203    8.1781    1.4945 H       1  LIG1        0.1071
     26 H          -1.6826    9.0624    0.4606 H       1  LIG1        0.0634
@<TRIPOS>BOND
     1    16    15    1
     2    15    11    1
     3    17    12    1
     4    22    21   ar
     5    22    18   ar
     6    12    11   ar
     7    12    13   ar
     8     5     1   ar
     9     5     4   ar
    10    11    10   ar
    11    23    21    1
    12    21    20   ar
    13     6     1    1
    14    13    18    1
    15    13    14   ar
    16    18    19   ar
    17    10     4    1
    18    10    14   ar
    19     1     2   ar
    20     4     3   ar
    21     8     7    1
    22    20    19   ar
    23    20    26    1
    24    19    24    1
    25     2     3   ar
    26     2     7    1
    27     3     9    1
    28    24    25    1
