@<TRIPOS>MOLECULE
mol_data/opt/b3lyp/geoms/mol2/5ga5ga.out
 18 19 0 0 0
SMALL
GASTEIGER

@<TRIPOS>ATOM
      1 C          -1.9861   -1.7700    0.3879 C.ar    1  LIG1       -0.0105
      2 C          -0.7474   -1.7534   -0.1969 C.ar    1  LIG1        0.0124
      3 C          -0.2636   -0.4292   -0.4356 C.ar    1  LIG1       -0.0332
      4 C          -1.1276    0.5517   -0.0080 C.ar    1  LIG1        0.0280
      5 S          -2.5764   -0.1691    0.6836 S.2     1  LIG1       -0.0950
      6 H          -2.5750   -2.6325    0.6647 H       1  LIG1        0.0704
      7 S           0.0867   -3.2486   -0.7123 S.3     1  LIG1       -0.1421
      8 H           1.1799   -3.1147    0.0694 H       1  LIG1        0.1071
      9 H           0.6690   -0.2215   -0.9452 H       1  LIG1        0.0640
     10 C          -0.9559    1.9923   -0.0622 C.ar    1  LIG1        0.0390
     11 C           0.1921    2.7407    0.1264 C.ar    1  LIG1        0.0200
     12 C          -0.0270    4.1487   -0.0107 C.ar    1  LIG1       -0.0409
     13 C          -1.3269    4.4619   -0.2822 C.ar    1  LIG1       -0.0227
     14 S          -2.3159    3.0491   -0.4184 S.2     1  LIG1       -0.0950
     15 H          -1.7594    5.4426   -0.4221 H       1  LIG1        0.0694
     16 S           1.7790    2.0229    0.5065 S.3     1  LIG1       -0.1415
     17 H           2.3005    3.1334    1.0647 H       1  LIG1        0.1071
     18 H           0.7573    4.8888    0.0969 H       1  LIG1        0.0634
@<TRIPOS>BOND
     1     9     3    1
     2     7     2    1
     3     7     8    1
     4     3     2   ar
     5     3     4   ar
     6    15    13    1
     7    14    13   ar
     8    14    10   ar
     9    13    12   ar
    10     2     1   ar
    11    10     4    1
    12    10    11   ar
    13    12    18    1
    14    12    11   ar
    15     4     5   ar
    16    11    16    1
    17     1     6    1
    18     1     5   ar
    19    16    17    1
