@<TRIPOS>MOLECULE
mol_data/opt/b3lyp/geoms/mol2/5ga5ga5ga.out
 26 28 0 0 0
SMALL
GASTEIGER

@<TRIPOS>ATOM
      1 C          -2.0265   -1.8681    0.0414 C.ar    1  LIG1       -0.0105
      2 C          -0.7301   -1.8254   -0.3994 C.ar    1  LIG1        0.0124
      3 C          -0.2016   -0.4980   -0.4447 C.ar    1  LIG1       -0.0332
      4 C          -1.0928    0.4580   -0.0135 C.ar    1  LIG1        0.0280
      5 S          -2.6225   -0.2905    0.4349 S.2     1  LIG1       -0.0950
      6 H          -2.6554   -2.7383    0.1627 H       1  LIG1        0.0704
      7 S           0.1338   -3.2827   -0.9710 S.3     1  LIG1       -0.1421
      8 H           1.1477   -3.2415   -0.0798 H       1  LIG1        0.1071
      9 H           0.7838   -0.2656   -0.8280 H       1  LIG1        0.0640
     10 C          -0.8954    1.8893    0.1020 C.ar    1  LIG1        0.0397
     11 C           0.2452    2.5879    0.4586 C.ar    1  LIG1        0.0206
     12 C           0.0558    4.0005    0.4848 C.ar    1  LIG1       -0.0326
     13 C          -1.2205    4.3972    0.1569 C.ar    1  LIG1        0.0286
     14 S          -2.2092    3.0053   -0.2396 S.2     1  LIG1       -0.0861
     15 S           1.7851    1.7970    0.8819 S.3     1  LIG1       -0.1415
     16 H           2.3069    2.8579    1.5286 H       1  LIG1        0.1071
     17 H           0.8293    4.6959    0.7869 H       1  LIG1        0.0640
     18 C          -1.7561    5.7425    0.0884 C.ar    1  LIG1        0.0391
     19 C          -1.1312    6.9163   -0.2973 C.ar    1  LIG1        0.0200
     20 C          -1.9918    8.0577   -0.2289 C.ar    1  LIG1       -0.0409
     21 C          -3.2547    7.7499    0.1860 C.ar    1  LIG1       -0.0227
     22 S          -3.4253    6.0663    0.5422 S.2     1  LIG1       -0.0950
     23 H          -4.0940    8.4192    0.3135 H       1  LIG1        0.0694
     24 S           0.5653    6.9956   -0.8364 S.3     1  LIG1       -0.1415
     25 H           0.4497    8.1768   -1.4745 H       1  LIG1        0.1071
     26 H          -1.6751    9.0612   -0.4879 H       1  LIG1        0.0634
@<TRIPOS>BOND
     1    25    24    1
     2     7     2    1
     3     7     8    1
     4    24    19    1
     5     9     3    1
     6    26    20    1
     7     3     2   ar
     8     3     4   ar
     9     2     1   ar
    10    19    20   ar
    11    19    18   ar
    12    14    10   ar
    13    14    13   ar
    14    20    21   ar
    15     4    10    1
    16     4     5   ar
    17     1     6    1
    18     1     5   ar
    19    18    13    1
    20    18    22   ar
    21    10    11   ar
    22    13    12   ar
    23    21    23    1
    24    21    22   ar
    25    11    12   ar
    26    11    15    1
    27    12    17    1
    28    15    16    1
