@<TRIPOS>MOLECULE
mol_data/opt/b3lyp/geoms/mol2/5ga5ga5ga-5ga.out
 34 37 0 0 0
SMALL
GASTEIGER

@<TRIPOS>ATOM
      1 C          -1.7340   -1.7833    1.2546 C.ar    1  LIG1       -0.0105
      2 C          -0.8804   -1.9070    0.1900 C.ar    1  LIG1        0.0124
      3 C          -0.4785   -0.6458   -0.3492 C.ar    1  LIG1       -0.0332
      4 C          -1.0096    0.4297    0.3254 C.ar    1  LIG1        0.0280
      5 S          -2.0444   -0.1239    1.6384 S.2     1  LIG1       -0.0950
      6 H          -2.1865   -2.5748    1.8345 H       1  LIG1        0.0704
      7 S          -0.4410   -3.4947   -0.5048 S.3     1  LIG1       -0.1421
      8 H           0.8897   -3.4149   -0.2887 H       1  LIG1        0.1071
      9 H           0.1415   -0.5506   -1.2316 H       1  LIG1        0.0640
     10 C          -0.8028    1.8427    0.0763 C.ar    1  LIG1        0.0397
     11 C           0.3370    2.4958   -0.3604 C.ar    1  LIG1        0.0206
     12 C           0.1596    3.9015   -0.5114 C.ar    1  LIG1       -0.0326
     13 C          -1.0965    4.3452   -0.1628 C.ar    1  LIG1        0.0286
     14 S          -2.1056    2.9963    0.3255 S.2     1  LIG1       -0.0861
     15 S           1.8736    1.6628   -0.7130 S.3     1  LIG1       -0.1415
     16 H           2.6548    2.7485   -0.5478 H       1  LIG1        0.1071
     17 H           0.9297    4.5553   -0.9012 H       1  LIG1        0.0640
     18 C          -1.6029    5.7013   -0.1653 C.ar    1  LIG1        0.0397
     19 C          -0.9342    6.8882    0.0864 C.ar    1  LIG1        0.0206
     20 C          -1.7671    8.0392   -0.0247 C.ar    1  LIG1       -0.0326
     21 C          -3.0783    7.7513   -0.3279 C.ar    1  LIG1        0.0286
     22 S          -3.2949    6.0228   -0.5216 S.2     1  LIG1       -0.0861
     23 S           0.7960    6.9766    0.5025 S.3     1  LIG1       -0.1415
     24 H           0.7323    8.1888    1.0874 H       1  LIG1        0.1071
     25 H          -1.3957    9.0507    0.0838 H       1  LIG1        0.0640
     26 C          -4.1877    8.6713   -0.4820 C.ar    1  LIG1        0.0391
     27 C          -4.4423    9.8538    0.1918 C.ar    1  LIG1        0.0200
     28 C          -5.6472   10.4950   -0.2376 C.ar    1  LIG1       -0.0409
     29 C          -6.3035    9.8000   -1.2114 C.ar    1  LIG1       -0.0227
     30 S          -5.4556    8.3617   -1.6619 S.2     1  LIG1       -0.0950
     31 H          -7.2333   10.0566   -1.6995 H       1  LIG1        0.0694
     32 S          -3.3879   10.5018    1.4735 S.3     1  LIG1       -0.1415
     33 H          -4.3130   11.3225    2.0084 H       1  LIG1        0.1071
     34 H          -6.0054   11.4315    0.1737 H       1  LIG1        0.0634
@<TRIPOS>BOND
     1    31    29    1
     2    30    29   ar
     3    30    26   ar
     4     9     3    1
     5    29    28   ar
     6    17    12    1
     7    15    16    1
     8    15    11    1
     9    22    21   ar
    10    22    18   ar
    11    12    11   ar
    12    12    13   ar
    13     7     8    1
    14     7     2    1
    15    26    21    1
    16    26    27   ar
    17    11    10   ar
    18     3     2   ar
    19     3     4   ar
    20    21    20   ar
    21    28    34    1
    22    28    27   ar
    23    18    13    1
    24    18    19   ar
    25    13    14   ar
    26    20    25    1
    27    20    19   ar
    28    10     4    1
    29    10    14   ar
    30    19    23    1
    31     2     1   ar
    32    27    32    1
    33     4     5   ar
    34    23    24    1
    35     1     5   ar
    36     1     6    1
    37    32    33    1
