@<TRIPOS>MOLECULE
mol_data/opt/b3lyp/geoms/mol2/5ga5ga-5ga5ga.out
 34 37 0 0 0
SMALL
GASTEIGER

@<TRIPOS>ATOM
      1 C          -2.0335   -1.9218    0.1232 C.ar    1  LIG1       -0.0105
      2 C          -0.7217   -1.9142   -0.2719 C.ar    1  LIG1        0.0124
      3 C          -0.1708   -0.5973   -0.3453 C.ar    1  LIG1       -0.0332
      4 C          -1.0614    0.3868    0.0194 C.ar    1  LIG1        0.0280
      5 S          -2.6176   -0.3226    0.4391 S.2     1  LIG1       -0.0950
      6 H          -2.6802   -2.7778    0.2526 H       1  LIG1        0.0704
      7 S           0.1374   -3.4039   -0.7619 S.3     1  LIG1       -0.1421
      8 H           1.1207   -3.3472    0.1622 H       1  LIG1        0.1071
      9 H           0.8310   -0.3935   -0.7015 H       1  LIG1        0.0640
     10 C          -0.8470    1.8184    0.0878 C.ar    1  LIG1        0.0397
     11 C           0.2937    2.5160    0.4476 C.ar    1  LIG1        0.0206
     12 C           0.1244    3.9303    0.4136 C.ar    1  LIG1       -0.0326
     13 C          -1.1379    4.3311    0.0353 C.ar    1  LIG1        0.0286
     14 S          -2.1359    2.9367   -0.3317 S.2     1  LIG1       -0.0861
     15 S           1.8109    1.7219    0.9415 S.3     1  LIG1       -0.1415
     16 H           2.3319    2.8007    1.5583 H       1  LIG1        0.1071
     17 H           0.8993    4.6260    0.7107 H       1  LIG1        0.0640
     18 C          -1.6532    5.6764   -0.1010 C.ar    1  LIG1        0.0397
     19 C          -0.9980    6.8336   -0.4904 C.ar    1  LIG1        0.0206
     20 C          -1.8483    7.9763   -0.5277 C.ar    1  LIG1       -0.0326
     21 C          -3.1527    7.7127   -0.1753 C.ar    1  LIG1        0.0286
     22 S          -3.3391    6.0247    0.2562 S.2     1  LIG1       -0.0861
     23 S           0.7236    6.8791   -0.9471 S.3     1  LIG1       -0.1415
     24 H           0.6690    8.0801   -1.5549 H       1  LIG1        0.1071
     25 H          -1.5134    8.9524   -0.8564 H       1  LIG1        0.0640
     26 C          -4.2715    8.6314   -0.1094 C.ar    1  LIG1        0.0391
     27 C          -4.2870    9.9708    0.2421 C.ar    1  LIG1        0.0200
     28 C          -5.5946   10.5493    0.1856 C.ar    1  LIG1       -0.0409
     29 C          -6.5574    9.6570   -0.1869 C.ar    1  LIG1       -0.0227
     30 S          -5.8969    8.0935   -0.5167 S.2     1  LIG1       -0.0950
     31 H          -7.6184    9.8319   -0.2978 H       1  LIG1        0.0694
     32 S          -2.8323   10.8769    0.7278 S.3     1  LIG1       -0.1415
     33 H          -3.4937   11.8733    1.3487 H       1  LIG1        0.1071
     34 H          -5.7998   11.5868    0.4221 H       1  LIG1        0.0634
@<TRIPOS>BOND
     1    24    23    1
     2    23    19    1
     3    25    20    1
     4     7     2    1
     5     7     8    1
     6     9     3    1
     7    20    19   ar
     8    20    21   ar
     9    30    29   ar
    10    30    26   ar
    11    19    18   ar
    12     3     2   ar
    13     3     4   ar
    14    14    13   ar
    15    14    10   ar
    16    31    29    1
    17     2     1   ar
    18    29    28   ar
    19    21    26    1
    20    21    22   ar
    21    26    27   ar
    22    18    13    1
    23    18    22   ar
    24     4    10    1
    25     4     5   ar
    26    13    12   ar
    27    10    11   ar
    28     1     6    1
    29     1     5   ar
    30    28    27   ar
    31    28    34    1
    32    27    32    1
    33    12    11   ar
    34    12    17    1
    35    11    15    1
    36    32    33    1
    37    15    16    1
