@<TRIPOS>MOLECULE
mol_data/opt/b3lyp/geoms/mol2/5ga5ga5ga5ga-.out
 34 37 0 0 0
SMALL
GASTEIGER

@<TRIPOS>ATOM
      1 C          -2.0266   -1.9209    0.1589 C.ar    1  LIG1       -0.0105
      2 C          -0.7177   -1.9154   -0.2461 C.ar    1  LIG1        0.0124
      3 C          -0.1687   -0.5987   -0.3345 C.ar    1  LIG1       -0.0332
      4 C          -1.0574    0.3877    0.0285 C.ar    1  LIG1        0.0280
      5 S          -2.6098   -0.3196    0.4658 S.2     1  LIG1       -0.0950
      6 H          -2.6715   -2.7762    0.3004 H       1  LIG1        0.0704
      7 S           0.1389   -3.4082   -0.7300 S.3     1  LIG1       -0.1421
      8 H           1.1292   -3.3429    0.1859 H       1  LIG1        0.1071
      9 H           0.8303   -0.3970   -0.7000 H       1  LIG1        0.0640
     10 C          -0.8439    1.8199    0.0833 C.ar    1  LIG1        0.0397
     11 C           0.2985    2.5214    0.4300 C.ar    1  LIG1        0.0206
     12 C           0.1278    3.9353    0.3851 C.ar    1  LIG1       -0.0326
     13 C          -1.1372    4.3318    0.0113 C.ar    1  LIG1        0.0286
     14 S          -2.1364    2.9337   -0.3376 S.2     1  LIG1       -0.0861
     15 S           1.8193    1.7327    0.9210 S.3     1  LIG1       -0.1415
     16 H           2.3437    2.8172    1.5250 H       1  LIG1        0.1071
     17 H           0.9040    4.6342    0.6713 H       1  LIG1        0.0640
     18 C          -1.6546    5.6756   -0.1330 C.ar    1  LIG1        0.0397
     19 C          -1.0029    6.8300   -0.5362 C.ar    1  LIG1        0.0206
     20 C          -1.8544    7.9716   -0.5778 C.ar    1  LIG1       -0.0326
     21 C          -3.1564    7.7098   -0.2150 C.ar    1  LIG1        0.0286
     22 S          -3.3385    6.0253    0.2317 S.2     1  LIG1       -0.0861
     23 S           0.7156    6.8729   -1.0041 S.3     1  LIG1       -0.1415
     24 H           0.6575    8.0712   -1.6171 H       1  LIG1        0.1071
     25 H          -1.5226    8.9452   -0.9168 H       1  LIG1        0.0640
     26 C          -4.2756    8.6281   -0.1497 C.ar    1  LIG1        0.0391
     27 C          -4.2900    9.9704    0.1906 C.ar    1  LIG1        0.0200
     28 C          -5.5983   10.5475    0.1377 C.ar    1  LIG1       -0.0409
     29 C          -6.5627    9.6514   -0.2213 C.ar    1  LIG1       -0.0227
     30 S          -5.9030    8.0855   -0.5421 S.2     1  LIG1       -0.0950
     31 H          -7.6245    9.8245   -0.3269 H       1  LIG1        0.0694
     32 S          -2.8326   10.8818    0.6599 S.3     1  LIG1       -0.1415
     33 H          -3.4913   11.8841    1.2740 H       1  LIG1        0.1071
     34 H          -5.8029   11.5867    0.3668 H       1  LIG1        0.0634
@<TRIPOS>BOND
     1    24    23    1
     2    23    19    1
     3    25    20    1
     4     7     2    1
     5     7     8    1
     6     9     3    1
     7    20    19   ar
     8    20    21   ar
     9    30    29   ar
    10    30    26   ar
    11    19    18   ar
    12    14    13   ar
    13    14    10   ar
    14     3     2   ar
    15     3     4   ar
    16    31    29    1
    17     2     1   ar
    18    29    28   ar
    19    21    26    1
    20    21    22   ar
    21    26    27   ar
    22    18    13    1
    23    18    22   ar
    24    13    12   ar
    25     4    10    1
    26     4     5   ar
    27    10    11   ar
    28    28    27   ar
    29    28    34    1
    30     1     6    1
    31     1     5   ar
    32    27    32    1
    33    12    11   ar
    34    12    17    1
    35    11    15    1
    36    32    33    1
    37    15    16    1
