@<TRIPOS>MOLECULE
mol_data/opt/b3lyp/geoms/mol2/5ga5ga-5ga-5ga-.out
 34 37 0 0 0
SMALL
GASTEIGER

@<TRIPOS>ATOM
      1 C          -2.0224   -1.9217   -0.1393 C.ar    1  LIG1       -0.0105
      2 C          -0.7168   -1.9133    0.2758 C.ar    1  LIG1        0.0124
      3 C          -0.1689   -0.5959    0.3608 C.ar    1  LIG1       -0.0332
      4 C          -1.0551    0.3880   -0.0151 C.ar    1  LIG1        0.0280
      5 S          -2.6039   -0.3224   -0.4602 S.2     1  LIG1       -0.0950
      6 H          -2.6658   -2.7781   -0.2808 H       1  LIG1        0.0704
      7 S           0.1359   -3.4030    0.7759 S.3     1  LIG1       -0.1421
      8 H           1.1344   -3.3427   -0.1315 H       1  LIG1        0.1071
      9 H           0.8271   -0.3916    0.7328 H       1  LIG1        0.0640
     10 C          -0.8417    1.8200   -0.0764 C.ar    1  LIG1        0.0397
     11 C           0.3032    2.5200   -0.4178 C.ar    1  LIG1        0.0206
     12 C           0.1314    3.9340   -0.3826 C.ar    1  LIG1       -0.0326
     13 C          -1.1369    4.3321   -0.0218 C.ar    1  LIG1        0.0286
     14 S          -2.1381    2.9355    0.3272 S.2     1  LIG1       -0.0861
     15 S           1.8284    1.7292   -0.8917 S.3     1  LIG1       -0.1415
     16 H           2.3571    2.8104   -1.4978 H       1  LIG1        0.1071
     17 H           0.9097    4.6316   -0.6665 H       1  LIG1        0.0640
     18 C          -1.6560    5.6764    0.1102 C.ar    1  LIG1        0.0397
     19 C          -1.0083    6.8336    0.5119 C.ar    1  LIG1        0.0206
     20 C          -1.8607    7.9749    0.5396 C.ar    1  LIG1       -0.0326
     21 C          -3.1595    7.7103    0.1677 C.ar    1  LIG1        0.0286
     22 S          -3.3370    6.0231   -0.2706 S.2     1  LIG1       -0.0861
     23 S           0.7063    6.8802    0.9939 S.3     1  LIG1       -0.1415
     24 H           0.6425    8.0822    1.5990 H       1  LIG1        0.1071
     25 H          -1.5321    8.9507    0.8756 H       1  LIG1        0.0640
     26 C          -4.2785    8.6275    0.0876 C.ar    1  LIG1        0.0391
     27 C          -4.2907    9.9678   -0.2608 C.ar    1  LIG1        0.0200
     28 C          -5.5997   10.5444   -0.2222 C.ar    1  LIG1       -0.0409
     29 C          -6.5667    9.6499    0.1340 C.ar    1  LIG1       -0.0227
     30 S          -5.9089    8.0864    0.4696 S.2     1  LIG1       -0.0950
     31 H          -7.6295    9.8231    0.2297 H       1  LIG1        0.0694
     32 S          -2.8302   10.8772   -0.7232 S.3     1  LIG1       -0.1415
     33 H          -3.4841   11.8752   -1.3493 H       1  LIG1        0.1071
     34 H          -5.8029   11.5822   -0.4592 H       1  LIG1        0.0634
@<TRIPOS>BOND
     1    16    15    1
     2    33    32    1
     3    15    11    1
     4    32    27    1
     5    17    12    1
     6     5     1   ar
     7     5     4   ar
     8    34    28    1
     9    11    12   ar
    10    11    10   ar
    11    12    13   ar
    12     6     1    1
    13    22    18   ar
    14    22    21   ar
    15    27    28   ar
    16    27    26   ar
    17    28    29   ar
    18     1     2   ar
    19     8     7    1
    20    10     4    1
    21    10    14   ar
    22    13    18    1
    23    13    14   ar
    24     4     3   ar
    25    26    21    1
    26    26    30   ar
    27    18    19   ar
    28    29    31    1
    29    29    30   ar
    30    21    20   ar
    31     2     3   ar
    32     2     7    1
    33     3     9    1
    34    19    20   ar
    35    19    23    1
    36    20    25    1
    37    23    24    1
