@<TRIPOS>MOLECULE
mol_data/opt/b3lyp/geoms/mol2/5ga5ga5ga-5ga-.out
 34 37 0 0 0
SMALL
GASTEIGER

@<TRIPOS>ATOM
      1 C          -1.7828   -1.9136    0.7707 C.ar    1  LIG1       -0.0105
      2 C          -0.8269   -1.9198   -0.2109 C.ar    1  LIG1        0.0124
      3 C          -0.4005   -0.6063   -0.5795 C.ar    1  LIG1       -0.0332
      4 C          -1.0176    0.3898    0.1424 C.ar    1  LIG1        0.0280
      5 S          -2.1637   -0.3048    1.2847 S.2     1  LIG1       -0.0950
      6 H          -2.2735   -2.7644    1.2210 H       1  LIG1        0.0704
      7 S          -0.2880   -3.4247   -1.0122 S.3     1  LIG1       -0.1421
      8 H           1.0107   -3.3588   -0.6475 H       1  LIG1        0.1071
      9 H           0.3005   -0.4155   -1.3822 H       1  LIG1        0.0640
     10 C          -0.8164    1.8227    0.0572 C.ar    1  LIG1        0.0397
     11 C           0.3467    2.5285   -0.1989 C.ar    1  LIG1        0.0206
     12 C           0.1571    3.9406   -0.2221 C.ar    1  LIG1       -0.0326
     13 C          -1.1350    4.3335    0.0472 C.ar    1  LIG1        0.0286
     14 S          -2.1599    2.9316    0.2948 S.2     1  LIG1       -0.0861
     15 S           1.9253    1.7510   -0.4825 S.3     1  LIG1       -0.1415
     16 H           2.6652    2.8288   -0.1552 H       1  LIG1        0.1071
     17 H           0.9476    4.6394   -0.4658 H       1  LIG1        0.0640
     18 C          -1.6657    5.6769    0.1366 C.ar    1  LIG1        0.0397
     19 C          -1.0491    6.8358    0.5802 C.ar    1  LIG1        0.0206
     20 C          -1.9028    7.9760    0.5468 C.ar    1  LIG1       -0.0326
     21 C          -3.1720    7.7089    0.0856 C.ar    1  LIG1        0.0286
     22 S          -3.3158    6.0209   -0.3625 S.2     1  LIG1       -0.0861
     23 S           0.6278    6.8873    1.1801 S.3     1  LIG1       -0.1415
     24 H           0.5143    8.0806    1.7952 H       1  LIG1        0.1071
     25 H          -1.5998    8.9528    0.9032 H       1  LIG1        0.0640
     26 C          -4.2841    8.6245   -0.0725 C.ar    1  LIG1        0.0391
     27 C          -4.2738    9.9642   -0.4232 C.ar    1  LIG1        0.0200
     28 C          -5.5827   10.5401   -0.4723 C.ar    1  LIG1       -0.0409
     29 C          -6.5707    9.6456   -0.1793 C.ar    1  LIG1       -0.0227
     30 S          -5.9359    8.0829    0.2013 S.2     1  LIG1       -0.0950
     31 H          -7.6376    9.8182   -0.1548 H       1  LIG1        0.0694
     32 S          -2.7858   10.8735   -0.7886 S.3     1  LIG1       -0.1415
     33 H          -3.3972   11.8723   -1.4550 H       1  LIG1        0.1071
     34 H          -5.7703   11.5773   -0.7241 H       1  LIG1        0.0634
@<TRIPOS>BOND
     1    33    32    1
     2     9     3    1
     3     7     8    1
     4     7     2    1
     5    32    27    1
     6    34    28    1
     7     3     2   ar
     8     3     4   ar
     9    15    11    1
    10    15    16    1
    11    28    27   ar
    12    28    29   ar
    13    17    12    1
    14    27    26   ar
    15    22    21   ar
    16    22    18   ar
    17    12    11   ar
    18    12    13   ar
    19     2     1   ar
    20    11    10   ar
    21    29    31    1
    22    29    30   ar
    23    26    21    1
    24    26    30   ar
    25    13    18    1
    26    13    14   ar
    27    10     4    1
    28    10    14   ar
    29    21    20   ar
    30    18    19   ar
    31     4     5   ar
    32    20    19   ar
    33    20    25    1
    34    19    23    1
    35     1     6    1
    36     1     5   ar
    37    23    24    1
