@<TRIPOS>MOLECULE
mol_data/opt/b3lyp/geoms/mol2/5ga5ga-5ga-5ga.out
 34 37 0 0 0
SMALL
GASTEIGER

@<TRIPOS>ATOM
      1 C          -2.0147   -1.8952    0.2228 C.ar    1  LIG1       -0.0105
      2 C          -0.6722   -1.8654    0.4948 C.ar    1  LIG1        0.0124
      3 C          -0.1113   -0.5553    0.3838 C.ar    1  LIG1       -0.0332
      4 C          -1.0331    0.4038    0.0302 C.ar    1  LIG1        0.0280
      5 S          -2.6188   -0.3283   -0.1975 S.2     1  LIG1       -0.0950
      6 H          -2.6758   -2.7494    0.2519 H       1  LIG1        0.0704
      7 S           0.2615   -3.3456    0.8638 S.3     1  LIG1       -0.1421
      8 H           0.6293   -3.0114    2.1199 H       1  LIG1        0.1071
      9 H           0.9282   -0.3363    0.5929 H       1  LIG1        0.0640
     10 C          -0.8267    1.8225   -0.1849 C.ar    1  LIG1        0.0397
     11 C           0.2706    2.4769   -0.7183 C.ar    1  LIG1        0.0206
     12 C           0.1034    3.8900   -0.7910 C.ar    1  LIG1       -0.0326
     13 C          -1.1134    4.3327   -0.3213 C.ar    1  LIG1        0.0286
     14 S          -2.0668    2.9837    0.2654 S.2     1  LIG1       -0.0861
     15 S           1.7275    1.6298   -1.2974 S.3     1  LIG1       -0.1415
     16 H           2.2158    2.6718   -1.9981 H       1  LIG1        0.1071
     17 H           0.8419    4.5504   -1.2283 H       1  LIG1        0.0640
     18 C          -1.6116    5.6898   -0.2524 C.ar    1  LIG1        0.0397
     19 C          -0.9180    6.8719   -0.0497 C.ar    1  LIG1        0.0206
     20 C          -1.7543    8.0254   -0.0625 C.ar    1  LIG1       -0.0326
     21 C          -3.0899    7.7442   -0.2397 C.ar    1  LIG1        0.0286
     22 S          -3.3298    6.0190   -0.4357 S.2     1  LIG1       -0.0861
     23 S           0.8449    6.9505    0.1975 S.3     1  LIG1       -0.1415
     24 H           0.8438    8.1615    0.7883 H       1  LIG1        0.1071
     25 H          -1.3711    9.0347    0.0237 H       1  LIG1        0.0640
     26 C          -4.2062    8.6682   -0.2701 C.ar    1  LIG1        0.0391
     27 C          -4.3897    9.8410    0.4428 C.ar    1  LIG1        0.0200
     28 C          -5.6298   10.4896    0.1447 C.ar    1  LIG1       -0.0409
     29 C          -6.3815    9.8094   -0.7687 C.ar    1  LIG1       -0.0227
     30 S          -5.5861    8.3772   -1.3222 S.2     1  LIG1       -0.0950
     31 H          -7.3546   10.0741   -1.1580 H       1  LIG1        0.0694
     32 S          -3.2106   10.4693    1.6218 S.3     1  LIG1       -0.1415
     33 H          -4.0772   11.2761    2.2651 H       1  LIG1        0.1071
     34 H          -5.9428   11.4204    0.6030 H       1  LIG1        0.0634
@<TRIPOS>BOND
     1    16    15    1
     2    30    29   ar
     3    30    26   ar
     4    15    11    1
     5    17    12    1
     6    31    29    1
     7    12    11   ar
     8    12    13   ar
     9    29    28   ar
    10    11    10   ar
    11    22    18   ar
    12    22    21   ar
    13    13    18    1
    14    13    14   ar
    15    26    21    1
    16    26    27   ar
    17    18    19   ar
    18    21    20   ar
    19     5     4   ar
    20     5     1   ar
    21    10     4    1
    22    10    14   ar
    23    20    19   ar
    24    20    25    1
    25    19    23    1
    26     4     3   ar
    27    28    27   ar
    28    28    34    1
    29    23    24    1
    30     1     6    1
    31     1     2   ar
    32     3     2   ar
    33     3     9    1
    34    27    32    1
    35     2     7    1
    36     7     8    1
    37    32    33    1
