@<TRIPOS>MOLECULE
mol_data/opt/b3lyp/geoms/mol2/5ga5ga-.out
 18 19 0 0 0
SMALL
GASTEIGER

@<TRIPOS>ATOM
      1 C          -2.1554   -1.7826    0.0001 C.ar    1  LIG1       -0.0105
      2 C          -0.7868   -1.7988   -0.0004 C.ar    1  LIG1        0.0124
      3 C          -0.2154   -0.4893   -0.0000 C.ar    1  LIG1       -0.0332
      4 C          -1.1530    0.5233    0.0007 C.ar    1  LIG1        0.0280
      5 S          -2.7718   -0.1626    0.0010 S.2     1  LIG1       -0.0950
      6 H          -2.8386   -2.6199   -0.0000 H       1  LIG1        0.0704
      7 S           0.1513   -3.3177   -0.0013 S.3     1  LIG1       -0.1421
      8 H           1.3675   -2.7403   -0.0015 H       1  LIG1        0.1071
      9 H           0.8525   -0.3201   -0.0004 H       1  LIG1        0.0640
     10 C          -0.9571    1.9617    0.0013 C.ar    1  LIG1        0.0390
     11 C           0.2105    2.7114    0.0015 C.ar    1  LIG1        0.0200
     12 C          -0.0248    4.1234    0.0020 C.ar    1  LIG1       -0.0409
     13 C          -1.3483    4.4474    0.0022 C.ar    1  LIG1       -0.0227
     14 S          -2.3513    3.0401    0.0017 S.2     1  LIG1       -0.0950
     15 H          -1.7946    5.4314    0.0026 H       1  LIG1        0.0694
     16 S           1.8521    2.0221    0.0013 S.3     1  LIG1       -0.1415
     17 H           2.4963    3.2040    0.0016 H       1  LIG1        0.1071
     18 H           0.7707    4.8597    0.0023 H       1  LIG1        0.0634
@<TRIPOS>BOND
     1     8     7    1
     2     7     2    1
     3     2     3   ar
     4     2     1   ar
     5     9     3    1
     6     6     1    1
     7     3     4   ar
     8     1     5   ar
     9     4     5   ar
    10     4    10    1
    11    16    11    1
    12    16    17    1
    13    10    11   ar
    14    10    14   ar
    15    11    12   ar
    16    14    13   ar
    17    12    13   ar
    18    12    18    1
    19    13    15    1
