@<TRIPOS>MOLECULE
mol_data/opt/b3lyp/geoms/mol2/5ga5ga-5ga5ga-.out
 34 37 0 0 0
SMALL
GASTEIGER

@<TRIPOS>ATOM
      1 C          -2.2677   -1.8611    0.0010 C.ar    1  LIG1       -0.0105
      2 C          -0.9024   -1.9678   -0.0004 C.ar    1  LIG1        0.0124
      3 C          -0.2454   -0.7009   -0.0004 C.ar    1  LIG1       -0.0332
      4 C          -1.1147    0.3731    0.0011 C.ar    1  LIG1        0.0280
      5 S          -2.7762   -0.2045    0.0024 S.2     1  LIG1       -0.0950
      6 H          -3.0041   -2.6517    0.0012 H       1  LIG1        0.0704
      7 S          -0.0687   -3.5466   -0.0021 S.3     1  LIG1       -0.1421
      8 H           1.1837   -3.0525   -0.0031 H       1  LIG1        0.1071
      9 H           0.8310   -0.6021   -0.0014 H       1  LIG1        0.0640
     10 C          -0.8239    1.7911    0.0015 C.ar    1  LIG1        0.0397
     11 C           0.3893    2.4663    0.0013 C.ar    1  LIG1        0.0206
     12 C           0.2557    3.8821    0.0019 C.ar    1  LIG1       -0.0326
     13 C          -1.0504    4.3289    0.0027 C.ar    1  LIG1        0.0286
     14 S          -2.1439    2.9564    0.0027 S.2     1  LIG1       -0.0861
     15 S           1.9819    1.6685    0.0003 S.3     1  LIG1       -0.1415
     16 H           2.7030    2.8050    0.0003 H       1  LIG1        0.1071
     17 H           1.1128    4.5410    0.0018 H       1  LIG1        0.0640
     18 C          -1.5618    5.6794    0.0036 C.ar    1  LIG1        0.0397
     19 C          -0.8970    6.8994    0.0039 C.ar    1  LIG1        0.0206
     20 C          -1.7683    8.0234    0.0048 C.ar    1  LIG1       -0.0326
     21 C          -3.1098    7.7021    0.0051 C.ar    1  LIG1        0.0286
     22 S          -3.3007    5.9584    0.0043 S.2     1  LIG1       -0.0861
     23 S           0.8744    7.0760    0.0035 S.3     1  LIG1       -0.1415
     24 H           0.8791    8.4219    0.0039 H       1  LIG1        0.1071
     25 H          -1.3969    9.0386    0.0052 H       1  LIG1        0.0640
     26 C          -4.2670    8.5719    0.0059 C.ar    1  LIG1        0.0391
     27 C          -4.3514    9.9589    0.0064 C.ar    1  LIG1        0.0200
     28 C          -5.6976   10.4412    0.0071 C.ar    1  LIG1       -0.0409
     29 C          -6.6260    9.4427    0.0072 C.ar    1  LIG1       -0.0227
     30 S          -5.8887    7.8806    0.0063 S.2     1  LIG1       -0.0950
     31 H          -7.7029    9.5338    0.0076 H       1  LIG1        0.0694
     32 S          -2.9482   11.0542    0.0062 S.3     1  LIG1       -0.1415
     33 H          -3.6635   12.1944    0.0065 H       1  LIG1        0.1071
     34 H          -5.9534   11.4945    0.0076 H       1  LIG1        0.0634
@<TRIPOS>BOND
     1     8     7    1
     2     7     2    1
     3     9     3    1
     4     2     3   ar
     5     2     1   ar
     6     3     4   ar
     7    15    16    1
     8    15    11    1
     9     1     6    1
    10     1     5   ar
    11     4    10    1
    12     4     5   ar
    13    11    10   ar
    14    11    12   ar
    15    10    14   ar
    16    17    12    1
    17    12    13   ar
    18    14    13   ar
    19    13    18    1
    20    23    24    1
    21    23    19    1
    22    18    19   ar
    23    18    22   ar
    24    19    20   ar
    25    22    21   ar
    26    20    21   ar
    27    20    25    1
    28    21    26    1
    29    26    30   ar
    30    26    27   ar
    31    32    27    1
    32    32    33    1
    33    30    29   ar
    34    27    28   ar
    35    28    29   ar
    36    28    34    1
    37    29    31    1
