@<TRIPOS>MOLECULE
mol_data/opt/b3lyp/geoms/mol2/5ga5ga5ga-.out
 26 28 0 0 0
SMALL
GASTEIGER

@<TRIPOS>ATOM
      1 C          -1.9101   -1.8077    0.7617 C.ar    1  LIG1       -0.0105
      2 C          -0.8406   -1.8558   -0.0933 C.ar    1  LIG1        0.0124
      3 C          -0.3724   -0.5591   -0.4708 C.ar    1  LIG1       -0.0332
      4 C          -1.0738    0.4670    0.1198 C.ar    1  LIG1        0.0280
      5 S          -2.3514   -0.1782    1.1456 S.2     1  LIG1       -0.0950
      6 H          -2.4525   -2.6387    1.1893 H       1  LIG1        0.0704
      7 S          -0.2075   -3.3944   -0.7483 S.3     1  LIG1       -0.1421
      8 H           1.0363   -3.3039   -0.2297 H       1  LIG1        0.1071
      9 H           0.4225   -0.4033   -1.1891 H       1  LIG1        0.0640
     10 C          -0.8647    1.8957   -0.0106 C.ar    1  LIG1        0.0397
     11 C           0.3206    2.5968   -0.1496 C.ar    1  LIG1        0.0206
     12 C           0.1325    4.0049   -0.2708 C.ar    1  LIG1       -0.0326
     13 C          -1.1834    4.3993   -0.1937 C.ar    1  LIG1        0.0286
     14 S          -2.2290    3.0046   -0.0075 S.2     1  LIG1       -0.0861
     15 S           1.9236    1.8190   -0.1888 S.3     1  LIG1       -0.1415
     16 H           2.6126    2.9112    0.1971 H       1  LIG1        0.1071
     17 H           0.9465    4.6980   -0.4438 H       1  LIG1        0.0640
     18 C          -1.7228    5.7441   -0.2448 C.ar    1  LIG1        0.0391
     19 C          -1.1863    6.9206    0.2495 C.ar    1  LIG1        0.0200
     20 C          -2.0158    8.0609    0.0061 C.ar    1  LIG1       -0.0409
     21 C          -3.1715    7.7495   -0.6490 C.ar    1  LIG1       -0.0227
     22 S          -3.2680    6.0639   -1.0232 S.2     1  LIG1       -0.0950
     23 H          -3.9688    8.4172   -0.9443 H       1  LIG1        0.0694
     24 S           0.3710    7.0040    1.1127 S.3     1  LIG1       -0.1415
     25 H           0.1286    8.1831    1.7182 H       1  LIG1        0.1071
     26 H          -1.7563    9.0662    0.3168 H       1  LIG1        0.0634
@<TRIPOS>BOND
     1     9     3    1
     2    22    21   ar
     3    22    18   ar
     4    23    21    1
     5     7     8    1
     6     7     2    1
     7    21    20   ar
     8     3     2   ar
     9     3     4   ar
    10    17    12    1
    11    12    13   ar
    12    12    11   ar
    13    18    13    1
    14    18    19   ar
    15    13    14   ar
    16    15    11    1
    17    15    16    1
    18    11    10   ar
    19     2     1   ar
    20    10    14   ar
    21    10     4    1
    22    20    19   ar
    23    20    26    1
    24     4     5   ar
    25    19    24    1
    26     1     5   ar
    27     1     6    1
    28    24    25    1
