@<TRIPOS>MOLECULE
mol_data/opt/b3lyp/geoms/mol2/5gd5gd-5gd.out
 29 31 0 0 0
SMALL
GASTEIGER

@<TRIPOS>ATOM
      1 C          -1.5931   -1.6764    1.5925 C.ar    1  LIG1       -0.0093
      2 C          -0.8592   -1.8539    0.4501 C.ar    1  LIG1        0.0298
      3 C          -0.4486   -0.5937   -0.1212 C.ar    1  LIG1        0.0802
      4 C          -0.8709    0.5075    0.6116 C.ar    1  LIG1        0.0454
      5 S          -1.7795   -0.0059    2.0028 S.2     1  LIG1       -0.0937
      6 H          -2.0339   -2.4388    2.2190 H       1  LIG1        0.0705
      7 S          -0.4905   -3.4570   -0.2180 S.3     1  LIG1       -0.1408
      8 H           0.1646   -3.0105   -1.3084 H       1  LIG1        0.1072
      9 N           0.8339   -0.4857   -2.3653 N.1     1  LIG1       -0.1908
     10 C           0.2652   -0.5007   -1.3495 C.1     1  LIG1        0.1014
     11 C          -0.6390    1.9203    0.3318 C.ar    1  LIG1        0.0422
     12 C           0.5613    2.5991    0.2794 C.ar    1  LIG1        0.0381
     13 C           0.3829    3.9930   -0.0441 C.ar    1  LIG1        0.0808
     14 C          -0.9450    4.3626   -0.2065 C.ar    1  LIG1        0.0460
     15 S          -1.9894    2.9945    0.0184 S.2     1  LIG1       -0.0847
     16 S           2.1187    1.8293    0.6203 S.3     1  LIG1       -0.1402
     17 H           2.8616    2.9323    0.3991 H       1  LIG1        0.1072
     18 N           2.4093    5.5692   -0.3640 N.1     1  LIG1       -0.1908
     19 C           1.4773    4.8865   -0.2210 C.1     1  LIG1        0.1014
     20 C          -1.4827    5.6802   -0.5247 C.ar    1  LIG1        0.0416
     21 C          -1.3881    6.8467    0.2066 C.ar    1  LIG1        0.0375
     22 C          -2.0624    7.9455   -0.4456 C.ar    1  LIG1        0.0725
     23 C          -2.6532    7.5847   -1.6353 C.ar    1  LIG1       -0.0052
     24 S          -2.4056    5.9295   -2.0010 S.2     1  LIG1       -0.0937
     25 H          -3.2126    8.2254   -2.3021 H       1  LIG1        0.0707
     26 S          -0.5925    6.9431    1.7845 S.3     1  LIG1       -0.1403
     27 H          -0.8339    8.2560    1.9729 H       1  LIG1        0.1072
     28 N          -2.1588   10.3228    0.5731 N.1     1  LIG1       -0.1908
     29 C          -2.1248    9.2614    0.0962 C.1     1  LIG1        0.1008
@<TRIPOS>BOND
     1     9    10    3
     2    25    23    1
     3    24    23   ar
     4    24    20   ar
     5    23    22   ar
     6    10     3    1
     7     8     7    1
     8    20    14    1
     9    20    21   ar
    10    22    29    1
    11    22    21   ar
    12    18    19    3
    13    19    13    1
    14     7     2    1
    15    14    13   ar
    16    14    15   ar
    17     3     2   ar
    18     3     4   ar
    19    13    12   ar
    20    15    11   ar
    21    29    28    3
    22    21    26    1
    23    12    11   ar
    24    12    16    1
    25    11     4    1
    26    17    16    1
    27     2     1   ar
    28     4     5   ar
    29     1     5   ar
    30     1     6    1
    31    26    27    1
