@<TRIPOS>MOLECULE
mol_data/opt/b3lyp/geoms/mol2/5gd5gd5gd5gd-.out
 38 41 0 0 0
SMALL
GASTEIGER

@<TRIPOS>ATOM
      1 C          -1.8772   -1.9597    0.3976 C.ar    1  LIG1       -0.0093
      2 C          -0.6609   -1.9191   -0.2294 C.ar    1  LIG1        0.0298
      3 C          -0.1526   -0.5710   -0.3237 C.ar    1  LIG1        0.0802
      4 C          -0.9917    0.3756    0.2500 C.ar    1  LIG1        0.0454
      5 S          -2.4100   -0.3928    0.9033 S.2     1  LIG1       -0.0937
      6 H          -2.4912   -2.8276    0.5920 H       1  LIG1        0.0705
      7 S           0.1580   -3.3733   -0.8344 S.3     1  LIG1       -0.1408
      8 H           1.1589   -2.7241   -1.4625 H       1  LIG1        0.1072
      9 N           2.0399   -0.0559   -1.5960 N.1     1  LIG1       -0.1908
     10 C           1.0545   -0.2535   -1.0080 C.1     1  LIG1        0.1014
     11 C          -0.8054    1.8179    0.3392 C.ar    1  LIG1        0.0422
     12 C           0.2137    2.5218    0.9495 C.ar    1  LIG1        0.0381
     13 C           0.0255    3.9482    0.8471 C.ar    1  LIG1        0.0808
     14 C          -1.1251    4.3124    0.1601 C.ar    1  LIG1        0.0460
     15 S          -1.9859    2.9016   -0.3746 S.2     1  LIG1       -0.0847
     16 S           1.5373    1.7391    1.8260 S.3     1  LIG1       -0.1402
     17 H           2.1069    2.8841    2.2527 H       1  LIG1        0.1072
     18 N           1.6255    5.5930    2.0415 N.1     1  LIG1       -0.1908
     19 C           0.8938    4.8798    1.4833 C.1     1  LIG1        0.1014
     20 C          -1.6277    5.6481   -0.1259 C.ar    1  LIG1        0.0422
     21 C          -1.0079    6.6817   -0.8025 C.ar    1  LIG1        0.0381
     22 C          -1.8598    7.8401   -0.9162 C.ar    1  LIG1        0.0808
     23 C          -3.1073    7.6787   -0.3289 C.ar    1  LIG1        0.0460
     24 S          -3.2454    6.1006    0.3820 S.2     1  LIG1       -0.0847
     25 S           0.6047    6.5456   -1.5167 S.3     1  LIG1       -0.1402
     26 H           0.5780    7.7471   -2.1277 H       1  LIG1        0.1072
     27 N          -1.1259    9.9118   -2.2808 N.1     1  LIG1       -0.1908
     28 C          -1.4799    8.9994   -1.6503 C.1     1  LIG1        0.1014
     29 C          -4.2063    8.6318   -0.2592 C.ar    1  LIG1        0.0416
     30 C          -4.2209    9.8953    0.2986 C.ar    1  LIG1        0.0375
     31 C          -5.5173   10.5210    0.1730 C.ar    1  LIG1        0.0725
     32 C          -6.4440    9.7215   -0.4563 C.ar    1  LIG1       -0.0052
     33 S          -5.7818    8.2114   -0.9209 S.2     1  LIG1       -0.0937
     34 H          -7.4759    9.9656   -0.6654 H       1  LIG1        0.0707
     35 S          -2.8327   10.6107    1.1291 S.3     1  LIG1       -0.1403
     36 H          -3.4553   11.7608    1.4564 H       1  LIG1        0.1072
     37 N          -6.0180   12.8892    1.0894 N.1     1  LIG1       -0.1908
     38 C          -5.8122   11.8238    0.6680 C.1     1  LIG1        0.1008
@<TRIPOS>BOND
     1    27    28    3
     2    26    25    1
     3    28    22    1
     4     9    10    3
     5    25    21    1
     6     8     7    1
     7    10     3    1
     8    33    32   ar
     9    33    29   ar
    10    22    21   ar
    11    22    23   ar
    12     7     2    1
    13    21    20   ar
    14    34    32    1
    15    32    31   ar
    16    15    14   ar
    17    15    11   ar
    18    23    29    1
    19    23    24   ar
    20     3     2   ar
    21     3     4   ar
    22    29    30   ar
    23     2     1   ar
    24    20    14    1
    25    20    24   ar
    26    14    13   ar
    27    31    30   ar
    28    31    38    1
    29     4    11    1
    30     4     5   ar
    31    30    35    1
    32    11    12   ar
    33     1     6    1
    34     1     5   ar
    35    38    37    3
    36    13    12   ar
    37    13    19    1
    38    12    16    1
    39    35    36    1
    40    19    18    3
    41    16    17    1
