@<TRIPOS>MOLECULE
mol_data/opt/b3lyp/geoms/mol2/5gd5gd-5gd-.out
 29 31 0 0 0
SMALL
GASTEIGER

@<TRIPOS>ATOM
      1 C          -1.9134   -1.9018   -0.4664 C.ar    1  LIG1       -0.0093
      2 C          -0.8222   -1.8427    0.3579 C.ar    1  LIG1        0.0298
      3 C          -0.3173   -0.4956    0.4812 C.ar    1  LIG1        0.0802
      4 C          -1.0311    0.4311   -0.2677 C.ar    1  LIG1        0.0454
      5 S          -2.3288   -0.3544   -1.1209 S.2     1  LIG1       -0.0937
      6 H          -2.4978   -2.7728   -0.7272 H       1  LIG1        0.0705
      7 S          -0.1445   -3.2737    1.1607 S.3     1  LIG1       -0.1408
      8 H           0.7717   -2.6076    1.8919 H       1  LIG1        0.1072
      9 N           1.6350    0.0568    2.0857 N.1     1  LIG1       -0.1908
     10 C           0.7604   -0.1578    1.3476 C.1     1  LIG1        0.1014
     11 C          -0.8086    1.8660   -0.3879 C.ar    1  LIG1        0.0422
     12 C           0.3119    2.5315   -0.8444 C.ar    1  LIG1        0.0381
     13 C           0.1304    3.9622   -0.8450 C.ar    1  LIG1        0.0808
     14 C          -1.1166    4.3682   -0.3891 C.ar    1  LIG1        0.0460
     15 S          -2.0778    2.9927    0.0564 S.2     1  LIG1       -0.0847
     16 S           1.7573    1.6980   -1.4358 S.3     1  LIG1       -0.1402
     17 H           2.3972    2.8149   -1.8368 H       1  LIG1        0.1072
     18 N           1.9381    5.5403   -1.8117 N.1     1  LIG1       -0.1908
     19 C           1.1106    4.8577   -1.3591 C.1     1  LIG1        0.1014
     20 C          -1.6371    5.7229   -0.2638 C.ar    1  LIG1        0.0416
     21 C          -1.1391    6.7752    0.4790 C.ar    1  LIG1        0.0375
     22 C          -1.9541    7.9606    0.3421 C.ar    1  LIG1        0.0725
     23 C          -3.0425    7.7756   -0.4795 C.ar    1  LIG1       -0.0052
     24 S          -3.1068    6.1855   -1.1139 S.2     1  LIG1       -0.0937
     25 H          -3.7948    8.5086   -0.7344 H       1  LIG1        0.0707
     26 S           0.2830    6.6446    1.5232 S.3     1  LIG1       -0.1403
     27 H           0.2324    7.9154    1.9705 H       1  LIG1        0.1072
     28 N          -1.4134   10.1758    1.5666 N.1     1  LIG1       -0.1908
     29 C          -1.6719    9.1893    1.0052 C.1     1  LIG1        0.1008
@<TRIPOS>BOND
     1    17    16    1
     2    18    19    3
     3    16    12    1
     4    19    13    1
     5     5     1   ar
     6     5     4   ar
     7    24    23   ar
     8    24    20   ar
     9    13    12   ar
    10    13    14   ar
    11    12    11   ar
    12    25    23    1
    13     6     1    1
    14    23    22   ar
    15     1     2   ar
    16    14    20    1
    17    14    15   ar
    18    11     4    1
    19    11    15   ar
    20     4     3   ar
    21    20    21   ar
    22    22    21   ar
    23    22    29    1
    24     2     3   ar
    25     2     7    1
    26    21    26    1
    27     3    10    1
    28    29    28    3
    29     7     8    1
    30    10     9    3
    31    26    27    1
