@<TRIPOS>MOLECULE
mol_data/opt/b3lyp/geoms/mol2/5gd5gd5gd-.out
 29 31 0 0 0
SMALL
GASTEIGER

@<TRIPOS>ATOM
      1 C          -1.6470   -1.6777    1.5551 C.ar    1  LIG1       -0.0093
      2 C          -0.8967   -1.8542    0.4232 C.ar    1  LIG1        0.0298
      3 C          -0.4698   -0.5939   -0.1357 C.ar    1  LIG1        0.0802
      4 C          -0.8966    0.5064    0.5959 C.ar    1  LIG1        0.0454
      5 S          -1.8298   -0.0080    1.9703 S.2     1  LIG1       -0.0937
      6 H          -2.1018   -2.4403    2.1711 H       1  LIG1        0.0705
      7 S          -0.5278   -3.4565   -0.2472 S.3     1  LIG1       -0.1408
      8 H           0.1504   -3.0088   -1.3229 H       1  LIG1        0.1072
      9 N           0.8487   -0.4827   -2.3587 N.1     1  LIG1       -0.1908
     10 C           0.2639   -0.4992   -1.3521 C.1     1  LIG1        0.1014
     11 C          -0.6520    1.9191    0.3261 C.ar    1  LIG1        0.0422
     12 C           0.5530    2.5908    0.2955 C.ar    1  LIG1        0.0381
     13 C           0.3881    3.9870   -0.0254 C.ar    1  LIG1        0.0808
     14 C          -0.9347    4.3652   -0.2076 C.ar    1  LIG1        0.0460
     15 S          -1.9908    3.0026   -0.0042 S.2     1  LIG1       -0.0847
     16 S           2.0998    1.8104    0.6602 S.3     1  LIG1       -0.1402
     17 H           2.8546    2.9056    0.4408 H       1  LIG1        0.1072
     18 N           2.4292    5.5513   -0.3086 N.1     1  LIG1       -0.1908
     19 C           1.4907    4.8741   -0.1822 C.1     1  LIG1        0.1014
     20 C          -1.4596    5.6871   -0.5291 C.ar    1  LIG1        0.0416
     21 C          -1.3685    6.8507    0.2075 C.ar    1  LIG1        0.0375
     22 C          -2.0273    7.9555   -0.4503 C.ar    1  LIG1        0.0725
     23 C          -2.6036    7.6021   -1.6493 C.ar    1  LIG1       -0.0052
     24 S          -2.3600    5.9469   -2.0174 S.2     1  LIG1       -0.0937
     25 H          -3.1501    8.2483   -2.3216 H       1  LIG1        0.0707
     26 S          -0.5930    6.9377    1.7959 S.3     1  LIG1       -0.1403
     27 H          -0.8419    8.2482    1.9913 H       1  LIG1        0.1072
     28 N          -2.1255   10.3296    0.5757 N.1     1  LIG1       -0.1908
     29 C          -2.0903    9.2698    0.0953 C.1     1  LIG1        0.1008
@<TRIPOS>BOND
     1     9    10    3
     2    25    23    1
     3    24    23   ar
     4    24    20   ar
     5    23    22   ar
     6    10     3    1
     7     8     7    1
     8    20    14    1
     9    20    21   ar
    10    22    29    1
    11    22    21   ar
    12    18    19    3
    13     7     2    1
    14    14    13   ar
    15    14    15   ar
    16    19    13    1
    17     3     2   ar
    18     3     4   ar
    19    13    12   ar
    20    15    11   ar
    21    29    28    3
    22    21    26    1
    23    12    11   ar
    24    12    16    1
    25    11     4    1
    26     2     1   ar
    27    17    16    1
    28     4     5   ar
    29     1     5   ar
    30     1     6    1
    31    26    27    1
