@<TRIPOS>MOLECULE
mol_data/opt/b3lyp/geoms/mol2/5gd5gd-5gd5gd.out
 38 41 0 0 0
SMALL
GASTEIGER

@<TRIPOS>ATOM
      1 C          -1.9750   -1.9638    0.2886 C.ar    1  LIG1       -0.0093
      2 C          -0.7330   -1.9269   -0.2861 C.ar    1  LIG1        0.0298
      3 C          -0.2057   -0.5837   -0.3343 C.ar    1  LIG1        0.0802
      4 C          -1.0572    0.3627    0.2211 C.ar    1  LIG1        0.0454
      5 S          -2.5106   -0.3998    0.8003 S.2     1  LIG1       -0.0937
      6 H          -2.6065   -2.8274    0.4412 H       1  LIG1        0.0705
      7 S           0.0937   -3.3800   -0.8832 S.3     1  LIG1       -0.1408
      8 H           1.1284   -2.7320   -1.4553 H       1  LIG1        0.1072
      9 N           2.0442   -0.0730   -1.5038 N.1     1  LIG1       -0.1908
     10 C           1.0328   -0.2688   -0.9614 C.1     1  LIG1        0.1014
     11 C          -0.8582    1.8008    0.3444 C.ar    1  LIG1        0.0422
     12 C           0.1422    2.4812    1.0098 C.ar    1  LIG1        0.0381
     13 C          -0.0249    3.9113    0.9255 C.ar    1  LIG1        0.0808
     14 C          -1.1411    4.3018    0.1973 C.ar    1  LIG1        0.0460
     15 S          -1.9950    2.9114   -0.3985 S.2     1  LIG1       -0.0847
     16 S           1.4179    1.6666    1.9274 S.3     1  LIG1       -0.1402
     17 H           1.9862    2.7969    2.3933 H       1  LIG1        0.1072
     18 N           1.5429    5.5150    2.2148 N.1     1  LIG1       -0.1908
     19 C           0.8268    4.8208    1.6140 C.1     1  LIG1        0.1014
     20 C          -1.6155    5.6485   -0.0853 C.ar    1  LIG1        0.0422
     21 C          -0.9560    6.6859   -0.7171 C.ar    1  LIG1        0.0381
     22 C          -1.7887    7.8566   -0.8453 C.ar    1  LIG1        0.0808
     23 C          -3.0613    7.7008   -0.3129 C.ar    1  LIG1        0.0460
     24 S          -3.2474    6.1125    0.3636 S.2     1  LIG1       -0.0847
     25 S           0.6835    6.5420   -1.3658 S.3     1  LIG1       -0.1402
     26 H           0.6952    7.7527   -1.9589 H       1  LIG1        0.1072
     27 N          -0.9744    9.9418   -2.1421 N.1     1  LIG1       -0.1908
     28 C          -1.3650    9.0234   -1.5427 C.1     1  LIG1        0.1014
     29 C          -4.1510    8.6662   -0.2715 C.ar    1  LIG1        0.0416
     30 C          -4.1736    9.9203    0.3068 C.ar    1  LIG1        0.0375
     31 C          -5.4566   10.5637    0.1397 C.ar    1  LIG1        0.0725
     32 C          -6.3661    9.7862   -0.5401 C.ar    1  LIG1       -0.0052
     33 S          -5.7030    8.2761   -1.0035 S.2     1  LIG1       -0.0937
     34 H          -7.3858   10.0463   -0.7865 H       1  LIG1        0.0707
     35 S          -2.8121   10.6049    1.2046 S.3     1  LIG1       -0.1403
     36 H          -3.4355   11.7553    1.5293 H       1  LIG1        0.1072
     37 N          -5.9669   12.9221    1.0759 N.1     1  LIG1       -0.1908
     38 C          -5.7563   11.8615    0.6447 C.1     1  LIG1        0.1008
@<TRIPOS>BOND
     1    27    28    3
     2    26    25    1
     3    28    22    1
     4     9    10    3
     5     8     7    1
     6    25    21    1
     7    33    32   ar
     8    33    29   ar
     9    10     3    1
    10     7     2    1
    11    22    21   ar
    12    22    23   ar
    13    34    32    1
    14    21    20   ar
    15    32    31   ar
    16    15    14   ar
    17    15    11   ar
    18     3     2   ar
    19     3     4   ar
    20    23    29    1
    21    23    24   ar
    22     2     1   ar
    23    29    30   ar
    24    20    14    1
    25    20    24   ar
    26    31    30   ar
    27    31    38    1
    28    14    13   ar
    29     4    11    1
    30     4     5   ar
    31     1     6    1
    32     1     5   ar
    33    30    35    1
    34    11    12   ar
    35    38    37    3
    36    13    12   ar
    37    13    19    1
    38    12    16    1
    39    35    36    1
    40    19    18    3
    41    16    17    1
