@<TRIPOS>MOLECULE
mol_data/opt/b3lyp/geoms/mol2/5gd5gd5gd.out
 29 31 0 0 0
SMALL
GASTEIGER

@<TRIPOS>ATOM
      1 C          -1.8661   -1.9059    0.5395 C.ar    1  LIG1       -0.0093
      2 C          -0.7878   -1.8472   -0.3017 C.ar    1  LIG1        0.0298
      3 C          -0.2950   -0.4977   -0.4464 C.ar    1  LIG1        0.0802
      4 C          -1.0046    0.4314    0.3035 C.ar    1  LIG1        0.0454
      5 S          -2.2834   -0.3549    1.1842 S.2     1  LIG1       -0.0937
      6 H          -2.4398   -2.7784    0.8180 H       1  LIG1        0.0705
      7 S          -0.1112   -3.2814   -1.0996 S.3     1  LIG1       -0.1408
      8 H           0.7882   -2.6161   -1.8521 H       1  LIG1        0.1072
      9 N           1.6288    0.0522   -2.0857 N.1     1  LIG1       -0.1908
     10 C           0.7670   -0.1611   -1.3323 C.1     1  LIG1        0.1014
     11 C          -0.7915    1.8691    0.4057 C.ar    1  LIG1        0.0422
     12 C           0.3305    2.5480    0.8382 C.ar    1  LIG1        0.0381
     13 C           0.1378    3.9771    0.8267 C.ar    1  LIG1        0.0808
     14 C          -1.1190    4.3687    0.3855 C.ar    1  LIG1        0.0460
     15 S          -2.0760    2.9813   -0.0311 S.2     1  LIG1       -0.0847
     16 S           1.7915    1.7319    1.4161 S.3     1  LIG1       -0.1402
     17 H           2.4282    2.8579    1.7960 H       1  LIG1        0.1072
     18 N           1.9473    5.5793    1.7496 N.1     1  LIG1       -0.1908
     19 C           1.1186    4.8855    1.3167 C.1     1  LIG1        0.1014
     20 C          -1.6521    5.7180    0.2543 C.ar    1  LIG1        0.0416
     21 C          -1.1734    6.7665   -0.5064 C.ar    1  LIG1        0.0375
     22 C          -1.9954    7.9470   -0.3690 C.ar    1  LIG1        0.0725
     23 C          -3.0700    7.7621    0.4707 C.ar    1  LIG1       -0.0052
     24 S          -3.1124    6.1780    1.1219 S.2     1  LIG1       -0.0937
     25 H          -3.8241    8.4918    0.7296 H       1  LIG1        0.0707
     26 S           0.2337    6.6363   -1.5706 S.3     1  LIG1       -0.1403
     27 H           0.1663    7.9019   -2.0301 H       1  LIG1        0.1072
     28 N          -1.4904   10.1537   -1.6238 N.1     1  LIG1       -0.1908
     29 C          -1.7328    9.1711   -1.0487 C.1     1  LIG1        0.1008
@<TRIPOS>BOND
     1     9    10    3
     2    27    26    1
     3     8     7    1
     4    28    29    3
     5    26    21    1
     6    10     3    1
     7     7     2    1
     8    29    22    1
     9    21    22   ar
    10    21    20   ar
    11     3     2   ar
    12     3     4   ar
    13    22    23   ar
    14     2     1   ar
    15    15    14   ar
    16    15    11   ar
    17    20    14    1
    18    20    24   ar
    19     4    11    1
    20     4     5   ar
    21    14    13   ar
    22    11    12   ar
    23    23    25    1
    24    23    24   ar
    25     1     6    1
    26     1     5   ar
    27    13    12   ar
    28    13    19    1
    29    12    16    1
    30    19    18    3
    31    16    17    1
