@<TRIPOS>MOLECULE
mol_data/opt/b3lyp/geoms/mol2/5gd5gd-5gd5gd-.out
 38 41 0 0 0
SMALL
GASTEIGER

@<TRIPOS>ATOM
      1 C          -0.8907   -1.5559    2.2584 C.ar    1  LIG1       -0.0093
      2 C          -0.8644   -1.7892    0.9093 C.ar    1  LIG1        0.0298
      3 C          -0.7169   -0.5649    0.1594 C.ar    1  LIG1        0.0802
      4 C          -0.6214    0.5645    0.9615 C.ar    1  LIG1        0.0454
      5 S          -0.7212    0.1232    2.6403 S.2     1  LIG1       -0.0937
      6 H          -0.9980   -2.2818    3.0518 H       1  LIG1        0.0705
      7 S          -1.0156   -3.4140    0.2101 S.3     1  LIG1       -0.1408
      8 H          -0.9307   -3.0244   -1.0777 H       1  LIG1        0.1072
      9 N          -0.7614   -0.5519   -2.4272 N.1     1  LIG1       -0.1908
     10 C          -0.7294   -0.5256   -1.2637 C.1     1  LIG1        0.1014
     11 C          -0.4618    1.9538    0.5456 C.ar    1  LIG1        0.0422
     12 C           0.5919    2.5288   -0.1355 C.ar    1  LIG1        0.0381
     13 C           0.3771    3.9330   -0.3811 C.ar    1  LIG1        0.0808
     14 C          -0.8181    4.4129    0.1361 C.ar    1  LIG1        0.0460
     15 S          -1.7022    3.1373    0.9127 S.2     1  LIG1       -0.0847
     16 S           2.0427    1.6277   -0.6020 S.3     1  LIG1       -0.1402
     17 H           2.6638    2.6717   -1.1865 H       1  LIG1        0.1072
     18 N           2.0674    5.3398   -1.7440 N.1     1  LIG1       -0.1908
     19 C           1.2919    4.7336   -1.1224 C.1     1  LIG1        0.1014
     20 C          -1.3439    5.7723    0.0749 C.ar    1  LIG1        0.0422
     21 C          -0.8104    6.9233    0.6183 C.ar    1  LIG1        0.0381
     22 C          -1.6167    8.0831    0.3281 C.ar    1  LIG1        0.0808
     23 C          -2.7609    7.7983   -0.4041 C.ar    1  LIG1        0.0460
     24 S          -2.8510    6.1015   -0.7595 S.2     1  LIG1       -0.0847
     25 S           0.6662    6.9352    1.5941 S.3     1  LIG1       -0.1402
     26 H           0.6811    8.2682    1.7948 H       1  LIG1        0.1072
     27 N          -0.8713   10.4503    1.0585 N.1     1  LIG1       -0.1908
     28 C          -1.2371    9.3979    0.7208 C.1     1  LIG1        0.1014
     29 C          -3.7939    8.7202   -0.8610 C.ar    1  LIG1        0.0416
     30 C          -4.6288    9.5191   -0.1060 C.ar    1  LIG1        0.0375
     31 C          -5.5280   10.2889   -0.9344 C.ar    1  LIG1        0.0725
     32 C          -5.3608   10.0477   -2.2791 C.ar    1  LIG1       -0.0052
     33 S          -4.1200    8.9055   -2.5793 S.2     1  LIG1       -0.0937
     34 H          -5.9116   10.4986   -3.0924 H       1  LIG1        0.0707
     35 S          -4.6259    9.5318    1.6636 S.3     1  LIG1       -0.1403
     36 H          -5.6319   10.4204    1.7902 H       1  LIG1        0.1072
     37 N          -7.2861   11.9109    0.0538 N.1     1  LIG1       -0.1908
     38 C          -6.5003   11.1890   -0.4115 C.1     1  LIG1        0.1008
@<TRIPOS>BOND
     1    34    32    1
     2    33    32   ar
     3    33    29   ar
     4     9    10    3
     5    32    31   ar
     6    18    19    3
     7    10     3    1
     8    17    16    1
     9    19    13    1
    10     8     7    1
    11    31    38    1
    12    31    30   ar
    13    29    23    1
    14    29    30   ar
    15    24    23   ar
    16    24    20   ar
    17    16    12    1
    18    38    37    3
    19    23    22   ar
    20    13    12   ar
    21    13    14   ar
    22    12    11   ar
    23    30    35    1
    24    20    14    1
    25    20    21   ar
    26    14    15   ar
    27     3     2   ar
    28     3     4   ar
    29     7     2    1
    30    22    21   ar
    31    22    28    1
    32    11    15   ar
    33    11     4    1
    34    21    25    1
    35    28    27    3
    36     2     1   ar
    37     4     5   ar
    38    25    26    1
    39    35    36    1
    40     1     5   ar
    41     1     6    1
