@<TRIPOS>MOLECULE
mol_data/opt/b3lyp/geoms/mol2/5gd5gd5gd-5gd-.out
 38 41 0 0 0
SMALL
GASTEIGER

@<TRIPOS>ATOM
      1 C          -0.8089   -1.8089    1.7341 C.ar    1  LIG1       -0.0093
      2 C          -0.7196   -1.8844    0.3697 C.ar    1  LIG1        0.0298
      3 C          -0.5995   -0.5772   -0.2301 C.ar    1  LIG1        0.0802
      4 C          -0.5870    0.4558    0.6977 C.ar    1  LIG1        0.0454
      5 S          -0.7288   -0.1794    2.3104 S.2     1  LIG1       -0.0937
      6 H          -0.9157   -2.6248    2.4347 H       1  LIG1        0.0705
      7 S          -0.7590   -3.4240   -0.5135 S.3     1  LIG1       -0.1408
      8 H          -0.7116   -2.8829   -1.7474 H       1  LIG1        0.1072
      9 N          -0.5520   -0.2719   -2.7985 N.1     1  LIG1       -0.1908
     10 C          -0.5619   -0.3762   -1.6389 C.1     1  LIG1        0.1014
     11 C          -0.4772    1.8892    0.4503 C.ar    1  LIG1        0.0422
     12 C           0.5696    2.5839   -0.1202 C.ar    1  LIG1        0.0381
     13 C           0.2990    3.9976   -0.2100 C.ar    1  LIG1        0.0808
     14 C          -0.9322    4.3641    0.3168 C.ar    1  LIG1        0.0460
     15 S          -1.7805    2.9693    0.9094 S.2     1  LIG1       -0.0847
     16 S           2.0762    1.8062   -0.6295 S.3     1  LIG1       -0.1402
     17 H           2.6477    2.9286   -1.1101 H       1  LIG1        0.1072
     18 N           1.9660    5.6095   -1.3568 N.1     1  LIG1       -0.1908
     19 C           1.1980    4.9113   -0.8295 C.1     1  LIG1        0.1014
     20 C          -1.5213    5.6941    0.4008 C.ar    1  LIG1        0.0422
     21 C          -1.0392    6.8122    1.0526 C.ar    1  LIG1        0.0381
     22 C          -1.9357    7.9358    0.9348 C.ar    1  LIG1        0.0808
     23 C          -3.0795    7.6639    0.1961 C.ar    1  LIG1        0.0460
     24 S          -3.0627    6.0225   -0.3697 S.2     1  LIG1       -0.0847
     25 S           0.4605    6.8141    1.9920 S.3     1  LIG1       -0.1402
     26 H           0.3289    8.0767    2.4459 H       1  LIG1        0.1072
     27 N          -1.4697   10.1506    2.1875 N.1     1  LIG1       -0.1908
     28 C          -1.7025    9.1718    1.6016 C.1     1  LIG1        0.1014
     29 C          -4.1872    8.5547   -0.1203 C.ar    1  LIG1        0.0416
     30 C          -4.1617    9.7646   -0.7866 C.ar    1  LIG1        0.0375
     31 C          -5.4840   10.3337   -0.9129 C.ar    1  LIG1        0.0725
     32 C          -6.4666    9.5452   -0.3593 C.ar    1  LIG1       -0.0052
     33 S          -5.8293    8.1147    0.3348 S.2     1  LIG1       -0.0937
     34 H          -7.5265    9.7547   -0.3298 H       1  LIG1        0.0707
     35 S          -2.6900   10.4786   -1.4592 S.3     1  LIG1       -0.1403
     36 H          -3.3038   11.5440   -2.0121 H       1  LIG1        0.1072
     37 N          -5.9248   12.5882   -2.1053 N.1     1  LIG1       -0.1908
     38 C          -5.7468   11.5738   -1.5626 C.1     1  LIG1        0.1008
@<TRIPOS>BOND
     1     9    10    3
     2    37    38    3
     3    36    35    1
     4     8     7    1
     5    10     3    1
     6    38    31    1
     7    35    30    1
     8    18    19    3
     9    17    16    1
    10    31    30   ar
    11    31    32   ar
    12    19    13    1
    13    30    29   ar
    14    16    12    1
    15     7     2    1
    16    24    23   ar
    17    24    20   ar
    18    32    34    1
    19    32    33   ar
    20     3     2   ar
    21     3     4   ar
    22    13    12   ar
    23    13    14   ar
    24    29    23    1
    25    29    33   ar
    26    12    11   ar
    27    23    22   ar
    28    14    20    1
    29    14    15   ar
    30     2     1   ar
    31    20    21   ar
    32    11     4    1
    33    11    15   ar
    34     4     5   ar
    35    22    21   ar
    36    22    28    1
    37    21    25    1
    38    28    27    3
    39     1     5   ar
    40     1     6    1
    41    25    26    1
