@<TRIPOS>MOLECULE
mol_data/opt/b3lyp/geoms/mol2/5gd5gd-.out
 20 21 0 0 0
SMALL
GASTEIGER

@<TRIPOS>ATOM
      1 C          -1.9757   -1.7252    0.7838 C.ar    1  LIG1       -0.0093
      2 C          -0.7678   -1.8332    0.1488 C.ar    1  LIG1        0.0298
      3 C          -0.2524   -0.5425   -0.2426 C.ar    1  LIG1        0.0802
      4 C          -1.0773    0.5140    0.1202 C.ar    1  LIG1        0.0454
      5 S          -2.4911   -0.0805    0.9414 S.2     1  LIG1       -0.0937
      6 H          -2.5923   -2.5243    1.1700 H       1  LIG1        0.0705
      7 S           0.0324   -3.3917   -0.1388 S.3     1  LIG1       -0.1408
      8 H           1.0493   -2.8976   -0.8733 H       1  LIG1        0.1072
      9 N           1.9323   -0.3322   -1.6117 N.1     1  LIG1       -0.1908
     10 C           0.9506   -0.3903   -0.9883 C.1     1  LIG1        0.1014
     11 C          -0.8755    1.9399   -0.1068 C.ar    1  LIG1        0.0416
     12 C           0.1437    2.7495    0.3511 C.ar    1  LIG1        0.0375
     13 C          -0.0165    4.1170   -0.0871 C.ar    1  LIG1        0.0725
     14 C          -1.1471    4.3101   -0.8480 C.ar    1  LIG1       -0.0052
     15 S          -2.0306    2.8581   -1.0645 S.2     1  LIG1       -0.0937
     16 H          -1.4839    5.2394   -1.2851 H       1  LIG1        0.0707
     17 S           1.4471    2.1708    1.4003 S.3     1  LIG1       -0.1403
     18 H           2.0440    3.3714    1.5408 H       1  LIG1        0.1072
     19 N           1.6480    5.9931    0.5523 N.1     1  LIG1       -0.1908
     20 C           0.8895    5.1627    0.2514 C.1     1  LIG1        0.1008
@<TRIPOS>BOND
     1     9    10    3
     2    16    14    1
     3    15    14   ar
     4    15    11   ar
     5    10     3    1
     6     8     7    1
     7    14    13   ar
     8     3     4   ar
     9     3     2   ar
    10     7     2    1
    11    11     4    1
    12    11    12   ar
    13    13    20    1
    14    13    12   ar
    15     4     5   ar
    16     2     1   ar
    17    20    19    3
    18    12    17    1
    19     1     5   ar
    20     1     6    1
    21    17    18    1
