@<TRIPOS>MOLECULE
mol_data/opt/b3lyp/geoms/mol2/5gd5gd-5gd-5gd-.out
 38 41 0 0 0
SMALL
GASTEIGER

@<TRIPOS>ATOM
      1 C          -1.9478   -1.9679   -0.1901 C.ar    1  LIG1       -0.0093
      2 C          -0.7059   -1.9180    0.3837 C.ar    1  LIG1        0.0298
      3 C          -0.1841   -0.5721    0.4132 C.ar    1  LIG1        0.0802
      4 C          -1.0396    0.3631   -0.1550 C.ar    1  LIG1        0.0454
      5 S          -2.4899   -0.4133   -0.7232 S.2     1  LIG1       -0.0937
      6 H          -2.5758   -2.8362   -0.3306 H       1  LIG1        0.0705
      7 S           0.1270   -3.3593    1.0004 S.3     1  LIG1       -0.1408
      8 H           1.1586   -2.6992    1.5641 H       1  LIG1        0.1072
      9 N           2.0639   -0.0356    1.5749 N.1     1  LIG1       -0.1908
     10 C           1.0532   -0.2434    1.0355 C.1     1  LIG1        0.1014
     11 C          -0.8463    1.8000   -0.2982 C.ar    1  LIG1        0.0422
     12 C           0.1509    2.4750   -0.9739 C.ar    1  LIG1        0.0381
     13 C          -0.0214    3.9055   -0.9089 C.ar    1  LIG1        0.0808
     14 C          -1.1383    4.3018   -0.1849 C.ar    1  LIG1        0.0460
     15 S          -1.9864    2.9165    0.4307 S.2     1  LIG1       -0.0847
     16 S           1.4284    1.6526   -1.8818 S.3     1  LIG1       -0.1402
     17 H           1.9930    2.7785   -2.3626 H       1  LIG1        0.1072
     18 N           1.5391    5.4968   -2.2221 N.1     1  LIG1       -0.1908
     19 C           0.8262    4.8086   -1.6108 C.1     1  LIG1        0.1014
     20 C          -1.6175    5.6504    0.0799 C.ar    1  LIG1        0.0422
     21 C          -0.9610    6.6991    0.6960 C.ar    1  LIG1        0.0381
     22 C          -1.7983    7.8681    0.8094 C.ar    1  LIG1        0.0808
     23 C          -3.0713    7.6997    0.2818 C.ar    1  LIG1        0.0460
     24 S          -3.2522    6.1015   -0.3721 S.2     1  LIG1       -0.0847
     25 S           0.6801    6.5709    1.3438 S.3     1  LIG1       -0.1402
     26 H           0.6882    7.7902    1.9191 H       1  LIG1        0.1072
     27 N          -0.9899    9.9746    2.0751 N.1     1  LIG1       -0.1908
     28 C          -1.3780    9.0463    1.4895 C.1     1  LIG1        0.1014
     29 C          -4.1649    8.6601    0.2290 C.ar    1  LIG1        0.0416
     30 C          -4.1939    9.9057   -0.3672 C.ar    1  LIG1        0.0375
     31 C          -5.4792   10.5462   -0.2067 C.ar    1  LIG1        0.0725
     32 C          -6.3842    9.7747    0.4860 C.ar    1  LIG1       -0.0052
     33 S          -5.7138    8.2742    0.9698 S.2     1  LIG1       -0.0937
     34 H          -7.4045   10.0341    0.7307 H       1  LIG1        0.0707
     35 S          -2.8368   10.5832   -1.2770 S.3     1  LIG1       -0.1403
     36 H          -3.4668   11.7248   -1.6197 H       1  LIG1        0.1072
     37 N          -6.0013   12.8886   -1.1758 N.1     1  LIG1       -0.1908
     38 C          -5.7853   11.8353   -0.7297 C.1     1  LIG1        0.1008
@<TRIPOS>BOND
     1    17    16    1
     2    18    19    3
     3    16    12    1
     4    36    35    1
     5    19    13    1
     6    35    30    1
     7    37    38    3
     8    12    13   ar
     9    12    11   ar
    10    13    14   ar
    11    38    31    1
    12     5     1   ar
    13     5     4   ar
    14    24    20   ar
    15    24    23   ar
    16    30    31   ar
    17    30    29   ar
    18     6     1    1
    19    11     4    1
    20    11    15   ar
    21    31    32   ar
    22     1     2   ar
    23    14    20    1
    24    14    15   ar
    25     4     3   ar
    26    20    21   ar
    27    29    23    1
    28    29    33   ar
    29    23    22   ar
    30     2     3   ar
    31     2     7    1
    32     3    10    1
    33    32    34    1
    34    32    33   ar
    35    21    22   ar
    36    21    25    1
    37    22    28    1
    38     7     8    1
    39    10     9    3
    40    25    26    1
    41    28    27    3
