@<TRIPOS>MOLECULE
mol_data/opt/b3lyp/geoms/mol2/5gd5gd5gd-5gd.out
 38 41 0 0 0
SMALL
GASTEIGER

@<TRIPOS>ATOM
      1 C          -0.9657   -1.5638    2.2384 C.ar    1  LIG1       -0.0093
      2 C          -0.9088   -1.7945    0.8898 C.ar    1  LIG1        0.0298
      3 C          -0.7396   -0.5693    0.1461 C.ar    1  LIG1        0.0802
      4 C          -0.6588    0.5582    0.9525 C.ar    1  LIG1        0.0454
      5 S          -0.7990    0.1138    2.6276 S.2     1  LIG1       -0.0937
      6 H          -1.0942   -2.2909    3.0276 H       1  LIG1        0.0705
      7 S          -1.0482   -3.4176    0.1839 S.3     1  LIG1       -0.1408
      8 H          -0.9402   -3.0248   -1.1012 H       1  LIG1        0.1072
      9 N          -0.7251   -0.5512   -2.4409 N.1     1  LIG1       -0.1908
     10 C          -0.7194   -0.5272   -1.2768 C.1     1  LIG1        0.1014
     11 C          -0.4849    1.9478    0.5436 C.ar    1  LIG1        0.0422
     12 C           0.5857    2.5206   -0.1128 C.ar    1  LIG1        0.0381
     13 C           0.3815    3.9262   -0.3592 C.ar    1  LIG1        0.0808
     14 C          -0.8228    4.4093    0.1331 C.ar    1  LIG1        0.0460
     15 S          -1.7286    3.1351    0.8866 S.2     1  LIG1       -0.0847
     16 S           2.0429    1.6152   -0.5501 S.3     1  LIG1       -0.1402
     17 H           2.6821    2.6594   -1.1143 H       1  LIG1        0.1072
     18 N           2.1070    5.3303   -1.6802 N.1     1  LIG1       -0.1908
     19 C           1.3156    4.7254   -1.0777 C.1     1  LIG1        0.1014
     20 C          -1.3422    5.7708    0.0640 C.ar    1  LIG1        0.0422
     21 C          -0.8171    6.9183    0.6229 C.ar    1  LIG1        0.0381
     22 C          -1.6125    8.0819    0.3181 C.ar    1  LIG1        0.0808
     23 C          -2.7407    7.8034   -0.4408 C.ar    1  LIG1        0.0460
     24 S          -2.8287    6.1080   -0.8033 S.2     1  LIG1       -0.0847
     25 S           0.6371    6.9219    1.6319 S.3     1  LIG1       -0.1402
     26 H           0.6529    8.2543    1.8360 H       1  LIG1        0.1072
     27 N          -0.8753   10.4441    1.0724 N.1     1  LIG1       -0.1908
     28 C          -1.2372    9.3941    0.7233 C.1     1  LIG1        0.1014
     29 C          -3.7598    8.7303   -0.9183 C.ar    1  LIG1        0.0416
     30 C          -4.6089    9.5299   -0.1802 C.ar    1  LIG1        0.0375
     31 C          -5.4864   10.3052   -1.0265 C.ar    1  LIG1        0.0725
     32 C          -5.2894   10.0673   -2.3678 C.ar    1  LIG1       -0.0052
     33 S          -4.0460    8.9217   -2.6430 S.2     1  LIG1       -0.0937
     34 H          -5.8201   10.5225   -3.1921 H       1  LIG1        0.0707
     35 S          -4.6462    9.5377    1.5890 S.3     1  LIG1       -0.1403
     36 H          -5.6522   10.4289    1.6953 H       1  LIG1        0.1072
     37 N          -7.2610   11.9304   -0.0738 N.1     1  LIG1       -0.1908
     38 C          -6.4673   11.2072   -0.5232 C.1     1  LIG1        0.1008
@<TRIPOS>BOND
     1    34    32    1
     2    33    32   ar
     3    33    29   ar
     4     9    10    3
     5    32    31   ar
     6    18    19    3
     7    10     3    1
     8    17    16    1
     9     8     7    1
    10    19    13    1
    11    31    38    1
    12    31    30   ar
    13    29    23    1
    14    29    30   ar
    15    24    23   ar
    16    24    20   ar
    17    16    12    1
    18    38    37    3
    19    23    22   ar
    20    13    12   ar
    21    13    14   ar
    22    30    35    1
    23    12    11   ar
    24    20    14    1
    25    20    21   ar
    26    14    15   ar
    27     3     2   ar
    28     3     4   ar
    29     7     2    1
    30    22    21   ar
    31    22    28    1
    32    11    15   ar
    33    11     4    1
    34    21    25    1
    35    28    27    3
    36     2     1   ar
    37     4     5   ar
    38    35    36    1
    39    25    26    1
    40     1     5   ar
    41     1     6    1
