@<TRIPOS>MOLECULE
mol_data/opt/b3lyp/geoms/mol2/5gd5gd.out
 20 21 0 0 0
SMALL
GASTEIGER

@<TRIPOS>ATOM
      1 C          -1.9810   -1.7206    0.7961 C.ar    1  LIG1       -0.0093
      2 C          -0.7692   -1.8321    0.1694 C.ar    1  LIG1        0.0298
      3 C          -0.2513   -0.5437   -0.2260 C.ar    1  LIG1        0.0802
      4 C          -1.0785    0.5148    0.1253 C.ar    1  LIG1        0.0454
      5 S          -2.4976   -0.0750    0.9407 S.2     1  LIG1       -0.0937
      6 H          -2.6001   -2.5175    1.1829 H       1  LIG1        0.0705
      7 S           0.0329   -3.3925   -0.1041 S.3     1  LIG1       -0.1408
      8 H           1.0548   -2.9025   -0.8345 H       1  LIG1        0.1072
      9 N           1.9424   -0.3411   -1.5819 N.1     1  LIG1       -0.1908
     10 C           0.9566   -0.3958   -0.9647 C.1     1  LIG1        0.1014
     11 C          -0.8751    1.9395   -0.1085 C.ar    1  LIG1        0.0416
     12 C           0.1413    2.7514    0.3515 C.ar    1  LIG1        0.0375
     13 C          -0.0156    4.1165   -0.0956 C.ar    1  LIG1        0.0725
     14 C          -1.1410    4.3054   -0.8652 C.ar    1  LIG1       -0.0052
     15 S          -2.0234    2.8524   -1.0792 S.2     1  LIG1       -0.0937
     16 H          -1.4746    5.2322   -1.3098 H       1  LIG1        0.0707
     17 S           1.4374    2.1782    1.4125 S.3     1  LIG1       -0.1403
     18 H           2.0337    3.3795    1.5505 H       1  LIG1        0.1072
     19 N           1.6453    5.9955    0.5444 N.1     1  LIG1       -0.1908
     20 C           0.8886    5.1637    0.2430 C.1     1  LIG1        0.1008
@<TRIPOS>BOND
     1     9    10    3
     2    16    14    1
     3    15    14   ar
     4    15    11   ar
     5    10     3    1
     6    14    13   ar
     7     8     7    1
     8     3     4   ar
     9     3     2   ar
    10    11     4    1
    11    11    12   ar
    12     7     2    1
    13    13    20    1
    14    13    12   ar
    15     4     5   ar
    16     2     1   ar
    17    20    19    3
    18    12    17    1
    19     1     5   ar
    20     1     6    1
    21    17    18    1
