@<TRIPOS>MOLECULE
mol_data/opt/b3lyp/geoms/mol2/5gd5gd5gd5gd.out
 38 41 0 0 0
SMALL
GASTEIGER

@<TRIPOS>ATOM
      1 C          -1.9016   -1.9611    0.3607 C.ar    1  LIG1       -0.0093
      2 C          -0.6757   -1.9204   -0.2472 C.ar    1  LIG1        0.0298
      3 C          -0.1624   -0.5732   -0.3261 C.ar    1  LIG1        0.0802
      4 C          -1.0078    0.3725    0.2398 C.ar    1  LIG1        0.0454
      5 S          -2.4381   -0.3956    0.8670 S.2     1  LIG1       -0.0937
      6 H          -2.5208   -2.8284    0.5407 H       1  LIG1        0.0705
      7 S           0.1488   -3.3733   -0.8470 S.3     1  LIG1       -0.1408
      8 H           1.1593   -2.7233   -1.4587 H       1  LIG1        0.1072
      9 N           2.0504   -0.0566   -1.5621 N.1     1  LIG1       -0.1908
     10 C           1.0558   -0.2550   -0.9902 C.1     1  LIG1        0.1014
     11 C          -0.8190    1.8137    0.3396 C.ar    1  LIG1        0.0422
     12 C           0.1928    2.5115    0.9689 C.ar    1  LIG1        0.0381
     13 C           0.0102    3.9388    0.8714 C.ar    1  LIG1        0.0808
     14 C          -1.1290    4.3101    0.1693 C.ar    1  LIG1        0.0460
     15 S          -1.9858    2.9047   -0.3857 S.2     1  LIG1       -0.0847
     16 S           1.5006    1.7200    1.8616 S.3     1  LIG1       -0.1402
     17 H           2.0702    2.8612    2.2985 H       1  LIG1        0.1072
     18 N           1.5974    5.5723    2.0981 N.1     1  LIG1       -0.1908
     19 C           0.8718    4.8645    1.5254 C.1     1  LIG1        0.1014
     20 C          -1.6237    5.6487   -0.1170 C.ar    1  LIG1        0.0422
     21 C          -0.9911    6.6847   -0.7780 C.ar    1  LIG1        0.0381
     22 C          -1.8386    7.8456   -0.8983 C.ar    1  LIG1        0.0808
     23 C          -3.0954    7.6839   -0.3312 C.ar    1  LIG1        0.0460
     24 S          -3.2481    6.1023    0.3686 S.2     1  LIG1       -0.0847
     25 S           0.6322    6.5490   -1.4677 S.3     1  LIG1       -0.1402
     26 H           0.6161    7.7526   -2.0751 H       1  LIG1        0.1072
     27 N          -1.0794    9.9231   -2.2401 N.1     1  LIG1       -0.1908
     28 C          -1.4449    9.0081   -1.6201 C.1     1  LIG1        0.1014
     29 C          -4.1931    8.6394   -0.2732 C.ar    1  LIG1        0.0416
     30 C          -4.2131    9.8997    0.2916 C.ar    1  LIG1        0.0375
     31 C          -5.5060   10.5293    0.1497 C.ar    1  LIG1        0.0725
     32 C          -6.4249    9.7357   -0.4982 C.ar    1  LIG1       -0.0052
     33 S          -5.7592    8.2266   -0.9614 S.2     1  LIG1       -0.0937
     34 H          -7.4529    9.9835   -0.7217 H       1  LIG1        0.0707
     35 S          -2.8360   10.6070    1.1470 S.3     1  LIG1       -0.1403
     36 H          -3.4617   11.7556    1.4738 H       1  LIG1        0.1072
     37 N          -6.0151   12.8934    1.0721 N.1     1  LIG1       -0.1908
     38 C          -5.8053   11.8299    0.6476 C.1     1  LIG1        0.1008
@<TRIPOS>BOND
     1    27    28    3
     2    26    25    1
     3    28    22    1
     4     9    10    3
     5    25    21    1
     6     8     7    1
     7    10     3    1
     8    33    32   ar
     9    33    29   ar
    10    22    21   ar
    11    22    23   ar
    12     7     2    1
    13    21    20   ar
    14    34    32    1
    15    32    31   ar
    16    15    14   ar
    17    15    11   ar
    18    23    29    1
    19    23    24   ar
    20     3     2   ar
    21     3     4   ar
    22    29    30   ar
    23     2     1   ar
    24    20    14    1
    25    20    24   ar
    26    31    30   ar
    27    31    38    1
    28    14    13   ar
    29     4    11    1
    30     4     5   ar
    31    30    35    1
    32    11    12   ar
    33     1     6    1
    34     1     5   ar
    35    38    37    3
    36    13    12   ar
    37    13    19    1
    38    12    16    1
    39    35    36    1
    40    19    18    3
    41    16    17    1
