@<TRIPOS>MOLECULE
mol_data/opt/b3lyp/geoms/mol2/5gd5gd-5gd-5gd.out
 38 41 0 0 0
SMALL
GASTEIGER

@<TRIPOS>ATOM
      1 C          -2.1092   -1.8767    0.4756 C.ar    1  LIG1       -0.0093
      2 C          -0.8398   -1.7986    0.9822 C.ar    1  LIG1        0.0298
      3 C          -0.2750   -0.4813    0.8088 C.ar    1  LIG1        0.0802
      4 C          -1.1275    0.4024    0.1595 C.ar    1  LIG1        0.0454
      5 S          -2.6281   -0.3860   -0.2337 S.2     1  LIG1       -0.0937
      6 H          -2.7700   -2.7318    0.4789 H       1  LIG1        0.0705
      7 S          -0.0259   -3.1748    1.7540 S.3     1  LIG1       -0.1408
      8 H           1.0733   -2.4947    2.1374 H       1  LIG1        0.1072
      9 N           2.0458    0.1170    1.7819 N.1     1  LIG1       -0.1908
     10 C           1.0022   -0.1209    1.3237 C.1     1  LIG1        0.1014
     11 C          -0.8957    1.7998   -0.1829 C.ar    1  LIG1        0.0422
     12 C           0.0887    2.3404   -0.9867 C.ar    1  LIG1        0.0381
     13 C          -0.0319    3.7725   -1.1021 C.ar    1  LIG1        0.0808
     14 C          -1.0977    4.3030   -0.3880 C.ar    1  LIG1        0.0460
     15 S          -1.9604    3.0459    0.4414 S.2     1  LIG1       -0.0847
     16 S           1.2929    1.3573   -1.8333 S.3     1  LIG1       -0.1402
     17 H           1.8703    2.3883   -2.4824 H       1  LIG1        0.1072
     18 N           1.5173    5.1310   -2.6665 N.1     1  LIG1       -0.1908
     19 C           0.8129    4.5484   -1.9456 C.1     1  LIG1        0.1014
     20 C          -1.5119    5.6969   -0.2877 C.ar    1  LIG1        0.0422
     21 C          -0.7982    6.7730    0.2020 C.ar    1  LIG1        0.0381
     22 C          -1.5502    8.0009    0.1230 C.ar    1  LIG1        0.0808
     23 C          -2.8283    7.8419   -0.3938 C.ar    1  LIG1        0.0460
     24 S          -3.1163    6.1806   -0.8074 S.2     1  LIG1       -0.0847
     25 S           0.8248    6.6237    0.8907 S.3     1  LIG1       -0.1402
     26 H           0.9779    7.9376    1.1511 H       1  LIG1        0.1072
     27 N          -0.5042   10.2638    0.8147 N.1     1  LIG1       -0.1908
     28 C          -1.0044    9.2604    0.5014 C.1     1  LIG1        0.1014
     29 C          -3.8499    8.8607   -0.6044 C.ar    1  LIG1        0.0416
     30 C          -4.4697    9.6627    0.3324 C.ar    1  LIG1        0.0375
     31 C          -5.4349   10.5497   -0.2752 C.ar    1  LIG1        0.0725
     32 C          -5.5282   10.3909   -1.6392 C.ar    1  LIG1       -0.0052
     33 S          -4.4588    9.1862   -2.2220 S.2     1  LIG1       -0.0937
     34 H          -6.1750   10.9351   -2.3128 H       1  LIG1        0.0707
     35 S          -4.1554    9.5494    2.0701 S.3     1  LIG1       -0.1403
     36 H          -5.0164   10.5248    2.4232 H       1  LIG1        0.1072
     37 N          -6.8496   12.2224    1.1029 N.1     1  LIG1       -0.1908
     38 C          -6.2214   11.4791    0.4641 C.1     1  LIG1        0.1008
@<TRIPOS>BOND
     1    18    19    3
     2    17    16    1
     3    34    32    1
     4    33    32   ar
     5    33    29   ar
     6    19    13    1
     7    16    12    1
     8    32    31   ar
     9    13    12   ar
    10    13    14   ar
    11    12    11   ar
    12    24    23   ar
    13    24    20   ar
    14    29    23    1
    15    29    30   ar
    16    23    22   ar
    17    14    20    1
    18    14    15   ar
    19    20    21   ar
    20    31    30   ar
    21    31    38    1
    22     5     4   ar
    23     5     1   ar
    24    11     4    1
    25    11    15   ar
    26    22    21   ar
    27    22    28    1
    28     4     3   ar
    29    21    25    1
    30    30    35    1
    31    38    37    3
    32     1     6    1
    33     1     2   ar
    34    28    27    3
    35     3     2   ar
    36     3    10    1
    37    25    26    1
    38     2     7    1
    39    10     9    3
    40     7     8    1
    41    35    36    1
