@<TRIPOS>MOLECULE
mol_data/opt/b3lyp/geoms/mol2/5ge.out
 12 12 0 0 0
SMALL
GASTEIGER

@<TRIPOS>ATOM
      1 C          -2.1472   -1.6833    0.0002 C.ar    1  LIG1       -0.0099
      2 C          -0.7801   -1.6759   -0.0003 C.ar    1  LIG1        0.0272
      3 C          -0.2371   -0.3304   -0.0003 C.ar    1  LIG1        0.0448
      4 C          -1.2310    0.6235    0.0003 C.ar    1  LIG1       -0.0078
      5 S          -2.8048   -0.0759    0.0008 S.2     1  LIG1       -0.1027
      6 H          -2.8075   -2.5384    0.0003 H       1  LIG1        0.0705
      7 H          -1.1007    1.6957    0.0005 H       1  LIG1        0.0706
      8 S           0.1999   -3.1579   -0.0009 S.3     1  LIG1       -0.1409
      9 H           1.3882   -2.5191   -0.0014 H       1  LIG1        0.1072
     10 C           1.1527   -0.0342   -0.0007 C.1     1  LIG1       -0.0680
     11 C           2.3440    0.1840   -0.0011 C.1     1  LIG1       -0.1139
     12 H           3.3878    0.3983   -0.0015 H       1  LIG1        0.1232
@<TRIPOS>BOND
     1    12    11    1
     2     9     8    1
     3    11    10    3
     4     8     2    1
     5    10     3    1
     6     2     3   ar
     7     2     1   ar
     8     3     4   ar
     9     1     6    1
    10     1     5   ar
    11     4     7    1
    12     4     5   ar
