@<TRIPOS>MOLECULE
mol_data/opt/b3lyp/geoms/mol2/5ge5ge-5ge-.out
 32 34 0 0 0
SMALL
GASTEIGER

@<TRIPOS>ATOM
      1 C          -1.9823   -1.8323   -0.5599 C.ar    1  LIG1       -0.0093
      2 C          -0.8569   -1.8459    0.2156 C.ar    1  LIG1        0.0278
      3 C          -0.2754   -0.5291    0.3724 C.ar    1  LIG1        0.0531
      4 C          -0.9814    0.4500   -0.3170 C.ar    1  LIG1        0.0434
      5 S          -2.3563   -0.2442   -1.1408 S.2     1  LIG1       -0.0937
      6 H          -2.6139   -2.6681   -0.8251 H       1  LIG1        0.0705
      7 S          -0.2092   -3.3273    0.9517 S.3     1  LIG1       -0.1409
      8 H           0.7959   -2.7089    1.6058 H       1  LIG1        0.1072
      9 C           0.8511   -0.2724    1.1956 C.1     1  LIG1       -0.0674
     10 C           1.8087   -0.0964    1.9161 C.1     1  LIG1       -0.1138
     11 H           2.6536    0.0942    2.5368 H       1  LIG1        0.1232
     12 C          -0.7153    1.8771   -0.4089 C.ar    1  LIG1        0.0421
     13 C           0.4283    2.5393   -0.8075 C.ar    1  LIG1        0.0361
     14 C           0.2694    3.9772   -0.8279 C.ar    1  LIG1        0.0537
     15 C          -0.9983    4.3882   -0.4355 C.ar    1  LIG1        0.0440
     16 S          -1.9927    3.0185   -0.0222 S.2     1  LIG1       -0.0848
     17 S           1.9166    1.7150   -1.3068 S.3     1  LIG1       -0.1403
     18 H           2.3937    2.7676   -2.0045 H       1  LIG1        0.1072
     19 C           1.2753    4.8607   -1.2990 C.1     1  LIG1       -0.0674
     20 C           2.1474    5.5860   -1.7230 C.1     1  LIG1       -0.1138
     21 H           2.9017    6.2496   -2.0783 H       1  LIG1        0.1232
     22 C          -1.5354    5.7363   -0.3392 C.ar    1  LIG1        0.0415
     23 C          -1.0521    6.8373    0.3400 C.ar    1  LIG1        0.0355
     24 C          -1.9218    7.9908    0.2242 C.ar    1  LIG1        0.0454
     25 C          -3.0431    7.7248   -0.5288 C.ar    1  LIG1       -0.0072
     26 S          -3.0648    6.1147   -1.1278 S.2     1  LIG1       -0.0937
     27 H          -3.8447    8.4121   -0.7583 H       1  LIG1        0.0706
     28 S           0.4466    6.8388    1.2865 S.3     1  LIG1       -0.1403
     29 H           0.1052    7.9143    2.0269 H       1  LIG1        0.1072
     30 C          -1.6677    9.2450    0.8431 C.1     1  LIG1       -0.0680
     31 C          -1.4381   10.3029    1.3855 C.1     1  LIG1       -0.1139
     32 H          -1.2450   11.2422    1.8503 H       1  LIG1        0.1232
@<TRIPOS>BOND
     1    21    20    1
     2    18    17    1
     3    20    19    3
     4    17    13    1
     5    19    14    1
     6     5     1   ar
     7     5     4   ar
     8    26    25   ar
     9    26    22   ar
    10    14    13   ar
    11    14    15   ar
    12     6     1    1
    13    13    12   ar
    14    27    25    1
    15     1     2   ar
    16    25    24   ar
    17    15    22    1
    18    15    16   ar
    19    12     4    1
    20    12    16   ar
    21    22    23   ar
    22     4     3   ar
    23     2     3   ar
    24     2     7    1
    25    24    23   ar
    26    24    30    1
    27    23    28    1
    28     3     9    1
    29    30    31    3
    30     7     8    1
    31     9    10    3
    32    28    29    1
    33    31    32    1
    34    10    11    1
