@<TRIPOS>MOLECULE
mol_data/opt/b3lyp/geoms/mol2/5ge5ge-5ge-5ge-.out
 42 45 0 0 0
SMALL
GASTEIGER

@<TRIPOS>ATOM
      1 C          -2.1211   -1.8328   -0.1178 C.ar    1  LIG1       -0.0093
      2 C          -0.8418   -1.8819    0.3607 C.ar    1  LIG1        0.0278
      3 C          -0.2077   -0.5804    0.3837 C.ar    1  LIG1        0.0531
      4 C          -1.0358    0.4238   -0.1047 C.ar    1  LIG1        0.0434
      5 S          -2.5866   -0.2286   -0.5752 S.2     1  LIG1       -0.0937
      6 H          -2.8180   -2.6510   -0.2303 H       1  LIG1        0.0705
      7 S          -0.0726   -3.3872    0.9072 S.3     1  LIG1       -0.1409
      8 H           1.0887   -2.8054    1.2723 H       1  LIG1        0.1072
      9 C           1.0904   -0.3605    0.9119 C.1     1  LIG1       -0.0674
     10 C           2.1980   -0.2161    1.3803 C.1     1  LIG1       -0.1138
     11 H           3.1723   -0.0529    1.7799 H       1  LIG1        0.1232
     12 C          -0.7668    1.8464   -0.2427 C.ar    1  LIG1        0.0421
     13 C           0.2638    2.4929   -0.8950 C.ar    1  LIG1        0.0361
     14 C           0.1376    3.9337   -0.8608 C.ar    1  LIG1        0.0537
     15 C          -0.9901    4.3627   -0.1713 C.ar    1  LIG1        0.0440
     16 S          -1.8899    3.0054    0.4499 S.2     1  LIG1       -0.0848
     17 S           1.5709    1.6489   -1.7450 S.3     1  LIG1       -0.1403
     18 H           1.8969    2.7071   -2.5171 H       1  LIG1        0.1072
     19 C           1.0195    4.8044   -1.5521 C.1     1  LIG1       -0.0674
     20 C           1.7791    5.5192   -2.1673 C.1     1  LIG1       -0.1138
     21 H           2.4381    6.1751   -2.6880 H       1  LIG1        0.1232
     22 C          -1.4593    5.7178    0.0655 C.ar    1  LIG1        0.0421
     23 C          -0.8010    6.8024    0.6113 C.ar    1  LIG1        0.0361
     24 C          -1.6498    7.9662    0.7471 C.ar    1  LIG1        0.0537
     25 C          -2.9450    7.7494    0.2937 C.ar    1  LIG1        0.0440
     26 S          -3.1247    6.1272   -0.3157 S.2     1  LIG1       -0.0848
     27 S           0.8853    6.7599    1.1553 S.3     1  LIG1       -0.1403
     28 H           0.7583    7.8233    1.9771 H       1  LIG1        0.1072
     29 C          -1.2236    9.1663    1.3735 C.1     1  LIG1       -0.0674
     30 C          -0.8347   10.1701    1.9282 C.1     1  LIG1       -0.1138
     31 H          -0.5161   11.0709    2.4001 H       1  LIG1        0.1232
     32 C          -4.0732    8.6664    0.2700 C.ar    1  LIG1        0.0415
     33 C          -4.1748    9.9335   -0.2704 C.ar    1  LIG1        0.0355
     34 C          -5.5039   10.4943   -0.1318 C.ar    1  LIG1        0.0454
     35 C          -6.3710    9.6304    0.4982 C.ar    1  LIG1       -0.0072
     36 S          -5.6145    8.1574    0.9551 S.2     1  LIG1       -0.0937
     37 H          -7.4142    9.8082    0.7168 H       1  LIG1        0.0706
     38 S          -2.8438   10.7742   -1.0844 S.3     1  LIG1       -0.1403
     39 H          -3.6489   11.6213   -1.7598 H       1  LIG1        0.1072
     40 C          -5.8828   11.7746   -0.6192 C.1     1  LIG1       -0.0680
     41 C          -6.1888   12.8643   -1.0492 C.1     1  LIG1       -0.1139
     42 H          -6.4703   13.8247   -1.4152 H       1  LIG1        0.1232
@<TRIPOS>BOND
     1    21    20    1
     2    18    17    1
     3    20    19    3
     4    39    38    1
     5    17    13    1
     6    19    14    1
     7    42    41    1
     8    38    33    1
     9    41    40    3
    10    13    14   ar
    11    13    12   ar
    12    14    15   ar
    13    40    34    1
    14     5     1   ar
    15     5     4   ar
    16    26    22   ar
    17    26    25   ar
    18    33    34   ar
    19    33    32   ar
    20    12     4    1
    21    12    16   ar
    22     6     1    1
    23    15    22    1
    24    15    16   ar
    25    34    35   ar
    26     1     2   ar
    27     4     3   ar
    28    22    23   ar
    29    32    25    1
    30    32    36   ar
    31    25    24   ar
    32     2     3   ar
    33     2     7    1
    34     3     9    1
    35    35    37    1
    36    35    36   ar
    37    23    24   ar
    38    23    27    1
    39    24    29    1
    40     7     8    1
    41     9    10    3
    42    27    28    1
    43    29    30    3
    44    10    11    1
    45    30    31    1
