@<TRIPOS>MOLECULE
mol_data/opt/b3lyp/geoms/mol2/5ge5ge-5ge-5ge.out
 42 45 0 0 0
SMALL
GASTEIGER

@<TRIPOS>ATOM
      1 C          -1.3422   -1.3562    2.4023 C.ar    1  LIG1       -0.0093
      2 C          -0.9076   -1.6836    1.1482 C.ar    1  LIG1        0.0278
      3 C          -0.5386   -0.5207    0.3686 C.ar    1  LIG1        0.0531
      4 C          -0.6921    0.6654    1.0768 C.ar    1  LIG1        0.0434
      5 S          -1.2958    0.3514    2.6847 S.2     1  LIG1       -0.0937
      6 H          -1.6856   -2.0241    3.1793 H       1  LIG1        0.0705
      7 S          -0.8306   -3.3582    0.5594 S.3     1  LIG1       -0.1409
      8 H          -0.4057   -3.0330   -0.6791 H       1  LIG1        0.1072
      9 C          -0.1291   -0.5948   -0.9878 C.1     1  LIG1       -0.0674
     10 C           0.2074   -0.7030   -2.1463 C.1     1  LIG1       -0.1138
     11 H           0.5140   -0.7628   -3.1651 H       1  LIG1        0.1232
     12 C          -0.4273    2.0295    0.6438 C.ar    1  LIG1        0.0421
     13 C           0.7309    2.5855    0.1401 C.ar    1  LIG1        0.0361
     14 C           0.6023    3.9981   -0.1425 C.ar    1  LIG1        0.0537
     15 C          -0.6495    4.5036    0.1845 C.ar    1  LIG1        0.0440
     16 S          -1.6866    3.2438    0.7957 S.2     1  LIG1       -0.0848
     17 S           2.2266    1.6701   -0.1217 S.3     1  LIG1       -0.1403
     18 H           3.0236    2.7590   -0.1216 H       1  LIG1        0.1072
     19 C           1.6415    4.7715   -0.7221 C.1     1  LIG1       -0.0674
     20 C           2.5466    5.4046   -1.2183 C.1     1  LIG1       -0.1138
     21 H           3.3257    5.9853   -1.6556 H       1  LIG1        0.1232
     22 C          -1.1468    5.8654    0.0584 C.ar    1  LIG1        0.0421
     23 C          -0.6378    7.0422    0.5693 C.ar    1  LIG1        0.0361
     24 C          -1.4551    8.1937    0.2552 C.ar    1  LIG1        0.0537
     25 C          -2.5959    7.8672   -0.4664 C.ar    1  LIG1        0.0440
     26 S          -2.6519    6.1579   -0.7987 S.2     1  LIG1       -0.0848
     27 S           0.8533    7.1385    1.5237 S.3     1  LIG1       -0.1403
     28 H           0.5274    8.3044    2.1197 H       1  LIG1        0.1072
     29 C          -1.1050    9.5184    0.6252 C.1     1  LIG1       -0.0674
     30 C          -0.7799   10.6372    0.9545 C.1     1  LIG1       -0.1138
     31 H          -0.5165   11.6322    1.2304 H       1  LIG1        0.1232
     32 C          -3.6542    8.7423   -0.9488 C.ar    1  LIG1        0.0415
     33 C          -4.4614    9.6192   -0.2524 C.ar    1  LIG1        0.0355
     34 C          -5.4405   10.2702   -1.0995 C.ar    1  LIG1        0.0454
     35 C          -5.3518    9.8576   -2.4098 C.ar    1  LIG1       -0.0072
     36 S          -4.0920    8.7150   -2.6544 S.2     1  LIG1       -0.0937
     37 H          -5.9686   10.1867   -3.2338 H       1  LIG1        0.0706
     38 S          -4.3448    9.8970    1.4947 S.3     1  LIG1       -0.1403
     39 H          -5.6022   10.3728    1.6138 H       1  LIG1        0.1072
     40 C          -6.4054   11.2024   -0.6298 C.1     1  LIG1       -0.0680
     41 C          -7.2254   11.9874   -0.2088 C.1     1  LIG1       -0.1139
     42 H          -7.9474   12.6861    0.1462 H       1  LIG1        0.1232
@<TRIPOS>BOND
     1    37    35    1
     2    11    10    1
     3    36    35   ar
     4    36    32   ar
     5    35    34   ar
     6    10     9    3
     7    21    20    1
     8    20    19    3
     9    34    40    1
    10    34    33   ar
    11     9     3    1
    12    32    25    1
    13    32    33   ar
    14    26    25   ar
    15    26    22   ar
    16    19    14    1
    17     8     7    1
    18    40    41    3
    19    25    24   ar
    20    33    38    1
    21    41    42    1
    22    14    13   ar
    23    14    15   ar
    24    17    18    1
    25    17    13    1
    26    22    15    1
    27    22    23   ar
    28    13    12   ar
    29    15    16   ar
    30    24    23   ar
    31    24    29    1
    32     3     4   ar
    33     3     2   ar
    34     7     2    1
    35    23    27    1
    36    29    30    3
    37    12    16   ar
    38    12     4    1
    39    30    31    1
    40     4     5   ar
    41     2     1   ar
    42    38    39    1
    43    27    28    1
    44     1     5   ar
    45     1     6    1
