@<TRIPOS>MOLECULE
mol_data/opt/b3lyp/geoms/mol2/5ge5ge5ge-.out
 32 34 0 0 0
SMALL
GASTEIGER

@<TRIPOS>ATOM
      1 C          -1.9149   -1.5599    1.5097 C.ar    1  LIG1       -0.0093
      2 C          -0.9217   -1.8157    0.6060 C.ar    1  LIG1        0.0278
      3 C          -0.3394   -0.6054    0.0652 C.ar    1  LIG1        0.0531
      4 C          -0.9087    0.5443    0.6002 C.ar    1  LIG1        0.0434
      5 S          -2.1577    0.1375    1.7505 S.2     1  LIG1       -0.0937
      6 H          -2.5176   -2.2750    2.0512 H       1  LIG1        0.0705
      7 S          -0.4318   -3.4613    0.1504 S.3     1  LIG1       -0.1409
      8 H           0.4916   -3.0691   -0.7516 H       1  LIG1        0.1072
      9 C           0.6564   -0.6089   -0.9454 C.1     1  LIG1       -0.0674
     10 C           1.4990   -0.6579   -1.8141 C.1     1  LIG1       -0.1138
     11 H           2.2463   -0.6647   -2.5737 H       1  LIG1        0.1232
     12 C          -0.5978    1.9371    0.3145 C.ar    1  LIG1        0.0421
     13 C           0.6061    2.6068    0.3930 C.ar    1  LIG1        0.0361
     14 C           0.4949    4.0096    0.0575 C.ar    1  LIG1        0.0537
     15 C          -0.8061    4.3932   -0.2411 C.ar    1  LIG1        0.0440
     16 S          -1.8891    3.0313   -0.1547 S.2     1  LIG1       -0.0848
     17 S           2.1300    1.8352    0.8678 S.3     1  LIG1       -0.1403
     18 H           2.7339    2.9902    1.2178 H       1  LIG1        0.1072
     19 C           1.6086    4.8881    0.0128 C.1     1  LIG1       -0.0674
     20 C           2.5779    5.6131   -0.0175 C.1     1  LIG1       -0.1138
     21 H           3.4141    6.2726   -0.0532 H       1  LIG1        0.1232
     22 C          -1.3107    5.7088   -0.6054 C.ar    1  LIG1        0.0415
     23 C          -1.2106    6.9107    0.0663 C.ar    1  LIG1        0.0355
     24 C          -1.9048    7.9882   -0.6099 C.ar    1  LIG1        0.0454
     25 C          -2.5189    7.5665   -1.7675 C.ar    1  LIG1       -0.0072
     26 S          -2.2578    5.8969   -2.0783 S.2     1  LIG1       -0.0937
     27 H          -3.1015    8.1719   -2.4470 H       1  LIG1        0.0706
     28 S          -0.3600    7.1149    1.6087 S.3     1  LIG1       -0.1403
     29 H          -1.0189    8.2431    1.9474 H       1  LIG1        0.1072
     30 C          -1.9754    9.3209   -0.1205 C.1     1  LIG1       -0.0680
     31 C          -2.0318   10.4484    0.3173 C.1     1  LIG1       -0.1139
     32 H          -2.0829   11.4468    0.6862 H       1  LIG1        0.1232
@<TRIPOS>BOND
     1    11    10    1
     2    27    25    1
     3    26    25   ar
     4    26    22   ar
     5    10     9    3
     6    25    24   ar
     7     9     3    1
     8     8     7    1
     9    24    30    1
    10    24    23   ar
    11    22    15    1
    12    22    23   ar
    13    15    16   ar
    14    15    14   ar
    15    16    12   ar
    16    30    31    3
    17    21    20    1
    18    20    19    3
    19    19    14    1
    20    14    13   ar
    21     3     4   ar
    22     3     2   ar
    23    23    28    1
    24     7     2    1
    25    12    13   ar
    26    12     4    1
    27    31    32    1
    28    13    17    1
    29     4     5   ar
    30     2     1   ar
    31    17    18    1
    32     1     5   ar
    33     1     6    1
    34    28    29    1
