@<TRIPOS>MOLECULE
mol_data/opt/b3lyp/geoms/mol2/5ge5ge5ge5ge-.out
 42 45 0 0 0
SMALL
GASTEIGER

@<TRIPOS>ATOM
      1 C          -2.0584   -1.8258    0.4062 C.ar    1  LIG1       -0.0093
      2 C          -0.8060   -1.8863   -0.1378 C.ar    1  LIG1        0.0278
      3 C          -0.1844   -0.5829   -0.2454 C.ar    1  LIG1        0.0531
      4 C          -0.9934    0.4348    0.2469 C.ar    1  LIG1        0.0434
      5 S          -2.5116   -0.2076    0.8248 S.2     1  LIG1       -0.0937
      6 H          -2.7417   -2.6431    0.5877 H       1  LIG1        0.0705
      7 S          -0.0550   -3.4073   -0.6654 S.3     1  LIG1       -0.1409
      8 H           1.0807   -2.8336   -1.1142 H       1  LIG1        0.1072
      9 C           1.0821   -0.3763   -0.8502 C.1     1  LIG1       -0.0674
     10 C           2.1621   -0.2439   -1.3823 C.1     1  LIG1       -0.1138
     11 H           3.1124   -0.0908   -1.8394 H       1  LIG1        0.1232
     12 C          -0.7286    1.8634    0.3146 C.ar    1  LIG1        0.0421
     13 C           0.3297    2.5409    0.8858 C.ar    1  LIG1        0.0361
     14 C           0.1908    3.9785    0.8018 C.ar    1  LIG1        0.0537
     15 C          -0.9747    4.3736    0.1563 C.ar    1  LIG1        0.0440
     16 S          -1.8954    2.9877   -0.3629 S.2     1  LIG1       -0.0848
     17 S           1.6858    1.7385    1.6984 S.3     1  LIG1       -0.1403
     18 H           2.0449    2.8287    2.4088 H       1  LIG1        0.1072
     19 C           1.1009    4.8807    1.4112 C.1     1  LIG1       -0.0674
     20 C           1.8861    5.6236    1.9573 C.1     1  LIG1       -0.1138
     21 H           2.5664    6.3030    2.4168 H       1  LIG1        0.1232
     22 C          -1.4661    5.7155   -0.1084 C.ar    1  LIG1        0.0421
     23 C          -0.8454    6.7820   -0.7289 C.ar    1  LIG1        0.0361
     24 C          -1.7094    7.9344   -0.8659 C.ar    1  LIG1        0.0537
     25 C          -2.9779    7.7276   -0.3384 C.ar    1  LIG1        0.0440
     26 S          -3.1131    6.1295    0.3420 S.2     1  LIG1       -0.0848
     27 S           0.8112    6.7287   -1.3570 S.3     1  LIG1       -0.1403
     28 H           0.6323    7.7555   -2.2149 H       1  LIG1        0.1072
     29 C          -1.3257    9.1115   -1.5597 C.1     1  LIG1       -0.0674
     30 C          -0.9741   10.0951   -2.1724 C.1     1  LIG1       -0.1138
     31 H          -0.6873   10.9785   -2.6949 H       1  LIG1        0.1232
     32 C          -4.1106    8.6381   -0.2922 C.ar    1  LIG1        0.0415
     33 C          -4.1944    9.9248    0.2031 C.ar    1  LIG1        0.0355
     34 C          -5.5332   10.4718    0.1115 C.ar    1  LIG1        0.0454
     35 C          -6.4247    9.5789   -0.4388 C.ar    1  LIG1       -0.0072
     36 S          -5.6810    8.0935   -0.8767 S.2     1  LIG1       -0.0937
     37 H          -7.4791    9.7418   -0.6101 H       1  LIG1        0.0706
     38 S          -2.8302   10.8043    0.9147 S.3     1  LIG1       -0.1403
     39 H          -3.6063   11.6735    1.5958 H       1  LIG1        0.1072
     40 C          -5.8967   11.7681    0.5677 C.1     1  LIG1       -0.0680
     41 C          -6.1889   12.8720    0.9704 C.1     1  LIG1       -0.1139
     42 H          -6.4590   13.8442    1.3130 H       1  LIG1        0.1232
@<TRIPOS>BOND
     1    31    30    1
     2    28    27    1
     3    30    29    3
     4    11    10    1
     5    29    24    1
     6    10     9    3
     7    27    23    1
     8     8     7    1
     9    36    35   ar
    10    36    32   ar
    11    24    23   ar
    12    24    25   ar
    13     9     3    1
    14    23    22   ar
    15     7     2    1
    16    37    35    1
    17    35    34   ar
    18    16    15   ar
    19    16    12   ar
    20    25    32    1
    21    25    26   ar
    22    32    33   ar
    23     3     2   ar
    24     3     4   ar
    25     2     1   ar
    26    22    15    1
    27    22    26   ar
    28    34    33   ar
    29    34    40    1
    30    15    14   ar
    31    33    38    1
    32     4    12    1
    33     4     5   ar
    34    12    13   ar
    35     1     6    1
    36     1     5   ar
    37    40    41    3
    38    14    13   ar
    39    14    19    1
    40    13    17    1
    41    38    39    1
    42    41    42    1
    43    19    20    3
    44    17    18    1
    45    20    21    1
