@<TRIPOS>MOLECULE
mol_data/opt/b3lyp/geoms/mol2/5ge5ge5ge5ge.out
 42 45 0 0 0
SMALL
GASTEIGER

@<TRIPOS>ATOM
      1 C          -2.0922   -1.8272    0.3456 C.ar    1  LIG1       -0.0093
      2 C          -0.8307   -1.8881   -0.1770 C.ar    1  LIG1        0.0278
      3 C          -0.2024   -0.5864   -0.2633 C.ar    1  LIG1        0.0531
      4 C          -1.0161    0.4304    0.2232 C.ar    1  LIG1        0.0434
      5 S          -2.5466   -0.2106    0.7692 S.2     1  LIG1       -0.0937
      6 H          -2.7817   -2.6432    0.5085 H       1  LIG1        0.0705
      7 S          -0.0765   -3.4080   -0.7039 S.3     1  LIG1       -0.1409
      8 H           1.0689   -2.8351   -1.1285 H       1  LIG1        0.1072
      9 C           1.0752   -0.3802   -0.8443 C.1     1  LIG1       -0.0674
     10 C           2.1647   -0.2482   -1.3567 C.1     1  LIG1       -0.1138
     11 H           3.1235   -0.0955   -1.7959 H       1  LIG1        0.1232
     12 C          -0.7474    1.8575    0.3071 C.ar    1  LIG1        0.0421
     13 C           0.3035    2.5266    0.9015 C.ar    1  LIG1        0.0361
     14 C           0.1713    3.9653    0.8263 C.ar    1  LIG1        0.0537
     15 C          -0.9815    4.3697    0.1640 C.ar    1  LIG1        0.0440
     16 S          -1.8982    2.9913   -0.3816 S.2     1  LIG1       -0.0848
     17 S           1.6424    1.7129    1.7316 S.3     1  LIG1       -0.1403
     18 H           1.9944    2.7972    2.4546 H       1  LIG1        0.1072
     19 C           1.0742    4.8595    1.4578 C.1     1  LIG1       -0.0674
     20 C           1.8528    5.5953    2.0226 C.1     1  LIG1       -0.1138
     21 H           2.5274    6.2691    2.4985 H       1  LIG1        0.1232
     22 C          -1.4633    5.7155   -0.0988 C.ar    1  LIG1        0.0421
     23 C          -0.8281    6.7842   -0.7005 C.ar    1  LIG1        0.0361
     24 C          -1.6849    7.9412   -0.8428 C.ar    1  LIG1        0.0537
     25 C          -2.9628    7.7356   -0.3379 C.ar    1  LIG1        0.0440
     26 S          -3.1157    6.1329    0.3277 S.2     1  LIG1       -0.0848
     27 S           0.8386    6.7288   -1.3013 S.3     1  LIG1       -0.1403
     28 H           0.6775    7.7611   -2.1561 H       1  LIG1        0.1072
     29 C          -1.2850    9.1221   -1.5208 C.1     1  LIG1       -0.0674
     30 C          -0.9193   10.1089   -2.1198 C.1     1  LIG1       -0.1138
     31 H          -0.6206   10.9954   -2.6302 H       1  LIG1        0.1232
     32 C          -4.0927    8.6504   -0.3036 C.ar    1  LIG1        0.0415
     33 C          -4.1798    9.9332    0.2011 C.ar    1  LIG1        0.0355
     34 C          -5.5146   10.4866    0.0909 C.ar    1  LIG1        0.0454
     35 C          -6.4000    9.6020   -0.4825 C.ar    1  LIG1       -0.0072
     36 S          -5.6548    8.1172   -0.9198 S.2     1  LIG1       -0.0937
     37 H          -7.4506    9.7708   -0.6707 H       1  LIG1        0.0706
     38 S          -2.8247   10.8008    0.9435 S.3     1  LIG1       -0.1403
     39 H          -3.6090   11.6703    1.6150 H       1  LIG1        0.1072
     40 C          -5.8808   11.7805    0.5515 C.1     1  LIG1       -0.0680
     41 C          -6.1754   12.8822    0.9581 C.1     1  LIG1       -0.1139
     42 H          -6.4474   13.8528    1.3040 H       1  LIG1        0.1232
@<TRIPOS>BOND
     1    31    30    1
     2    28    27    1
     3    30    29    3
     4    11    10    1
     5    29    24    1
     6    10     9    3
     7    27    23    1
     8     8     7    1
     9    36    35   ar
    10    36    32   ar
    11     9     3    1
    12    24    23   ar
    13    24    25   ar
    14     7     2    1
    15    23    22   ar
    16    37    35    1
    17    35    34   ar
    18    16    15   ar
    19    16    12   ar
    20    25    32    1
    21    25    26   ar
    22    32    33   ar
    23     3     2   ar
    24     3     4   ar
    25     2     1   ar
    26    22    15    1
    27    22    26   ar
    28    34    33   ar
    29    34    40    1
    30    15    14   ar
    31    33    38    1
    32     4    12    1
    33     4     5   ar
    34    12    13   ar
    35     1     6    1
    36     1     5   ar
    37    40    41    3
    38    14    13   ar
    39    14    19    1
    40    13    17    1
    41    38    39    1
    42    41    42    1
    43    19    20    3
    44    17    18    1
    45    20    21    1
