@<TRIPOS>MOLECULE
mol_data/opt/b3lyp/geoms/mol2/5ge5ge5ge-5ge.out
 42 45 0 0 0
SMALL
GASTEIGER

@<TRIPOS>ATOM
      1 C          -1.4192   -1.3518    2.4031 C.ar    1  LIG1       -0.0093
      2 C          -0.9667   -1.6841    1.1567 C.ar    1  LIG1        0.0278
      3 C          -0.5784   -0.5249    0.3810 C.ar    1  LIG1        0.0531
      4 C          -0.7362    0.6633    1.0846 C.ar    1  LIG1        0.0434
      5 S          -1.3674    0.3561    2.6831 S.2     1  LIG1       -0.0937
      6 H          -1.7787   -2.0162    3.1759 H       1  LIG1        0.0705
      7 S          -0.8908   -3.3601    0.5722 S.3     1  LIG1       -0.1409
      8 H          -0.4393   -3.0402   -0.6583 H       1  LIG1        0.1072
      9 C          -0.1474   -0.6039   -0.9685 C.1     1  LIG1       -0.0674
     10 C           0.2072   -0.7163   -2.1211 C.1     1  LIG1       -0.1138
     11 H           0.5300   -0.7798   -3.1347 H       1  LIG1        0.1232
     12 C          -0.4563    2.0250    0.6530 C.ar    1  LIG1        0.0421
     13 C           0.7138    2.5731    0.1686 C.ar    1  LIG1        0.0361
     14 C           0.5983    3.9856   -0.1199 C.ar    1  LIG1        0.0537
     15 C          -0.6564    4.4991    0.1833 C.ar    1  LIG1        0.0440
     16 S          -1.7112    3.2467    0.7793 S.2     1  LIG1       -0.0848
     17 S           2.2087    1.6483   -0.0635 S.3     1  LIG1       -0.1403
     18 H           3.0114    2.7331   -0.0569 H       1  LIG1        0.1072
     19 C           1.6520    4.7516   -0.6828 C.1     1  LIG1       -0.0674
     20 C           2.5693    5.3783   -1.1645 C.1     1  LIG1       -0.1138
     21 H           3.3594    5.9535   -1.5892 H       1  LIG1        0.1232
     22 C          -1.1437    5.8632    0.0446 C.ar    1  LIG1        0.0421
     23 C          -0.6374    7.0387    0.5611 C.ar    1  LIG1        0.0361
     24 C          -1.4425    8.1937    0.2293 C.ar    1  LIG1        0.0537
     25 C          -2.5723    7.8714   -0.5112 C.ar    1  LIG1        0.0440
     26 S          -2.6318    6.1615   -0.8398 S.2     1  LIG1       -0.0848
     27 S           0.8377    7.1296    1.5410 S.3     1  LIG1       -0.1403
     28 H           0.5066    8.2976    2.1301 H       1  LIG1        0.1072
     29 C          -1.0916    9.5176    0.6015 C.1     1  LIG1       -0.0674
     30 C          -0.7661   10.6356    0.9331 C.1     1  LIG1       -0.1138
     31 H          -0.5020   11.6300    1.2106 H       1  LIG1        0.1232
     32 C          -3.6171    8.7508   -1.0146 C.ar    1  LIG1        0.0415
     33 C          -4.4312    9.6346   -0.3351 C.ar    1  LIG1        0.0355
     34 C          -5.3923   10.2879   -1.2010 C.ar    1  LIG1        0.0454
     35 C          -5.2837    9.8700   -2.5081 C.ar    1  LIG1       -0.0072
     36 S          -4.0263    8.7197   -2.7273 S.2     1  LIG1       -0.0937
     37 H          -5.8845   10.1996   -3.3436 H       1  LIG1        0.0706
     38 S          -4.3431    9.9179    1.4128 S.3     1  LIG1       -0.1403
     39 H          -5.5993   10.4020    1.5084 H       1  LIG1        0.1072
     40 C          -6.3598   11.2270   -0.7510 C.1     1  LIG1       -0.0680
     41 C          -7.1825   12.0180   -0.3468 C.1     1  LIG1       -0.1139
     42 H          -7.9066   12.7219   -0.0066 H       1  LIG1        0.1232
@<TRIPOS>BOND
     1    37    35    1
     2    11    10    1
     3    36    35   ar
     4    36    32   ar
     5    35    34   ar
     6    10     9    3
     7    21    20    1
     8    34    40    1
     9    34    33   ar
    10    20    19    3
    11    32    25    1
    12    32    33   ar
    13     9     3    1
    14    26    25   ar
    15    26    22   ar
    16    40    41    3
    17    19    14    1
    18     8     7    1
    19    25    24   ar
    20    41    42    1
    21    33    38    1
    22    14    13   ar
    23    14    15   ar
    24    17    18    1
    25    17    13    1
    26    22    15    1
    27    22    23   ar
    28    13    12   ar
    29    15    16   ar
    30    24    23   ar
    31    24    29    1
    32     3     4   ar
    33     3     2   ar
    34    23    27    1
    35     7     2    1
    36    29    30    3
    37    12    16   ar
    38    12     4    1
    39    30    31    1
    40     4     5   ar
    41     2     1   ar
    42    38    39    1
    43    27    28    1
    44     1     5   ar
    45     1     6    1
