@<TRIPOS>MOLECULE
mol_data/opt/b3lyp/geoms/mol2/5ge5ge-5ge.out
 32 34 0 0 0
SMALL
GASTEIGER

@<TRIPOS>ATOM
      1 C          -1.8649   -1.5574    1.5653 C.ar    1  LIG1       -0.0093
      2 C          -0.8865   -1.8141    0.6458 C.ar    1  LIG1        0.0278
      3 C          -0.3191   -0.6044    0.0881 C.ar    1  LIG1        0.0531
      4 C          -0.8841    0.5458    0.6264 C.ar    1  LIG1        0.0434
      5 S          -2.1109    0.1402    1.8009 S.2     1  LIG1       -0.0937
      6 H          -2.4550   -2.2721    2.1211 H       1  LIG1        0.0705
      7 S          -0.3969   -3.4602    0.1914 S.3     1  LIG1       -0.1409
      8 H           0.5052   -3.0692   -0.7324 H       1  LIG1        0.1072
      9 C           0.6587   -0.6094   -0.9400 C.1     1  LIG1       -0.0674
     10 C           1.4860   -0.6597   -1.8231 C.1     1  LIG1       -0.1138
     11 H           2.2200   -0.6678   -2.5956 H       1  LIG1        0.1232
     12 C          -0.5847    1.9383    0.3273 C.ar    1  LIG1        0.0421
     13 C           0.6172    2.6140    0.3810 C.ar    1  LIG1        0.0361
     14 C           0.4937    4.0142    0.0393 C.ar    1  LIG1        0.0537
     15 C          -0.8141    4.3902   -0.2389 C.ar    1  LIG1        0.0440
     16 S          -1.8891    3.0238   -0.1258 S.2     1  LIG1       -0.0848
     17 S           2.1529    1.8520    0.8340 S.3     1  LIG1       -0.1403
     18 H           2.7578    3.0119    1.1654 H       1  LIG1        0.1072
     19 C           1.6024    4.8975   -0.0299 C.1     1  LIG1       -0.0674
     20 C           2.5678    5.6265   -0.0813 C.1     1  LIG1       -0.1138
     21 H           3.4003    6.2895   -0.1356 H       1  LIG1        0.1232
     22 C          -1.3312    5.7012   -0.6020 C.ar    1  LIG1        0.0415
     23 C          -1.2240    6.9080    0.0598 C.ar    1  LIG1        0.0355
     24 C          -1.9361    7.9778   -0.6100 C.ar    1  LIG1        0.0454
     25 C          -2.5703    7.5455   -1.7528 C.ar    1  LIG1       -0.0072
     26 S          -2.3071    5.8753   -2.0578 S.2     1  LIG1       -0.0937
     27 H          -3.1687    8.1437   -2.4249 H       1  LIG1        0.0706
     28 S          -0.3444    7.1267    1.5835 S.3     1  LIG1       -0.1403
     29 H          -1.0071    8.2499    1.9312 H       1  LIG1        0.1072
     30 C          -2.0038    9.3133   -0.1280 C.1     1  LIG1       -0.0680
     31 C          -2.0576   10.4433    0.3034 C.1     1  LIG1       -0.1139
     32 H          -2.1065   11.4439    0.6668 H       1  LIG1        0.1232
@<TRIPOS>BOND
     1    11    10    1
     2    27    25    1
     3    26    25   ar
     4    26    22   ar
     5    10     9    3
     6    25    24   ar
     7     9     3    1
     8     8     7    1
     9    24    30    1
    10    24    23   ar
    11    22    15    1
    12    22    23   ar
    13    15    16   ar
    14    15    14   ar
    15    21    20    1
    16    30    31    3
    17    16    12   ar
    18    20    19    3
    19    19    14    1
    20    14    13   ar
    21    23    28    1
    22     3     4   ar
    23     3     2   ar
    24     7     2    1
    25    31    32    1
    26    12    13   ar
    27    12     4    1
    28    13    17    1
    29     4     5   ar
    30     2     1   ar
    31    17    18    1
    32     1     5   ar
    33     1     6    1
    34    28    29    1
