@<TRIPOS>MOLECULE
mol_data/opt/b3lyp/geoms/mol2/5ge5ge5ge-5ge-.out
 42 45 0 0 0
SMALL
GASTEIGER

@<TRIPOS>ATOM
      1 C          -1.0108   -1.6299    2.0743 C.ar    1  LIG1       -0.0093
      2 C          -0.6635   -1.8187    0.7657 C.ar    1  LIG1        0.0278
      3 C          -0.4137   -0.5720    0.0732 C.ar    1  LIG1        0.0531
      4 C          -0.5651    0.5355    0.8994 C.ar    1  LIG1        0.0434
      5 S          -1.0224    0.0455    2.5118 S.2     1  LIG1       -0.0937
      6 H          -1.2587   -2.3828    2.8088 H       1  LIG1        0.0705
      7 S          -0.5570   -3.4265    0.0176 S.3     1  LIG1       -0.1409
      8 H          -0.2321   -2.9694   -1.2096 H       1  LIG1        0.1072
      9 C          -0.1124   -0.5015   -1.3115 C.1     1  LIG1       -0.0674
     10 C           0.1338   -0.4862   -2.4973 C.1     1  LIG1       -0.1138
     11 H           0.3591   -0.4367   -3.5376 H       1  LIG1        0.1232
     12 C          -0.4005    1.9452    0.5779 C.ar    1  LIG1        0.0421
     13 C           0.6836    2.6065    0.0378 C.ar    1  LIG1        0.0361
     14 C           0.4663    4.0299   -0.0991 C.ar    1  LIG1        0.0537
     15 C          -0.7751    4.4358    0.3742 C.ar    1  LIG1        0.0440
     16 S          -1.6978    3.0714    0.9443 S.2     1  LIG1       -0.0848
     17 S           2.1933    1.8021   -0.4290 S.3     1  LIG1       -0.1403
     18 H           2.9335    2.9299   -0.3927 H       1  LIG1        0.1072
     19 C           1.4148    4.9066   -0.6869 C.1     1  LIG1       -0.0674
     20 C           2.2431    5.6292   -1.1947 C.1     1  LIG1       -0.1138
     21 H           2.9524    6.2887   -1.6391 H       1  LIG1        0.1232
     22 C          -1.3443    5.7736    0.4177 C.ar    1  LIG1        0.0421
     23 C          -0.8460    6.9291    0.9855 C.ar    1  LIG1        0.0361
     24 C          -1.7577    8.0475    0.8797 C.ar    1  LIG1        0.0537
     25 C          -2.9383    7.7245    0.2227 C.ar    1  LIG1        0.0440
     26 S          -2.9298    6.0571   -0.2829 S.2     1  LIG1       -0.0848
     27 S           0.7166    7.0220    1.8180 S.3     1  LIG1       -0.1403
     28 H           0.3881    8.1125    2.5426 H       1  LIG1        0.1072
     29 C          -1.5065    9.3100    1.4774 C.1     1  LIG1       -0.0674
     30 C          -1.2703   10.3699    2.0135 C.1     1  LIG1       -0.1138
     31 H          -1.0830   11.3175    2.4634 H       1  LIG1        0.1232
     32 C          -4.0848    8.5699   -0.0697 C.ar    1  LIG1        0.0415
     33 C          -4.1457    9.7888   -0.7163 C.ar    1  LIG1        0.0355
     34 C          -5.5019   10.2803   -0.8541 C.ar    1  LIG1        0.0454
     35 C          -6.4275    9.4133   -0.3187 C.ar    1  LIG1       -0.0072
     36 S          -5.6988    8.0211    0.3756 S.2     1  LIG1       -0.0937
     37 H          -7.4999    9.5451   -0.2990 H       1  LIG1        0.0706
     38 S          -2.7301   10.6473   -1.3491 S.3     1  LIG1       -0.1403
     39 H          -3.4396   11.3992   -2.2168 H       1  LIG1        0.1072
     40 C          -5.8451   11.5003   -1.4978 C.1     1  LIG1       -0.0680
     41 C          -6.1180   12.5386   -2.0577 C.1     1  LIG1       -0.1139
     42 H          -6.3726   13.4538   -2.5405 H       1  LIG1        0.1232
@<TRIPOS>BOND
     1    11    10    1
     2    42    41    1
     3    10     9    3
     4    39    38    1
     5    41    40    3
     6    21    20    1
     7    40    34    1
     8    38    33    1
     9     9     3    1
    10     8     7    1
    11    20    19    3
    12    34    33   ar
    13    34    35   ar
    14    33    32   ar
    15    19    14    1
    16    17    18    1
    17    17    13    1
    18    35    37    1
    19    35    36   ar
    20    26    25   ar
    21    26    22   ar
    22    14    13   ar
    23    14    15   ar
    24    32    25    1
    25    32    36   ar
    26     7     2    1
    27    13    12   ar
    28     3     2   ar
    29     3     4   ar
    30    25    24   ar
    31    15    22    1
    32    15    16   ar
    33    22    23   ar
    34    12     4    1
    35    12    16   ar
    36     2     1   ar
    37    24    23   ar
    38    24    29    1
    39     4     5   ar
    40    23    27    1
    41    29    30    3
    42    27    28    1
    43    30    31    1
    44     1     5   ar
    45     1     6    1
