@<TRIPOS>MOLECULE
mol_data/opt/b3lyp/geoms/mol2/5ge5ge5ge.out
 32 34 0 0 0
SMALL
GASTEIGER

@<TRIPOS>ATOM
      1 C          -1.9439   -1.8351    0.6365 C.ar    1  LIG1       -0.0093
      2 C          -0.8216   -1.8508   -0.1436 C.ar    1  LIG1        0.0278
      3 C          -0.2497   -0.5322   -0.3193 C.ar    1  LIG1        0.0531
      4 C          -0.9596    0.4506    0.3607 C.ar    1  LIG1        0.0434
      5 S          -2.3263   -0.2424    1.1989 S.2     1  LIG1       -0.0937
      6 H          -2.5686   -2.6718    0.9147 H       1  LIG1        0.0705
      7 S          -0.1668   -3.3370   -0.8637 S.3     1  LIG1       -0.1409
      8 H           0.8309   -2.7200   -1.5303 H       1  LIG1        0.1072
      9 C           0.8714   -0.2781   -1.1506 C.1     1  LIG1       -0.0674
     10 C           1.8246   -0.1044   -1.8774 C.1     1  LIG1       -0.1138
     11 H           2.6655    0.0843   -2.5041 H       1  LIG1        0.1232
     12 C          -0.7027    1.8805    0.4335 C.ar    1  LIG1        0.0421
     13 C           0.4382    2.5552    0.8187 C.ar    1  LIG1        0.0361
     14 C           0.2699    3.9922    0.8217 C.ar    1  LIG1        0.0537
     15 C          -1.0022    4.3898    0.4297 C.ar    1  LIG1        0.0440
     16 S          -1.9893    3.0085    0.0380 S.2     1  LIG1       -0.0848
     17 S           1.9340    1.7471    1.3222 S.3     1  LIG1       -0.1403
     18 H           2.4062    2.8109    2.0058 H       1  LIG1        0.1072
     19 C           1.2718    4.8881    1.2775 C.1     1  LIG1       -0.0674
     20 C           2.1409    5.6243    1.6887 C.1     1  LIG1       -0.1138
     21 H           2.8922    6.2973    2.0324 H       1  LIG1        0.1232
     22 C          -1.5487    5.7329    0.3186 C.ar    1  LIG1        0.0415
     23 C          -1.0754    6.8288   -0.3759 C.ar    1  LIG1        0.0355
     24 C          -1.9525    7.9777   -0.2710 C.ar    1  LIG1        0.0454
     25 C          -3.0692    7.7134    0.4893 C.ar    1  LIG1       -0.0072
     26 S          -3.0777    6.1108    1.1081 S.2     1  LIG1       -0.0937
     27 H          -3.8745    8.3982    0.7134 H       1  LIG1        0.0706
     28 S           0.4195    6.8286   -1.3283 S.3     1  LIG1       -0.1403
     29 H           0.0678    7.8926   -2.0806 H       1  LIG1        0.1072
     30 C          -1.7091    9.2258   -0.9063 C.1     1  LIG1       -0.0680
     31 C          -1.4888   10.2784   -1.4626 C.1     1  LIG1       -0.1139
     32 H          -1.3038   11.2132   -1.9396 H       1  LIG1        0.1232
@<TRIPOS>BOND
     1    11    10    1
     2    29    28    1
     3    32    31    1
     4    10     9    3
     5     8     7    1
     6    31    30    3
     7    28    23    1
     8     9     3    1
     9    30    24    1
    10     7     2    1
    11    23    24   ar
    12    23    22   ar
    13     3     2   ar
    14     3     4   ar
    15    24    25   ar
    16     2     1   ar
    17    16    15   ar
    18    16    12   ar
    19    22    15    1
    20    22    26   ar
    21     4    12    1
    22     4     5   ar
    23    15    14   ar
    24    12    13   ar
    25    25    27    1
    26    25    26   ar
    27     1     6    1
    28     1     5   ar
    29    13    14   ar
    30    13    17    1
    31    14    19    1
    32    19    20    3
    33    17    18    1
    34    20    21    1
