@<TRIPOS>MOLECULE
mol_data/opt/b3lyp/geoms/mol2/5ge5ge-5ge5ge-.out
 42 45 0 0 0
SMALL
GASTEIGER

@<TRIPOS>ATOM
      1 C          -1.3693   -1.3613    2.3909 C.ar    1  LIG1       -0.0093
      2 C          -0.9351   -1.6881    1.1365 C.ar    1  LIG1        0.0278
      3 C          -0.5610   -0.5251    0.3594 C.ar    1  LIG1        0.0531
      4 C          -0.7105    0.6602    1.0697 C.ar    1  LIG1        0.0434
      5 S          -1.3166    0.3456    2.6766 S.2     1  LIG1       -0.0937
      6 H          -1.7158   -2.0293    3.1665 H       1  LIG1        0.0705
      7 S          -0.8640   -3.3615    0.5449 S.3     1  LIG1       -0.1409
      8 H          -0.4368   -3.0359   -0.6926 H       1  LIG1        0.1072
      9 C          -0.1509   -0.5983   -0.9969 C.1     1  LIG1       -0.0674
     10 C           0.1859   -0.7058   -2.1553 C.1     1  LIG1       -0.1138
     11 H           0.4928   -0.7649   -3.1740 H       1  LIG1        0.1232
     12 C          -0.4401    2.0241    0.6393 C.ar    1  LIG1        0.0421
     13 C           0.7207    2.5764    0.1375 C.ar    1  LIG1        0.0361
     14 C           0.5978    3.9900   -0.1429 C.ar    1  LIG1        0.0537
     15 C          -0.6523    4.4998    0.1838 C.ar    1  LIG1        0.0440
     16 S          -1.6949    3.2430    0.7920 S.2     1  LIG1       -0.0848
     17 S           2.2133    1.6556   -0.1240 S.3     1  LIG1       -0.1403
     18 H           3.0142    2.7417   -0.1232 H       1  LIG1        0.1072
     19 C           1.6406    4.7602   -0.7205 C.1     1  LIG1       -0.0674
     20 C           2.5485    5.3905   -1.2150 C.1     1  LIG1       -0.1138
     21 H           3.3303    5.9688   -1.6507 H       1  LIG1        0.1232
     22 C          -1.1442    5.8638    0.0596 C.ar    1  LIG1        0.0421
     23 C          -0.6309    7.0379    0.5722 C.ar    1  LIG1        0.0361
     24 C          -1.4437    8.1929    0.2596 C.ar    1  LIG1        0.0537
     25 C          -2.5857    7.8719   -0.4625 C.ar    1  LIG1        0.0440
     26 S          -2.6481    6.1633   -0.7974 S.2     1  LIG1       -0.0848
     27 S           0.8606    7.1272    1.5273 S.3     1  LIG1       -0.1403
     28 H           0.5386    8.2934    2.1250 H       1  LIG1        0.1072
     29 C          -1.0888    9.5158    0.6315 C.1     1  LIG1       -0.0674
     30 C          -0.7597   10.6330    0.9624 C.1     1  LIG1       -0.1138
     31 H          -0.4927   11.6267    1.2397 H       1  LIG1        0.1232
     32 C          -3.6404    8.7519   -0.9437 C.ar    1  LIG1        0.0415
     33 C          -4.4445    9.6303   -0.2457 C.ar    1  LIG1        0.0355
     34 C          -5.4209   10.2868   -1.0918 C.ar    1  LIG1        0.0454
     35 C          -5.3333    9.8766   -2.4030 C.ar    1  LIG1       -0.0072
     36 S          -4.0778    8.7298   -2.6496 S.2     1  LIG1       -0.0937
     37 H          -5.9485   10.2098   -3.2265 H       1  LIG1        0.0706
     38 S          -4.3274    9.9039    1.5019 S.3     1  LIG1       -0.1403
     39 H          -5.5829   10.3848    1.6216 H       1  LIG1        0.1072
     40 C          -6.3824   11.2216   -0.6205 C.1     1  LIG1       -0.0680
     41 C          -7.1996   12.0088   -0.1981 C.1     1  LIG1       -0.1139
     42 H          -7.9190   12.7096    0.1581 H       1  LIG1        0.1232
@<TRIPOS>BOND
     1    37    35    1
     2    11    10    1
     3    36    35   ar
     4    36    32   ar
     5    35    34   ar
     6    10     9    3
     7    21    20    1
     8    20    19    3
     9    34    40    1
    10    34    33   ar
    11     9     3    1
    12    32    25    1
    13    32    33   ar
    14    26    25   ar
    15    26    22   ar
    16    19    14    1
    17     8     7    1
    18    40    41    3
    19    25    24   ar
    20    33    38    1
    21    41    42    1
    22    14    13   ar
    23    14    15   ar
    24    17    18    1
    25    17    13    1
    26    22    15    1
    27    22    23   ar
    28    13    12   ar
    29    15    16   ar
    30    24    23   ar
    31    24    29    1
    32     3     4   ar
    33     3     2   ar
    34     7     2    1
    35    23    27    1
    36    29    30    3
    37    12    16   ar
    38    12     4    1
    39    30    31    1
    40     4     5   ar
    41     2     1   ar
    42    38    39    1
    43    27    28    1
    44     1     5   ar
    45     1     6    1
