@<TRIPOS>MOLECULE
mol_data/opt/b3lyp/geoms/mol2/5ge5ge.out
 22 23 0 0 0
SMALL
GASTEIGER

@<TRIPOS>ATOM
      1 C          -2.0721   -1.6654    0.7723 C.ar    1  LIG1       -0.0093
      2 C          -0.7918   -1.8199    0.3196 C.ar    1  LIG1        0.0278
      3 C          -0.1898   -0.5654   -0.0811 C.ar    1  LIG1        0.0531
      4 C          -1.0428    0.5166    0.1011 C.ar    1  LIG1        0.0434
      5 S          -2.5755   -0.0083    0.7520 S.2     1  LIG1       -0.0937
      6 H          -2.7493   -2.4329    1.1188 H       1  LIG1        0.0705
      7 S           0.0162   -3.4007    0.2280 S.3     1  LIG1       -0.1409
      8 H           1.1521   -2.9251   -0.3234 H       1  LIG1        0.1072
      9 C           1.1056   -0.4747   -0.6532 C.1     1  LIG1       -0.0674
     10 C           2.2120   -0.4451   -1.1449 C.1     1  LIG1       -0.1138
     11 H           3.1854   -0.3822   -1.5739 H       1  LIG1        0.1232
     12 C          -0.8051    1.9256   -0.1769 C.ar    1  LIG1        0.0414
     13 C           0.1950    2.7587    0.2815 C.ar    1  LIG1        0.0355
     14 C           0.0514    4.1197   -0.1958 C.ar    1  LIG1        0.0454
     15 C          -1.0601    4.2779   -0.9924 C.ar    1  LIG1       -0.0072
     16 S          -1.9293    2.8108   -1.2036 S.2     1  LIG1       -0.0937
     17 H          -1.3918    5.1919   -1.4638 H       1  LIG1        0.0706
     18 S           1.4941    2.2357    1.3668 S.3     1  LIG1       -0.1403
     19 H           1.8138    3.4853    1.7638 H       1  LIG1        0.1072
     20 C           0.9351    5.1801    0.1441 C.1     1  LIG1       -0.0680
     21 C           1.6949    6.0711    0.4522 C.1     1  LIG1       -0.1139
     22 H           2.3595    6.8637    0.7086 H       1  LIG1        0.1232
@<TRIPOS>BOND
     1    11    10    1
     2    17    15    1
     3    16    15   ar
     4    16    12   ar
     5    10     9    3
     6    15    14   ar
     7     9     3    1
     8     8     7    1
     9    14    20    1
    10    14    13   ar
    11    12     4    1
    12    12    13   ar
    13     3     4   ar
    14     3     2   ar
    15     4     5   ar
    16    20    21    3
    17     7     2    1
    18    13    18    1
    19     2     1   ar
    20    21    22    1
    21     5     1   ar
    22     1     6    1
    23    18    19    1
