@<TRIPOS>MOLECULE
mol_data/opt/b3lyp/geoms/mol2/5ge5ge-5ge5ge.out
 42 45 0 0 0
SMALL
GASTEIGER

@<TRIPOS>ATOM
      1 C          -1.3647   -1.3613    2.3973 C.ar    1  LIG1       -0.0093
      2 C          -0.9238   -1.6861    1.1448 C.ar    1  LIG1        0.0278
      3 C          -0.5487   -0.5219    0.3702 C.ar    1  LIG1        0.0531
      4 C          -0.7044    0.6626    1.0806 C.ar    1  LIG1        0.0434
      5 S          -1.3176    0.3456    2.6842 S.2     1  LIG1       -0.0937
      6 H          -1.7132   -2.0307    3.1708 H       1  LIG1        0.0705
      7 S          -0.8467   -3.3591    0.5520 S.3     1  LIG1       -0.1409
      8 H          -0.4082   -3.0319   -0.6812 H       1  LIG1        0.1072
      9 C          -0.1315   -0.5930   -0.9840 C.1     1  LIG1       -0.0674
     10 C           0.2116   -0.6987   -2.1408 C.1     1  LIG1       -0.1138
     11 H           0.5240   -0.7562   -3.1579 H       1  LIG1        0.1232
     12 C          -0.4350    2.0274    0.6522 C.ar    1  LIG1        0.0421
     13 C           0.7278    2.5829    0.1587 C.ar    1  LIG1        0.0361
     14 C           0.6030    3.9961   -0.1227 C.ar    1  LIG1        0.0537
     15 C          -0.6509    4.5025    0.1949 C.ar    1  LIG1        0.0440
     16 S          -1.6942    3.2429    0.7961 S.2     1  LIG1       -0.0848
     17 S           2.2245    1.6660   -0.0915 S.3     1  LIG1       -0.1403
     18 H           3.0215    2.7549   -0.0936 H       1  LIG1        0.1072
     19 C           1.6475    4.7691   -0.6931 C.1     1  LIG1       -0.0674
     20 C           2.5571    5.4019   -1.1815 C.1     1  LIG1       -0.1138
     21 H           3.3402    5.9822   -1.6120 H       1  LIG1        0.1232
     22 C          -1.1458    5.8649    0.0672 C.ar    1  LIG1        0.0421
     23 C          -0.6389    7.0408    0.5822 C.ar    1  LIG1        0.0361
     24 C          -1.4530    8.1933    0.2640 C.ar    1  LIG1        0.0537
     25 C          -2.5897    7.8687   -0.4650 C.ar    1  LIG1        0.0440
     26 S          -2.6452    6.1596   -0.7993 S.2     1  LIG1       -0.0848
     27 S           0.8465    7.1351    1.5460 S.3     1  LIG1       -0.1403
     28 H           0.5150    8.2976    2.1456 H       1  LIG1        0.1072
     29 C          -1.1040    9.5174    0.6371 C.1     1  LIG1       -0.0674
     30 C          -0.7800   10.6357    0.9693 C.1     1  LIG1       -0.1138
     31 H          -0.5175   11.6303    1.2476 H       1  LIG1        0.1232
     32 C          -3.6442    8.7452   -0.9528 C.ar    1  LIG1        0.0415
     33 C          -4.4543    9.6225   -0.2603 C.ar    1  LIG1        0.0355
     34 C          -5.4283   10.2749   -1.1124 C.ar    1  LIG1        0.0454
     35 C          -5.3330    9.8627   -2.4224 C.ar    1  LIG1       -0.0072
     36 S          -4.0729    8.7191   -2.6608 S.2     1  LIG1       -0.0937
     37 H          -5.9449   10.1929   -3.2495 H       1  LIG1        0.0706
     38 S          -4.3473    9.8992    1.4876 S.3     1  LIG1       -0.1403
     39 H          -5.6050   10.3757    1.5999 H       1  LIG1        0.1072
     40 C          -6.3948   11.2078   -0.6476 C.1     1  LIG1       -0.0680
     41 C          -7.2164   11.9933   -0.2307 C.1     1  LIG1       -0.1139
     42 H          -7.9397   12.6926    0.1207 H       1  LIG1        0.1232
@<TRIPOS>BOND
     1    37    35    1
     2    11    10    1
     3    36    35   ar
     4    36    32   ar
     5    35    34   ar
     6    10     9    3
     7    21    20    1
     8    20    19    3
     9    34    40    1
    10    34    33   ar
    11     9     3    1
    12    32    25    1
    13    32    33   ar
    14    26    25   ar
    15    26    22   ar
    16    19    14    1
    17     8     7    1
    18    40    41    3
    19    25    24   ar
    20    33    38    1
    21    41    42    1
    22    14    13   ar
    23    14    15   ar
    24    18    17    1
    25    17    13    1
    26    22    15    1
    27    22    23   ar
    28    13    12   ar
    29    15    16   ar
    30    24    23   ar
    31    24    29    1
    32     3     4   ar
    33     3     2   ar
    34     7     2    1
    35    23    27    1
    36    29    30    3
    37    12    16   ar
    38    12     4    1
    39    30    31    1
    40     4     5   ar
    41     2     1   ar
    42    38    39    1
    43    27    28    1
    44     1     5   ar
    45     1     6    1
