@<TRIPOS>MOLECULE
mol_data/opt/b3lyp/geoms/mol2/5gf.out
 11 11 0 0 0
SMALL
GASTEIGER

@<TRIPOS>ATOM
      1 C          -2.1330   -1.6781    0.0000 C.ar    1  LIG1       -0.0075
      2 C          -0.7659   -1.6564   -0.0003 C.ar    1  LIG1        0.0533
      3 C          -0.2509   -0.3126   -0.0001 C.ar    1  LIG1        0.1369
      4 C          -1.2301    0.6417    0.0003 C.ar    1  LIG1        0.0183
      5 S          -2.8111   -0.0800    0.0005 S.2     1  LIG1       -0.1002
      6 H          -2.7820   -2.5419   -0.0000 H       1  LIG1        0.0705
      7 H          -1.1149    1.7165    0.0006 H       1  LIG1        0.0730
      8 S           0.2624   -3.1076   -0.0008 S.3     1  LIG1       -0.1386
      9 H           1.4275   -2.4320   -0.0012 H       1  LIG1        0.1072
     10 O           1.1018   -0.1212   -0.0004 O.3     1  LIG1       -0.5051
     11 H           1.2939    0.8250   -0.0003 H       1  LIG1        0.2922
@<TRIPOS>BOND
     1     9     8    1
     2     8     2    1
     3    10    11    1
     4    10     3    1
     5     2     3   ar
     6     2     1   ar
     7     3     4   ar
     8     6     1    1
     9     1     5   ar
    10     4     5   ar
    11     4     7    1
