@<TRIPOS>MOLECULE
mol_data/opt/b3lyp/geoms/mol2/5gf5gf-5gf5gf-.out
 38 41 0 0 0
SMALL
GASTEIGER

@<TRIPOS>ATOM
      1 C          -1.6783   -1.7244    1.6220 C.ar    1  LIG1       -0.0069
      2 C          -1.0331   -1.8754    0.4269 C.ar    1  LIG1        0.0539
      3 C          -0.5637   -0.6246   -0.1052 C.ar    1  LIG1        0.1452
      4 C          -0.8529    0.4607    0.7052 C.ar    1  LIG1        0.0696
      5 S          -1.7097   -0.0729    2.1463 S.2     1  LIG1       -0.0912
      6 H          -2.1160   -2.4946    2.2406 H       1  LIG1        0.0706
      7 S          -0.8101   -3.4272   -0.4084 S.3     1  LIG1       -0.1386
      8 H          -0.0420   -2.9116   -1.3884 H       1  LIG1        0.1072
      9 O           0.0430   -0.6102   -1.3176 O.3     1  LIG1       -0.5045
     10 H           0.6828    0.1275   -1.3648 H       1  LIG1        0.2922
     11 C          -0.6256    1.8727    0.4576 C.ar    1  LIG1        0.0468
     12 C           0.4770    2.5181   -0.0618 C.ar    1  LIG1        0.0623
     13 C           0.3109    3.9345   -0.1969 C.ar    1  LIG1        0.1458
     14 C          -0.9146    4.3915    0.2556 C.ar    1  LIG1        0.0702
     15 S          -1.8801    3.0412    0.8420 S.2     1  LIG1       -0.0822
     16 S           2.0184    1.7107   -0.4473 S.3     1  LIG1       -0.1380
     17 H           2.4120    2.6175   -1.3630 H       1  LIG1        0.1072
     18 O           1.3017    4.6528   -0.7769 O.3     1  LIG1       -0.5045
     19 H           1.3009    5.5703   -0.4372 H       1  LIG1        0.2922
     20 C          -1.4701    5.7303    0.2116 C.ar    1  LIG1        0.0468
     21 C          -0.8781    6.9505    0.4668 C.ar    1  LIG1        0.0623
     22 C          -1.7506    8.0700    0.2748 C.ar    1  LIG1        0.1458
     23 C          -3.0346    7.7122   -0.0950 C.ar    1  LIG1        0.0701
     24 S          -3.1585    5.9617   -0.2193 S.2     1  LIG1       -0.0822
     25 S           0.7819    7.1494    1.0828 S.3     1  LIG1       -0.1380
     26 H           0.9550    8.3910    0.5884 H       1  LIG1        0.1072
     27 O          -1.2495    9.3205    0.4185 O.3     1  LIG1       -0.5045
     28 H          -1.9502    9.9298    0.7269 H       1  LIG1        0.2922
     29 C          -4.1632    8.5565   -0.4429 C.ar    1  LIG1        0.0462
     30 C          -4.6162    9.7239    0.1386 C.ar    1  LIG1        0.0617
     31 C          -5.7567   10.2826   -0.5278 C.ar    1  LIG1        0.1376
     32 C          -6.1777    9.5395   -1.5942 C.ar    1  LIG1        0.0189
     33 S          -5.1726    8.1420   -1.8234 S.2     1  LIG1       -0.0912
     34 H          -7.0190    9.7240   -2.2474 H       1  LIG1        0.0731
     35 S          -3.9556   10.4215    1.6394 S.3     1  LIG1       -0.1380
     36 H          -4.2579   11.7006    1.3396 H       1  LIG1        0.1072
     37 O          -6.2890   11.4447   -0.0521 O.3     1  LIG1       -0.5051
     38 H          -7.0431   11.7021   -0.5981 H       1  LIG1        0.2922
@<TRIPOS>BOND
     1    34    32    1
     2    33    32   ar
     3    33    29   ar
     4    32    31   ar
     5     8     7    1
     6    10     9    1
     7    17    16    1
     8     9     3    1
     9    18    19    1
    10    18    13    1
    11    38    37    1
    12    31    37    1
    13    31    30   ar
    14    16    12    1
    15    29    23    1
    16    29    30   ar
    17     7     2    1
    18    24    23   ar
    19    24    20   ar
    20    13    12   ar
    21    13    14   ar
    22     3     2   ar
    23     3     4   ar
    24    23    22   ar
    25    12    11   ar
    26    30    35    1
    27    20    14    1
    28    20    21   ar
    29    14    15   ar
    30    22    27    1
    31    22    21   ar
    32    27    28    1
    33     2     1   ar
    34    11     4    1
    35    11    15   ar
    36    21    25    1
    37    26    25    1
    38     4     5   ar
    39    36    35    1
    40     1     5   ar
    41     1     6    1
