@<TRIPOS>MOLECULE
mol_data/opt/b3lyp/geoms/mol2/5gf5gf-5gf-5gf-.out
 38 41 0 0 0
SMALL
GASTEIGER

@<TRIPOS>ATOM
      1 C          -1.7672   -1.8488    1.1553 C.ar    1  LIG1       -0.0069
      2 C          -0.9995   -1.8967    0.0257 C.ar    1  LIG1        0.0539
      3 C          -0.4982   -0.6029   -0.3524 C.ar    1  LIG1        0.1452
      4 C          -0.8877    0.4104    0.5076 C.ar    1  LIG1        0.0696
      5 S          -1.8791   -0.2459    1.8046 S.2     1  LIG1       -0.0912
      6 H          -2.2540   -2.6702    1.6610 H       1  LIG1        0.0706
      7 S          -0.6627   -3.3735   -0.9023 S.3     1  LIG1       -0.1386
      8 H           0.1755   -2.7669   -1.7658 H       1  LIG1        0.1072
      9 O           0.2304   -0.4848   -1.4895 O.3     1  LIG1       -0.5045
     10 H           0.8630    0.2565   -1.4076 H       1  LIG1        0.2922
     11 C          -0.6613    1.8402    0.4006 C.ar    1  LIG1        0.0468
     12 C           0.4758    2.5381    0.0498 C.ar    1  LIG1        0.0623
     13 C           0.2989    3.9592    0.0211 C.ar    1  LIG1        0.1458
     14 C          -0.9732    4.3643    0.3862 C.ar    1  LIG1        0.0702
     15 S          -1.9681    2.9593    0.7551 S.2     1  LIG1       -0.0822
     16 S           2.0622    1.7816   -0.2459 S.3     1  LIG1       -0.1380
     17 H           2.5166    2.7488   -1.0669 H       1  LIG1        0.1072
     18 O           1.3298    4.7341   -0.3926 O.3     1  LIG1       -0.5045
     19 H           1.2746    5.6219    0.0136 H       1  LIG1        0.2922
     20 C          -1.5445    5.6963    0.4077 C.ar    1  LIG1        0.0468
     21 C          -0.9981    6.8932    0.8233 C.ar    1  LIG1        0.0623
     22 C          -1.8655    8.0193    0.6453 C.ar    1  LIG1        0.1458
     23 C          -3.0955    7.6884    0.1051 C.ar    1  LIG1        0.0701
     24 S          -3.1606    5.9636   -0.2298 S.2     1  LIG1       -0.0822
     25 S           0.5830    7.0486    1.6272 S.3     1  LIG1       -0.1380
     26 H           0.7508    8.3468    1.3045 H       1  LIG1        0.1072
     27 O          -1.4432    9.2389    1.0576 O.3     1  LIG1       -0.5045
     28 H          -1.8912    9.9381    0.5406 H       1  LIG1        0.2922
     29 C          -4.2657    8.5224   -0.1026 C.ar    1  LIG1        0.0462
     30 C          -4.3695    9.8093   -0.5917 C.ar    1  LIG1        0.0617
     31 C          -5.7173   10.2992   -0.6139 C.ar    1  LIG1        0.1376
     32 C          -6.6310    9.3889   -0.1635 C.ar    1  LIG1        0.0189
     33 S          -5.8602    7.9091    0.3196 S.2     1  LIG1       -0.0912
     34 H          -7.7046    9.4959   -0.0963 H       1  LIG1        0.0731
     35 S          -3.0062   10.7457   -1.2556 S.3     1  LIG1       -0.1380
     36 H          -3.5012   11.9572   -0.9324 H       1  LIG1        0.1072
     37 O          -5.9466   11.5657   -1.0651 O.3     1  LIG1       -0.5051
     38 H          -6.8919   11.7588   -1.0187 H       1  LIG1        0.2922
@<TRIPOS>BOND
     1     8     7    1
     2     9    10    1
     3     9     3    1
     4    35    36    1
     5    35    30    1
     6    17    16    1
     7    37    38    1
     8    37    31    1
     9     7     2    1
    10    31    30   ar
    11    31    32   ar
    12    30    29   ar
    13    18    19    1
    14    18    13    1
    15     3     2   ar
    16     3     4   ar
    17    16    12    1
    18    24    23   ar
    19    24    20   ar
    20    32    34    1
    21    32    33   ar
    22    29    23    1
    23    29    33   ar
    24    13    12   ar
    25    13    14   ar
    26     2     1   ar
    27    12    11   ar
    28    23    22   ar
    29    14    20    1
    30    14    15   ar
    31    11     4    1
    32    11    15   ar
    33    20    21   ar
    34     4     5   ar
    35    28    27    1
    36    22    21   ar
    37    22    27    1
    38    21    25    1
    39     1     6    1
    40     1     5   ar
    41    26    25    1
