@<TRIPOS>MOLECULE
mol_data/opt/b3lyp/geoms/mol2/5gf5gf5gf-.out
 29 31 0 0 0
SMALL
GASTEIGER

@<TRIPOS>ATOM
      1 C          -2.1334   -1.8582    0.2326 C.ar    1  LIG1       -0.0069
      2 C          -0.8663   -1.8694   -0.2794 C.ar    1  LIG1        0.0539
      3 C          -0.2693   -0.5613   -0.2947 C.ar    1  LIG1        0.1452
      4 C          -1.0937    0.4256    0.2200 C.ar    1  LIG1        0.0696
      5 S          -2.6246   -0.2740    0.7339 S.2     1  LIG1       -0.0912
      6 H          -2.8001   -2.6977    0.3682 H       1  LIG1        0.0706
      7 S          -0.0391   -3.3186   -0.8879 S.3     1  LIG1       -0.1386
      8 H           1.1315   -2.6888   -1.1102 H       1  LIG1        0.1072
      9 O           0.9656   -0.4078   -0.8332 O.3     1  LIG1       -0.5045
     10 H           1.4266    0.3454   -0.4140 H       1  LIG1        0.2922
     11 C          -0.8776    1.8586    0.2888 C.ar    1  LIG1        0.0468
     12 C           0.2505    2.5736    0.6327 C.ar    1  LIG1        0.0623
     13 C           0.0873    3.9942    0.5410 C.ar    1  LIG1        0.1458
     14 C          -1.1795    4.3791    0.1395 C.ar    1  LIG1        0.0701
     15 S          -2.1677    2.9580   -0.1731 S.2     1  LIG1       -0.0822
     16 S           1.7482    1.8418    1.2602 S.3     1  LIG1       -0.1380
     17 H           2.5424    2.8691    0.8976 H       1  LIG1        0.1072
     18 O           1.1219    4.7939    0.8955 O.3     1  LIG1       -0.5045
     19 H           1.0556    5.6491    0.4254 H       1  LIG1        0.2922
     20 C          -1.7578    5.7083    0.0579 C.ar    1  LIG1        0.0462
     21 C          -1.2244    6.8894   -0.4183 C.ar    1  LIG1        0.0617
     22 C          -2.1172    8.0052   -0.2937 C.ar    1  LIG1        0.1376
     23 C          -3.3234    7.6741    0.2553 C.ar    1  LIG1        0.0189
     24 S          -3.3909    5.9844    0.6534 S.2     1  LIG1       -0.0912
     25 H          -4.1737    8.3158    0.4389 H       1  LIG1        0.0731
     26 S           0.3576    7.0249   -1.2286 S.3     1  LIG1       -0.1380
     27 H           0.6031    8.2925   -0.8408 H       1  LIG1        0.1072
     28 O          -1.6968    9.2311   -0.7190 O.3     1  LIG1       -0.5051
     29 H          -2.3953    9.8812   -0.5693 H       1  LIG1        0.2922
@<TRIPOS>BOND
     1    26    27    1
     2    26    21    1
     3     8     7    1
     4     7     2    1
     5     9    10    1
     6     9     3    1
     7    28    29    1
     8    28    22    1
     9    21    22   ar
    10    21    20   ar
    11     3     2   ar
    12     3     4   ar
    13    22    23   ar
    14     2     1   ar
    15    15    14   ar
    16    15    11   ar
    17    20    14    1
    18    20    24   ar
    19    14    13   ar
    20     4    11    1
    21     4     5   ar
    22     1     6    1
    23     1     5   ar
    24    23    25    1
    25    23    24   ar
    26    11    12   ar
    27    19    18    1
    28    13    12   ar
    29    13    18    1
    30    12    16    1
    31    17    16    1
