@<TRIPOS>MOLECULE
mol_data/opt/b3lyp/geoms/mol2/5gf5gf5gf.out
 29 31 0 0 0
SMALL
GASTEIGER

@<TRIPOS>ATOM
      1 C          -2.1382   -1.8569    0.2306 C.ar    1  LIG1       -0.0069
      2 C          -0.8718   -1.8694   -0.2832 C.ar    1  LIG1        0.0539
      3 C          -0.2735   -0.5619   -0.2996 C.ar    1  LIG1        0.1452
      4 C          -1.0963    0.4259    0.2160 C.ar    1  LIG1        0.0696
      5 S          -2.6271   -0.2722    0.7323 S.2     1  LIG1       -0.0912
      6 H          -2.8055   -2.6957    0.3673 H       1  LIG1        0.0706
      7 S          -0.0469   -3.3196   -0.8926 S.3     1  LIG1       -0.1386
      8 H           1.1239   -2.6908   -1.1167 H       1  LIG1        0.1072
      9 O           0.9607   -0.4096   -0.8400 O.3     1  LIG1       -0.5045
     10 H           1.4232    0.3428   -0.4213 H       1  LIG1        0.2922
     11 C          -0.8786    1.8586    0.2846 C.ar    1  LIG1        0.0468
     12 C           0.2506    2.5725    0.6267 C.ar    1  LIG1        0.0623
     13 C           0.0889    3.9933    0.5350 C.ar    1  LIG1        0.1458
     14 C          -1.1781    4.3795    0.1353 C.ar    1  LIG1        0.0701
     15 S          -2.1684    2.9594   -0.1756 S.2     1  LIG1       -0.0822
     16 S           1.7486    1.8392    1.2520 S.3     1  LIG1       -0.1380
     17 H           2.5431    2.8661    0.8888 H       1  LIG1        0.1072
     18 O           1.1249    4.7919    0.8878 O.3     1  LIG1       -0.5045
     19 H           1.0585    5.6472    0.4179 H       1  LIG1        0.2922
     20 C          -1.7552    5.7093    0.0547 C.ar    1  LIG1        0.0462
     21 C          -1.2213    6.8899   -0.4222 C.ar    1  LIG1        0.0617
     22 C          -2.1128    8.0066   -0.2959 C.ar    1  LIG1        0.1376
     23 C          -3.3184    7.6768    0.2552 C.ar    1  LIG1        0.0189
     24 S          -3.3869    5.9870    0.6533 S.2     1  LIG1       -0.0912
     25 H          -4.1677    8.3193    0.4402 H       1  LIG1        0.0731
     26 S           0.3595    7.0238   -1.2351 S.3     1  LIG1       -0.1380
     27 H           0.6070    8.2910   -0.8474 H       1  LIG1        0.1072
     28 O          -1.6918    9.2321   -0.7217 O.3     1  LIG1       -0.5051
     29 H          -2.3896    9.8829   -0.5712 H       1  LIG1        0.2922
@<TRIPOS>BOND
     1    26    27    1
     2    26    21    1
     3     8     7    1
     4     7     2    1
     5     9    10    1
     6     9     3    1
     7    28    29    1
     8    28    22    1
     9    21    22   ar
    10    21    20   ar
    11     3     2   ar
    12     3     4   ar
    13    22    23   ar
    14     2     1   ar
    15    15    14   ar
    16    15    11   ar
    17    20    14    1
    18    20    24   ar
    19    14    13   ar
    20     4    11    1
    21     4     5   ar
    22     1     6    1
    23     1     5   ar
    24    23    25    1
    25    23    24   ar
    26    11    12   ar
    27    19    18    1
    28    13    12   ar
    29    13    18    1
    30    12    16    1
    31    17    16    1
