@<TRIPOS>MOLECULE
mol_data/opt/b3lyp/geoms/mol2/5gf5gf5gf5gf.out
 38 41 0 0 0
SMALL
GASTEIGER

@<TRIPOS>ATOM
      1 C          -2.1962   -1.8761    0.1979 C.ar    1  LIG1       -0.0069
      2 C          -0.8930   -1.9309   -0.2103 C.ar    1  LIG1        0.0539
      3 C          -0.2635   -0.6381   -0.2102 C.ar    1  LIG1        0.1452
      4 C          -1.1008    0.3813    0.2127 C.ar    1  LIG1        0.0696
      5 S          -2.6846   -0.2683    0.6205 S.2     1  LIG1       -0.0912
      6 H          -2.8933   -2.6954    0.2991 H       1  LIG1        0.0706
      7 S          -0.0550   -3.4160   -0.7084 S.3     1  LIG1       -0.1386
      8 H           1.1315   -2.8079   -0.9050 H       1  LIG1        0.1072
      9 O           1.0125   -0.5272   -0.6547 O.3     1  LIG1       -0.5045
     10 H           1.4603    0.2228   -0.2156 H       1  LIG1        0.2922
     11 C          -0.8538    1.8099    0.2609 C.ar    1  LIG1        0.0468
     12 C           0.2634    2.5061    0.6733 C.ar    1  LIG1        0.0623
     13 C           0.1479    3.9266    0.5299 C.ar    1  LIG1        0.1458
     14 C          -1.0724    4.3313    0.0156 C.ar    1  LIG1        0.0702
     15 S          -2.0738    2.9266   -0.3310 S.2     1  LIG1       -0.0822
     16 S           1.6840    1.7537    1.4400 S.3     1  LIG1       -0.1380
     17 H           2.5356    2.7471    1.1151 H       1  LIG1        0.1072
     18 O           1.1721    4.7071    0.9495 O.3     1  LIG1       -0.5045
     19 H           1.1623    5.5620    0.4746 H       1  LIG1        0.2922
     20 C          -1.6002    5.6704   -0.1557 C.ar    1  LIG1        0.0468
     21 C          -0.9881    6.8192   -0.6133 C.ar    1  LIG1        0.0623
     22 C          -1.8357    7.9739   -0.5973 C.ar    1  LIG1        0.1458
     23 C          -3.1158    7.7123   -0.1423 C.ar    1  LIG1        0.0701
     24 S          -3.2570    6.0200    0.3158 S.2     1  LIG1       -0.0822
     25 S           0.6584    6.8784   -1.2900 S.3     1  LIG1       -0.1380
     26 H           0.8448    8.1889   -1.0340 H       1  LIG1        0.1072
     27 O          -1.3458    9.1486   -1.0615 O.3     1  LIG1       -0.5045
     28 H          -1.8158    9.8945   -0.6371 H       1  LIG1        0.2922
     29 C          -4.2767    8.5832   -0.1033 C.ar    1  LIG1        0.0462
     30 C          -4.3880    9.9078    0.2701 C.ar    1  LIG1        0.0617
     31 C          -5.7194   10.4239    0.1360 C.ar    1  LIG1        0.1376
     32 C          -6.6152    9.4977   -0.3178 C.ar    1  LIG1        0.0189
     33 S          -5.8454    7.9684   -0.6117 S.2     1  LIG1       -0.0912
     34 H          -7.6760    9.6195   -0.4864 H       1  LIG1        0.0731
     35 S          -3.0627   10.8690    0.9745 S.3     1  LIG1       -0.1380
     36 H          -3.4861   12.0576    0.4996 H       1  LIG1        0.1072
     37 O          -5.9525   11.7273    0.4628 O.3     1  LIG1       -0.5051
     38 H          -6.8856   11.9336    0.3217 H       1  LIG1        0.2922
@<TRIPOS>BOND
     1    25    26    1
     2    25    21    1
     3    27    28    1
     4    27    22    1
     5     8     7    1
     6     7     2    1
     7     9    10    1
     8     9     3    1
     9    21    22   ar
    10    21    20   ar
    11    33    32   ar
    12    33    29   ar
    13    22    23   ar
    14    34    32    1
    15    15    14   ar
    16    15    11   ar
    17    32    31   ar
    18     2     3   ar
    19     2     1   ar
    20     3     4   ar
    21    20    14    1
    22    20    24   ar
    23    23    29    1
    24    23    24   ar
    25    29    30   ar
    26    14    13   ar
    27    31    30   ar
    28    31    37    1
    29     1     6    1
    30     1     5   ar
    31     4    11    1
    32     4     5   ar
    33    11    12   ar
    34    30    35    1
    35    38    37    1
    36    19    18    1
    37    36    35    1
    38    13    12   ar
    39    13    18    1
    40    12    16    1
    41    17    16    1
