@<TRIPOS>MOLECULE
mol_data/opt/b3lyp/geoms/mol2/5gf5gf5gf-5gf.out
 38 41 0 0 0
SMALL
GASTEIGER

@<TRIPOS>ATOM
      1 C          -2.2174   -1.8548   -0.2513 C.ar    1  LIG1       -0.0069
      2 C          -0.8863   -1.8911   -0.5595 C.ar    1  LIG1        0.0539
      3 C          -0.2546   -0.6075   -0.4145 C.ar    1  LIG1        0.1452
      4 C          -1.1192    0.3855    0.0157 C.ar    1  LIG1        0.0696
      5 S          -2.7326   -0.2777    0.2483 S.2     1  LIG1       -0.0912
      6 H          -2.9228   -2.6732   -0.2652 H       1  LIG1        0.0706
      7 S          -0.0172   -3.3421   -1.1026 S.3     1  LIG1       -0.1386
      8 H           1.1887   -2.7410   -1.1262 H       1  LIG1        0.1072
      9 O           1.0534   -0.4763   -0.7464 O.3     1  LIG1       -0.5045
     10 H           1.4662    0.2371   -0.2210 H       1  LIG1        0.2922
     11 C          -0.8707    1.8037    0.1922 C.ar    1  LIG1        0.0468
     12 C           0.2112    2.4543    0.7475 C.ar    1  LIG1        0.0623
     13 C           0.1151    3.8830    0.7033 C.ar    1  LIG1        0.1458
     14 C          -1.0564    4.3389    0.1232 C.ar    1  LIG1        0.0702
     15 S          -2.0314    2.9757   -0.4125 S.2     1  LIG1       -0.0822
     16 S           1.5620    1.6316    1.5666 S.3     1  LIG1       -0.1380
     17 H           2.4361    2.6440    1.3972 H       1  LIG1        0.1072
     18 O           1.1048    4.6182    1.2637 O.3     1  LIG1       -0.5045
     19 H           1.1437    5.5027    0.8473 H       1  LIG1        0.2922
     20 C          -1.5638    5.6932    0.0171 C.ar    1  LIG1        0.0468
     21 C          -0.9156    6.8678   -0.3068 C.ar    1  LIG1        0.0623
     22 C          -1.7588    8.0249   -0.2702 C.ar    1  LIG1        0.1458
     23 C          -3.0744    7.7395    0.0476 C.ar    1  LIG1        0.0701
     24 S          -3.2667    6.0110    0.3164 S.2     1  LIG1       -0.0822
     25 S           0.7848    6.9626   -0.8316 S.3     1  LIG1       -0.1380
     26 H           0.9782    8.2308   -0.4189 H       1  LIG1        0.1072
     27 O          -1.2062    9.2419   -0.4912 O.3     1  LIG1       -0.5045
     28 H          -1.8669    9.8431   -0.8902 H       1  LIG1        0.2922
     29 C          -4.1919    8.6434    0.2509 C.ar    1  LIG1        0.0462
     30 C          -4.5691    9.7686   -0.4548 C.ar    1  LIG1        0.0617
     31 C          -5.7286   10.4152    0.0881 C.ar    1  LIG1        0.1376
     32 C          -6.2386    9.7794    1.1846 C.ar    1  LIG1        0.0189
     33 S          -5.2969    8.3790    1.5947 S.2     1  LIG1       -0.0912
     34 H          -7.1115   10.0436    1.7650 H       1  LIG1        0.0731
     35 S          -3.7958   10.3138   -1.9648 S.3     1  LIG1       -0.1380
     36 H          -4.0683   11.6230   -1.7933 H       1  LIG1        0.1072
     37 O          -6.1917   11.5462   -0.5172 O.3     1  LIG1       -0.5051
     38 H          -6.9693   11.8703   -0.0446 H       1  LIG1        0.2922
@<TRIPOS>BOND
     1    35    36    1
     2    35    30    1
     3     8     7    1
     4     7     2    1
     5    28    27    1
     6    25    26    1
     7    25    21    1
     8     9     3    1
     9     9    10    1
    10     2     3   ar
    11     2     1   ar
    12    37    38    1
    13    37    31    1
    14    27    22    1
    15    30    31   ar
    16    30    29   ar
    17     3     4   ar
    18    15    14   ar
    19    15    11   ar
    20    21    22   ar
    21    21    20   ar
    22    22    23   ar
    23     6     1    1
    24     1     5   ar
    25     4    11    1
    26     4     5   ar
    27    20    14    1
    28    20    24   ar
    29    23    29    1
    30    23    24   ar
    31    31    32   ar
    32    14    13   ar
    33    11    12   ar
    34    29    33   ar
    35    13    12   ar
    36    13    18    1
    37    12    16    1
    38    19    18    1
    39    32    33   ar
    40    32    34    1
    41    17    16    1
