@<TRIPOS>MOLECULE
mol_data/opt/b3lyp/geoms/mol2/5gf5gf-.out
 20 21 0 0 0
SMALL
GASTEIGER

@<TRIPOS>ATOM
      1 C          -2.1062   -1.7699    0.4559 C.ar    1  LIG1       -0.0069
      2 C          -0.8210   -1.8075   -0.0072 C.ar    1  LIG1        0.0539
      3 C          -0.2643   -0.4936   -0.1870 C.ar    1  LIG1        0.1452
      4 C          -1.1371    0.5250    0.1535 C.ar    1  LIG1        0.0695
      5 S          -2.6620   -0.1487    0.7143 S.2     1  LIG1       -0.0912
      6 H          -2.7527   -2.6046    0.6856 H       1  LIG1        0.0706
      7 S           0.0770   -3.2968   -0.3699 S.3     1  LIG1       -0.1386
      8 H           1.2173   -2.6560   -0.6946 H       1  LIG1        0.1072
      9 O           0.9867   -0.3681   -0.6969 O.3     1  LIG1       -0.5045
     10 H           1.4120    0.4358   -0.3377 H       1  LIG1        0.2922
     11 C          -0.9662    1.9618    0.0218 C.ar    1  LIG1        0.0462
     12 C           0.1215    2.7597    0.3122 C.ar    1  LIG1        0.0617
     13 C          -0.0943    4.1449    0.0077 C.ar    1  LIG1        0.1376
     14 C          -1.3388    4.4008   -0.4941 C.ar    1  LIG1        0.0189
     15 S          -2.2748    2.9428   -0.6258 S.2     1  LIG1       -0.0912
     16 H          -1.7606    5.3534   -0.7825 H       1  LIG1        0.0731
     17 S           1.6090    2.1783    1.1032 S.3     1  LIG1       -0.1380
     18 H           2.4301    3.0838    0.5345 H       1  LIG1        0.1072
     19 O           0.9146    5.0331    0.2420 O.3     1  LIG1       -0.5051
     20 H           0.6310    5.9184   -0.0201 H       1  LIG1        0.2922
@<TRIPOS>BOND
     1    16    14    1
     2     9    10    1
     3     9     3    1
     4     8     7    1
     5    15    14   ar
     6    15    11   ar
     7    14    13   ar
     8     7     2    1
     9     3     2   ar
    10     3     4   ar
    11    20    19    1
    12     2     1   ar
    13    13    19    1
    14    13    12   ar
    15    11     4    1
    16    11    12   ar
    17     4     5   ar
    18    12    17    1
    19     1     6    1
    20     1     5   ar
    21    18    17    1
