@<TRIPOS>MOLECULE
mol_data/opt/b3lyp/geoms/mol2/5gf5gf-5gf.out
 29 31 0 0 0
SMALL
GASTEIGER

@<TRIPOS>ATOM
      1 C          -1.9669   -1.7977    0.9993 C.ar    1  LIG1       -0.0069
      2 C          -0.9296   -1.8825    0.1137 C.ar    1  LIG1        0.0539
      3 C          -0.3752   -0.5950   -0.2071 C.ar    1  LIG1        0.1452
      4 C          -0.9975    0.4515    0.4528 C.ar    1  LIG1        0.0696
      5 S          -2.2790   -0.1649    1.4890 S.2     1  LIG1       -0.0912
      6 H          -2.5516   -2.6061    1.4144 H       1  LIG1        0.0706
      7 S          -0.3286   -3.3978   -0.5928 S.3     1  LIG1       -0.1386
      8 H           0.6874   -2.8100   -1.2548 H       1  LIG1        0.1072
      9 O           0.6220   -0.5160   -1.1224 O.3     1  LIG1       -0.5045
     10 H           1.1953    0.2523   -0.9301 H       1  LIG1        0.2922
     11 C          -0.7802    1.8798    0.3129 C.ar    1  LIG1        0.0468
     12 C           0.3947    2.5968    0.2246 C.ar    1  LIG1        0.0623
     13 C           0.2030    4.0061    0.0522 C.ar    1  LIG1        0.1458
     14 C          -1.1272    4.3846    0.0416 C.ar    1  LIG1        0.0701
     15 S          -2.1558    2.9700    0.2365 S.2     1  LIG1       -0.0822
     16 S           2.0172    1.8829    0.4091 S.3     1  LIG1       -0.1380
     17 H           2.6561    2.8276   -0.3086 H       1  LIG1        0.1072
     18 O           1.2897    4.7959   -0.1252 O.3     1  LIG1       -0.5045
     19 H           1.1108    5.6947    0.2168 H       1  LIG1        0.2922
     20 C          -1.7120    5.6940   -0.1843 C.ar    1  LIG1        0.0462
     21 C          -1.3277    6.9356    0.2810 C.ar    1  LIG1        0.0617
     22 C          -2.1557    8.0026   -0.2018 C.ar    1  LIG1        0.1376
     23 C          -3.1699    7.5763   -1.0118 C.ar    1  LIG1        0.0189
     24 S          -3.1247    5.8528   -1.2219 S.2     1  LIG1       -0.0912
     25 H          -3.9408    8.1678   -1.4855 H       1  LIG1        0.0731
     26 S          -0.0214    7.2059    1.4627 S.3     1  LIG1       -0.1380
     27 H           0.2947    8.4444    1.0340 H       1  LIG1        0.1072
     28 O          -1.8675    9.2800    0.1804 O.3     1  LIG1       -0.5051
     29 H          -2.5010    9.8882   -0.2220 H       1  LIG1        0.2922
@<TRIPOS>BOND
     1    25    23    1
     2     8     7    1
     3    24    23   ar
     4    24    20   ar
     5     9    10    1
     6     9     3    1
     7    23    22   ar
     8     7     2    1
     9    17    16    1
    10    29    28    1
    11     3     2   ar
    12     3     4   ar
    13    22    28    1
    14    22    21   ar
    15    20    14    1
    16    20    21   ar
    17    18    13    1
    18    18    19    1
    19    14    13   ar
    20    14    15   ar
    21    13    12   ar
    22     2     1   ar
    23    12    11   ar
    24    12    16    1
    25    15    11   ar
    26    21    26    1
    27    11     4    1
    28     4     5   ar
    29     1     6    1
    30     1     5   ar
    31    27    26    1
