@<TRIPOS>MOLECULE
mol_data/opt/b3lyp/geoms/mol2/5gf5gf-5gf-.out
 29 31 0 0 0
SMALL
GASTEIGER

@<TRIPOS>ATOM
      1 C          -1.9877   -1.8052    0.9386 C.ar    1  LIG1       -0.0069
      2 C          -0.9288   -1.8834    0.0783 C.ar    1  LIG1        0.0539
      3 C          -0.3676   -0.5933   -0.2200 C.ar    1  LIG1        0.1452
      4 C          -1.0069    0.4483    0.4314 C.ar    1  LIG1        0.0696
      5 S          -2.3128   -0.1759    1.4317 S.2     1  LIG1       -0.0912
      6 H          -2.5818   -2.6166    1.3336 H       1  LIG1        0.0706
      7 S          -0.3090   -3.3933   -0.6231 S.3     1  LIG1       -0.1386
      8 H           0.7198   -2.7996   -1.2595 H       1  LIG1        0.1072
      9 O           0.6517   -0.5074   -1.1101 O.3     1  LIG1       -0.5045
     10 H           1.2203    0.2592   -0.8977 H       1  LIG1        0.2922
     11 C          -0.7869    1.8776    0.3070 C.ar    1  LIG1        0.0468
     12 C           0.3894    2.5958    0.2533 C.ar    1  LIG1        0.0623
     13 C           0.2011    4.0062    0.0858 C.ar    1  LIG1        0.1458
     14 C          -1.1287    4.3840    0.0445 C.ar    1  LIG1        0.0701
     15 S          -2.1609    2.9676    0.2040 S.2     1  LIG1       -0.0822
     16 S           2.0073    1.8815    0.4723 S.3     1  LIG1       -0.1380
     17 H           2.6627    2.8320   -0.2226 H       1  LIG1        0.1072
     18 O           1.2912    4.7978   -0.0592 O.3     1  LIG1       -0.5045
     19 H           1.1040    5.6936    0.2861 H       1  LIG1        0.2922
     20 C          -1.7087    5.6947   -0.1858 C.ar    1  LIG1        0.0462
     21 C          -1.3367    6.9332    0.2975 C.ar    1  LIG1        0.0617
     22 C          -2.1535    8.0033   -0.1976 C.ar    1  LIG1        0.1376
     23 C          -3.1474    7.5822   -1.0350 C.ar    1  LIG1        0.0189
     24 S          -3.0960    5.8603   -1.2563 S.2     1  LIG1       -0.0912
     25 H          -3.9071    8.1767   -1.5229 H       1  LIG1        0.0731
     26 S          -0.0597    7.1959    1.5126 S.3     1  LIG1       -0.1380
     27 H           0.2662    8.4373    1.1004 H       1  LIG1        0.1072
     28 O          -1.8754    9.2780    0.2005 O.3     1  LIG1       -0.5051
     29 H          -2.5000    9.8886   -0.2117 H       1  LIG1        0.2922
@<TRIPOS>BOND
     1    25    23    1
     2     8     7    1
     3    24    23   ar
     4    24    20   ar
     5     9    10    1
     6     9     3    1
     7    23    22   ar
     8     7     2    1
     9    17    16    1
    10     3     2   ar
    11     3     4   ar
    12    29    28    1
    13    22    28    1
    14    22    21   ar
    15    20    14    1
    16    20    21   ar
    17    18    13    1
    18    18    19    1
    19    14    13   ar
    20    14    15   ar
    21     2     1   ar
    22    13    12   ar
    23    15    11   ar
    24    12    11   ar
    25    12    16    1
    26    21    26    1
    27    11     4    1
    28     4     5   ar
    29     1     6    1
    30     1     5   ar
    31    27    26    1
