@<TRIPOS>MOLECULE
mol_data/opt/b3lyp/geoms/mol2/5gf5gf-5gf5gf.out
 38 41 0 0 0
SMALL
GASTEIGER

@<TRIPOS>ATOM
      1 C          -1.6794   -1.7318    1.5968 C.ar    1  LIG1       -0.0069
      2 C          -1.0304   -1.8769    0.4029 C.ar    1  LIG1        0.0539
      3 C          -0.5601   -0.6233   -0.1219 C.ar    1  LIG1        0.1452
      4 C          -0.8524    0.4580    0.6926 C.ar    1  LIG1        0.0696
      5 S          -1.7135   -0.0827    2.1285 S.2     1  LIG1       -0.0912
      6 H          -2.1186   -2.5051    2.2104 H       1  LIG1        0.0706
      7 S          -0.8036   -3.4247   -0.4387 S.3     1  LIG1       -0.1386
      8 H          -0.0328   -2.9042   -1.4139 H       1  LIG1        0.1072
      9 O           0.0505   -0.6030   -1.3322 O.3     1  LIG1       -0.5045
     10 H           0.6899    0.1354   -1.3740 H       1  LIG1        0.2922
     11 C          -0.6254    1.8713    0.4521 C.ar    1  LIG1        0.0468
     12 C           0.4784    2.5197   -0.0610 C.ar    1  LIG1        0.0623
     13 C           0.3117    3.9365   -0.1903 C.ar    1  LIG1        0.1458
     14 C          -0.9156    4.3908    0.2603 C.ar    1  LIG1        0.0702
     15 S          -1.8820    3.0372    0.8377 S.2     1  LIG1       -0.0822
     16 S           2.0216    1.7149   -0.4447 S.3     1  LIG1       -0.1380
     17 H           2.4179    2.6262   -1.3549 H       1  LIG1        0.1072
     18 O           1.3038    4.6582   -0.7641 O.3     1  LIG1       -0.5045
     19 H           1.3019    5.5739   -0.4194 H       1  LIG1        0.2922
     20 C          -1.4717    5.7294    0.2203 C.ar    1  LIG1        0.0468
     21 C          -0.8811    6.9488    0.4827 C.ar    1  LIG1        0.0623
     22 C          -1.7535    8.0687    0.2927 C.ar    1  LIG1        0.1458
     23 C          -3.0361    7.7119   -0.0830 C.ar    1  LIG1        0.0701
     24 S          -3.1587    5.9619   -0.2153 S.2     1  LIG1       -0.0822
     25 S           0.7767    7.1455    1.1054 S.3     1  LIG1       -0.1380
     26 H           0.9515    8.3891    0.6166 H       1  LIG1        0.1072
     27 O          -1.2532    9.3186    0.4437 O.3     1  LIG1       -0.5045
     28 H          -1.9556    9.9271    0.7498 H       1  LIG1        0.2922
     29 C          -4.1638    8.5571   -0.4315 C.ar    1  LIG1        0.0462
     30 C          -4.6194    9.7221    0.1529 C.ar    1  LIG1        0.0617
     31 C          -5.7578   10.2829   -0.5154 C.ar    1  LIG1        0.1376
     32 C          -6.1746    9.5438   -1.5863 C.ar    1  LIG1        0.0189
     33 S          -5.1680    8.1476   -1.8174 S.2     1  LIG1       -0.0912
     34 H          -7.0137    9.7305   -2.2417 H       1  LIG1        0.0731
     35 S          -3.9644   10.4140    1.6586 S.3     1  LIG1       -0.1380
     36 H          -4.2674   11.6940    1.3634 H       1  LIG1        0.1072
     37 O          -6.2923   11.4429   -0.0371 O.3     1  LIG1       -0.5051
     38 H          -7.0443   11.7024   -0.5850 H       1  LIG1        0.2922
@<TRIPOS>BOND
     1    34    32    1
     2    33    32   ar
     3    33    29   ar
     4    32    31   ar
     5     8     7    1
     6    10     9    1
     7    17    16    1
     8     9     3    1
     9    18    19    1
    10    18    13    1
    11    38    37    1
    12    31    37    1
    13    31    30   ar
    14    16    12    1
    15     7     2    1
    16    29    23    1
    17    29    30   ar
    18    24    23   ar
    19    24    20   ar
    20    13    12   ar
    21    13    14   ar
    22     3     2   ar
    23     3     4   ar
    24    23    22   ar
    25    12    11   ar
    26    30    35    1
    27    20    14    1
    28    20    21   ar
    29    14    15   ar
    30    22    27    1
    31    22    21   ar
    32     2     1   ar
    33    27    28    1
    34    11     4    1
    35    11    15   ar
    36    21    25    1
    37    26    25    1
    38     4     5   ar
    39    36    35    1
    40     1     5   ar
    41     1     6    1
