@<TRIPOS>MOLECULE
mol_data/opt/b3lyp/geoms/mol2/5gf5gf.out
 20 21 0 0 0
SMALL
GASTEIGER

@<TRIPOS>ATOM
      1 C          -2.1112   -1.7658    0.4704 C.ar    1  LIG1       -0.0069
      2 C          -0.8212   -1.8074    0.0212 C.ar    1  LIG1        0.0539
      3 C          -0.2628   -0.4951   -0.1649 C.ar    1  LIG1        0.1452
      4 C          -1.1393    0.5264    0.1569 C.ar    1  LIG1        0.0695
      5 S          -2.6701   -0.1424    0.7073 S.2     1  LIG1       -0.0912
      6 H          -2.7598   -2.5984    0.7014 H       1  LIG1        0.0706
      7 S           0.0797   -3.2997   -0.3209 S.3     1  LIG1       -0.1386
      8 H           1.2299   -2.6631   -0.6181 H       1  LIG1        0.1072
      9 O           0.9940   -0.3740   -0.6616 O.3     1  LIG1       -0.5045
     10 H           1.4146    0.4337   -0.3054 H       1  LIG1        0.2922
     11 C          -0.9668    1.9619    0.0132 C.ar    1  LIG1        0.0462
     12 C           0.1176    2.7624    0.3085 C.ar    1  LIG1        0.0617
     13 C          -0.0943    4.1448   -0.0115 C.ar    1  LIG1        0.1376
     14 C          -1.3328    4.3961   -0.5300 C.ar    1  LIG1        0.0189
     15 S          -2.2678    2.9370   -0.6585 S.2     1  LIG1       -0.0912
     16 H          -1.7510    5.3460   -0.8324 H       1  LIG1        0.0731
     17 S           1.5953    2.1879    1.1229 S.3     1  LIG1       -0.1380
     18 H           2.4234    3.0891    0.5575 H       1  LIG1        0.1072
     19 O           0.9123    5.0348    0.2258 O.3     1  LIG1       -0.5051
     20 H           0.6305    5.9185   -0.0438 H       1  LIG1        0.2922
@<TRIPOS>BOND
     1    16    14    1
     2     9    10    1
     3     9     3    1
     4    15    14   ar
     5    15    11   ar
     6     8     7    1
     7    14    13   ar
     8     7     2    1
     9     3     2   ar
    10     3     4   ar
    11    20    19    1
    12    13    19    1
    13    13    12   ar
    14    11     4    1
    15    11    12   ar
    16     2     1   ar
    17     4     5   ar
    18    12    17    1
    19     1     6    1
    20     1     5   ar
    21    18    17    1
