@<TRIPOS>MOLECULE
mol_data/opt/b3lyp/geoms/mol2/5gf5gf5gf5gf-.out
 38 41 0 0 0
SMALL
GASTEIGER

@<TRIPOS>ATOM
      1 C          -2.1885   -1.8766    0.2083 C.ar    1  LIG1       -0.0069
      2 C          -0.8879   -1.9305   -0.2081 C.ar    1  LIG1        0.0539
      3 C          -0.2599   -0.6370   -0.2138 C.ar    1  LIG1        0.1452
      4 C          -1.0957    0.3821    0.2127 C.ar    1  LIG1        0.0696
      5 S          -2.6763   -0.2686    0.6311 S.2     1  LIG1       -0.0912
      6 H          -2.8841   -2.6965    0.3153 H       1  LIG1        0.0706
      7 S          -0.0517   -3.4151   -0.7102 S.3     1  LIG1       -0.1386
      8 H           1.1353   -2.8078   -0.9060 H       1  LIG1        0.1072
      9 O           1.0135   -0.5255   -0.6658 O.3     1  LIG1       -0.5045
     10 H           1.4627    0.2260   -0.2310 H       1  LIG1        0.2922
     11 C          -0.8499    1.8111    0.2571 C.ar    1  LIG1        0.0468
     12 C           0.2688    2.5089    0.6624 C.ar    1  LIG1        0.0623
     13 C           0.1512    3.9292    0.5172 C.ar    1  LIG1        0.1458
     14 C          -1.0721    4.3318    0.0087 C.ar    1  LIG1        0.0702
     15 S          -2.0741    2.9257   -0.3302 S.2     1  LIG1       -0.0822
     16 S           1.6947    1.7591    1.4220 S.3     1  LIG1       -0.1380
     17 H           2.5432    2.7531    1.0910 H       1  LIG1        0.1072
     18 O           1.1768    4.7114    0.9301 O.3     1  LIG1       -0.5045
     19 H           1.1639    5.5653    0.4535 H       1  LIG1        0.2922
     20 C          -1.6020    5.6701   -0.1619 C.ar    1  LIG1        0.0468
     21 C          -0.9934    6.8187   -0.6250 C.ar    1  LIG1        0.0623
     22 C          -1.8418    7.9728   -0.6061 C.ar    1  LIG1        0.1458
     23 C          -3.1191    7.7109   -0.1432 C.ar    1  LIG1        0.0701
     24 S          -3.2564    6.0194    0.3185 S.2     1  LIG1       -0.0822
     25 S           0.6492    6.8780   -1.3109 S.3     1  LIG1       -0.1380
     26 H           0.8358    8.1892   -1.0582 H       1  LIG1        0.1072
     27 O          -1.3556    9.1470   -1.0753 O.3     1  LIG1       -0.5045
     28 H          -1.8234    9.8933   -0.6492 H       1  LIG1        0.2922
     29 C          -4.2803    8.5811   -0.0990 C.ar    1  LIG1        0.0462
     30 C          -4.3903    9.9061    0.2731 C.ar    1  LIG1        0.0617
     31 C          -5.7227   10.4214    0.1456 C.ar    1  LIG1        0.1376
     32 C          -6.6205    9.4940   -0.3018 C.ar    1  LIG1        0.0189
     33 S          -5.8515    7.9647   -0.5978 S.2     1  LIG1       -0.0912
     34 H          -7.6823    9.6149   -0.4647 H       1  LIG1        0.0731
     35 S          -3.0615   10.8693    0.9684 S.3     1  LIG1       -0.1380
     36 H          -3.4894   12.0571    0.4955 H       1  LIG1        0.1072
     37 O          -5.9547   11.7251    0.4717 O.3     1  LIG1       -0.5051
     38 H          -6.8888   11.9305    0.3364 H       1  LIG1        0.2922
@<TRIPOS>BOND
     1    25    26    1
     2    25    21    1
     3    27    28    1
     4    27    22    1
     5     8     7    1
     6     7     2    1
     7     9    10    1
     8     9     3    1
     9    21    22   ar
    10    21    20   ar
    11    22    23   ar
    12    33    32   ar
    13    33    29   ar
    14    34    32    1
    15    15    14   ar
    16    15    11   ar
    17    32    31   ar
    18     3     2   ar
    19     3     4   ar
    20     2     1   ar
    21    20    14    1
    22    20    24   ar
    23    23    29    1
    24    23    24   ar
    25    29    30   ar
    26    14    13   ar
    27    31    30   ar
    28    31    37    1
    29     1     6    1
    30     1     5   ar
    31     4    11    1
    32     4     5   ar
    33    11    12   ar
    34    30    35    1
    35    38    37    1
    36    19    18    1
    37    36    35    1
    38    13    12   ar
    39    13    18    1
    40    12    16    1
    41    17    16    1
