@<TRIPOS>MOLECULE
mol_data/opt/b3lyp/geoms/mol2/5gf5gf-5gf-5gf.out
 38 41 0 0 0
SMALL
GASTEIGER

@<TRIPOS>ATOM
      1 C          -1.7606   -1.8467    1.1680 C.ar    1  LIG1       -0.0069
      2 C          -0.9942   -1.8959    0.0377 C.ar    1  LIG1        0.0539
      3 C          -0.4943   -0.6024   -0.3432 C.ar    1  LIG1        0.1452
      4 C          -0.8835    0.4121    0.5156 C.ar    1  LIG1        0.0696
      5 S          -1.8729   -0.2428    1.8148 S.2     1  LIG1       -0.0912
      6 H          -2.2463   -2.6676    1.6756 H       1  LIG1        0.0706
      7 S          -0.6573   -3.3740   -0.8883 S.3     1  LIG1       -0.1386
      8 H           0.1790   -2.7680   -1.7541 H       1  LIG1        0.1072
      9 O           0.2329   -0.4856   -1.4814 O.3     1  LIG1       -0.5045
     10 H           0.8655    0.2560   -1.4012 H       1  LIG1        0.2922
     11 C          -0.6582    1.8418    0.4061 C.ar    1  LIG1        0.0468
     12 C           0.4779    2.5401    0.0526 C.ar    1  LIG1        0.0623
     13 C           0.3000    3.9610    0.0221 C.ar    1  LIG1        0.1458
     14 C          -0.9718    4.3658    0.3885 C.ar    1  LIG1        0.0702
     15 S          -1.9652    2.9607    0.7609 S.2     1  LIG1       -0.0822
     16 S           2.0645    1.7843   -0.2442 S.3     1  LIG1       -0.1380
     17 H           2.5166    2.7502   -1.0680 H       1  LIG1        0.1072
     18 O           1.3298    4.7359   -0.3943 O.3     1  LIG1       -0.5045
     19 H           1.2747    5.6242    0.0108 H       1  LIG1        0.2922
     20 C          -1.5441    5.6973    0.4090 C.ar    1  LIG1        0.0468
     21 C          -0.9978    6.8954    0.8214 C.ar    1  LIG1        0.0623
     22 C          -1.8666    8.0205    0.6435 C.ar    1  LIG1        0.1458
     23 C          -3.0975    7.6877    0.1064 C.ar    1  LIG1        0.0701
     24 S          -3.1618    5.9622   -0.2255 S.2     1  LIG1       -0.0822
     25 S           0.5846    7.0536    1.6222 S.3     1  LIG1       -0.1380
     26 H           0.7515    8.3510    1.2956 H       1  LIG1        0.1072
     27 O          -1.4445    9.2412    1.0528 O.3     1  LIG1       -0.5045
     28 H          -1.8942    9.9391    0.5355 H       1  LIG1        0.2922
     29 C          -4.2689    8.5202   -0.1000 C.ar    1  LIG1        0.0462
     30 C          -4.3750    9.8062   -0.5909 C.ar    1  LIG1        0.0617
     31 C          -5.7233   10.2949   -0.6111 C.ar    1  LIG1        0.1376
     32 C          -6.6352    9.3844   -0.1573 C.ar    1  LIG1        0.0189
     33 S          -5.8619    7.9061    0.3266 S.2     1  LIG1       -0.0912
     34 H          -7.7087    9.4905   -0.0879 H       1  LIG1        0.0731
     35 S          -3.0140   10.7428   -1.2594 S.3     1  LIG1       -0.1380
     36 H          -3.5089   11.9544   -0.9361 H       1  LIG1        0.1072
     37 O          -5.9547   11.5604   -1.0639 O.3     1  LIG1       -0.5051
     38 H          -6.9002   11.7525   -1.0163 H       1  LIG1        0.2922
@<TRIPOS>BOND
     1     8     7    1
     2     9    10    1
     3     9     3    1
     4    35    36    1
     5    35    30    1
     6    17    16    1
     7    37    38    1
     8    37    31    1
     9     7     2    1
    10    31    30   ar
    11    31    32   ar
    12    30    29   ar
    13    18    19    1
    14    18    13    1
    15     3     2   ar
    16     3     4   ar
    17    16    12    1
    18    24    23   ar
    19    24    20   ar
    20    32    34    1
    21    32    33   ar
    22    29    23    1
    23    29    33   ar
    24    13    12   ar
    25    13    14   ar
    26     2     1   ar
    27    12    11   ar
    28    23    22   ar
    29    14    20    1
    30    14    15   ar
    31    11     4    1
    32    11    15   ar
    33    20    21   ar
    34     4     5   ar
    35    28    27    1
    36    22    21   ar
    37    22    27    1
    38    21    25    1
    39     1     6    1
    40     1     5   ar
    41    26    25    1
