@<TRIPOS>MOLECULE
mol_data/opt/b3lyp/geoms/mol2/5gf5gf5gf-5gf-.out
 38 41 0 0 0
SMALL
GASTEIGER

@<TRIPOS>ATOM
      1 C          -2.2216   -1.8547   -0.2409 C.ar    1  LIG1       -0.0069
      2 C          -0.8913   -1.8926   -0.5521 C.ar    1  LIG1        0.0539
      3 C          -0.2584   -0.6092   -0.4110 C.ar    1  LIG1        0.1452
      4 C          -1.1213    0.3854    0.0193 C.ar    1  LIG1        0.0696
      5 S          -2.7346   -0.2763    0.2569 S.2     1  LIG1       -0.0912
      6 H          -2.9276   -2.6726   -0.2516 H       1  LIG1        0.0706
      7 S          -0.0244   -3.3452   -1.0942 S.3     1  LIG1       -0.1386
      8 H           1.1817   -2.7448   -1.1225 H       1  LIG1        0.1072
      9 O           1.0490   -0.4796   -0.7461 O.3     1  LIG1       -0.5045
     10 H           1.4633    0.2351   -0.2237 H       1  LIG1        0.2922
     11 C          -0.8714    1.8037    0.1927 C.ar    1  LIG1        0.0468
     12 C           0.2121    2.4547    0.7441 C.ar    1  LIG1        0.0623
     13 C           0.1165    3.8835    0.6977 C.ar    1  LIG1        0.1458
     14 C          -1.0562    4.3389    0.1197 C.ar    1  LIG1        0.0702
     15 S          -2.0331    2.9752   -0.4112 S.2     1  LIG1       -0.0822
     16 S           1.5647    1.6331    1.5612 S.3     1  LIG1       -0.1380
     17 H           2.4387    2.6449    1.3878 H       1  LIG1        0.1072
     18 O           1.1078    4.6193    1.2545 O.3     1  LIG1       -0.5045
     19 H           1.1466    5.5027    0.8357 H       1  LIG1        0.2922
     20 C          -1.5632    5.6933    0.0122 C.ar    1  LIG1        0.0468
     21 C          -0.9151    6.8668   -0.3155 C.ar    1  LIG1        0.0623
     22 C          -1.7577    8.0245   -0.2793 C.ar    1  LIG1        0.1458
     23 C          -3.0727    7.7403    0.0420 C.ar    1  LIG1        0.0701
     24 S          -3.2652    6.0124    0.3145 S.2     1  LIG1       -0.0822
     25 S           0.7841    6.9599   -0.8443 S.3     1  LIG1       -0.1380
     26 H           0.9795    8.2284   -0.4336 H       1  LIG1        0.1072
     27 O          -1.2050    9.2407   -0.5040 O.3     1  LIG1       -0.5045
     28 H          -1.8665    9.8417   -0.9022 H       1  LIG1        0.2922
     29 C          -4.1894    8.6451    0.2461 C.ar    1  LIG1        0.0462
     30 C          -4.5678    9.7690   -0.4611 C.ar    1  LIG1        0.0617
     31 C          -5.7257   10.4171    0.0832 C.ar    1  LIG1        0.1376
     32 C          -6.2335    9.7837    1.1822 C.ar    1  LIG1        0.0189
     33 S          -5.2914    8.3838    1.5929 S.2     1  LIG1       -0.0912
     34 H          -7.1049   10.0494    1.7641 H       1  LIG1        0.0731
     35 S          -3.7975   10.3111   -1.9737 S.3     1  LIG1       -0.1380
     36 H          -4.0690   11.6207   -1.8041 H       1  LIG1        0.1072
     37 O          -6.1897   11.5471   -0.5232 O.3     1  LIG1       -0.5051
     38 H          -6.9664   11.8723   -0.0497 H       1  LIG1        0.2922
@<TRIPOS>BOND
     1    35    36    1
     2    35    30    1
     3     8     7    1
     4     7     2    1
     5    28    27    1
     6    25    26    1
     7    25    21    1
     8     9     3    1
     9     9    10    1
    10     2     3   ar
    11     2     1   ar
    12    37    38    1
    13    37    31    1
    14    27    22    1
    15    30    31   ar
    16    30    29   ar
    17    15    14   ar
    18    15    11   ar
    19     3     4   ar
    20    21    22   ar
    21    21    20   ar
    22    22    23   ar
    23     6     1    1
    24     1     5   ar
    25    20    14    1
    26    20    24   ar
    27     4    11    1
    28     4     5   ar
    29    23    29    1
    30    23    24   ar
    31    31    32   ar
    32    14    13   ar
    33    11    12   ar
    34    29    33   ar
    35    13    12   ar
    36    13    18    1
    37    12    16    1
    38    19    18    1
    39    32    33   ar
    40    32    34    1
    41    17    16    1
