@<TRIPOS>MOLECULE
mol_data/opt/b3lyp/geoms/mol2/5gg.out
 11 11 0 0 0
SMALL
GASTEIGER

@<TRIPOS>ATOM
      1 C          -2.1618   -1.6942    0.0001 C.ar    1  LIG1       -0.0101
      2 C          -0.7928   -1.6639   -0.0002 C.ar    1  LIG1        0.0249
      3 C          -0.2792   -0.3149   -0.0001 C.ar    1  LIG1        0.0249
      4 C          -1.2774    0.6221    0.0003 C.ar    1  LIG1       -0.0101
      5 S          -2.8495   -0.1057    0.0006 S.2     1  LIG1       -0.1028
      6 H          -2.8019   -2.5648    0.0001 H       1  LIG1        0.0705
      7 H          -1.1780    1.6984    0.0005 H       1  LIG1        0.0705
      8 S           0.1664   -3.1691   -0.0008 S.3     1  LIG1       -0.1410
      9 H           1.3836   -2.5936   -0.0012 H       1  LIG1        0.1072
     10 S           1.4712    0.0220   -0.0004 S.3     1  LIG1       -0.1410
     11 H           1.3651    1.3636   -0.0006 H       1  LIG1        0.1072
@<TRIPOS>BOND
     1     9     8    1
     2     8     2    1
     3    11    10    1
     4    10     3    1
     5     2     3   ar
     6     2     1   ar
     7     3     4   ar
     8     6     1    1
     9     1     5   ar
    10     4     7    1
    11     4     5   ar
