@<TRIPOS>MOLECULE
mol_data/opt/b3lyp/geoms/mol2/5gg5gg-5gg.out
 29 31 0 0 0
SMALL
GASTEIGER

@<TRIPOS>ATOM
      1 C          -1.3986   -1.6901    1.6120 C.ar    1  LIG1       -0.0095
      2 C          -0.7964   -1.8235    0.3902 C.ar    1  LIG1        0.0256
      3 C          -0.4235   -0.5568   -0.1859 C.ar    1  LIG1        0.0333
      4 C          -0.7597    0.5137    0.6161 C.ar    1  LIG1        0.0412
      5 S          -1.5259   -0.0406    2.1003 S.2     1  LIG1       -0.0939
      6 H          -1.7748   -2.4840    2.2414 H       1  LIG1        0.0705
      7 S          -0.4427   -3.4172   -0.3298 S.3     1  LIG1       -0.1410
      8 H          -1.2175   -3.2878   -1.4295 H       1  LIG1        0.1072
      9 S           0.3475   -0.4847   -1.7794 S.3     1  LIG1       -0.1404
     10 H           0.3639    0.8620   -1.8462 H       1  LIG1        0.1072
     11 C          -0.5738    1.9419    0.3652 C.ar    1  LIG1        0.0418
     12 C           0.5917    2.6823    0.3903 C.ar    1  LIG1        0.0339
     13 C           0.3866    4.0720    0.0778 C.ar    1  LIG1        0.0339
     14 C          -0.9350    4.3814   -0.1751 C.ar    1  LIG1        0.0418
     15 S          -1.9442    2.9569   -0.0244 S.2     1  LIG1       -0.0849
     16 S           2.1505    1.9682    0.8684 S.3     1  LIG1       -0.1404
     17 H           2.9031    2.6483   -0.0228 H       1  LIG1        0.1072
     18 S           1.7583    5.1981    0.0206 S.3     1  LIG1       -0.1404
     19 H           1.0687    6.2088   -0.5459 H       1  LIG1        0.1072
     20 C          -1.5279    5.6689   -0.5245 C.ar    1  LIG1        0.0412
     21 C          -1.6703    6.7994    0.2565 C.ar    1  LIG1        0.0333
     22 C          -2.3409    7.8735   -0.4407 C.ar    1  LIG1        0.0256
     23 C          -2.7165    7.5240   -1.7106 C.ar    1  LIG1       -0.0095
     24 S          -2.2485    5.9151   -2.1124 S.2     1  LIG1       -0.0939
     25 H          -3.2381    8.1440   -2.4259 H       1  LIG1        0.0705
     26 S          -1.0927    6.8814    1.9299 S.3     1  LIG1       -0.1404
     27 H          -1.7875    8.0049    2.2178 H       1  LIG1        0.1072
     28 S          -2.7819    9.4510    0.2699 S.3     1  LIG1       -0.1410
     29 H          -1.5524   10.0136    0.2491 H       1  LIG1        0.1072
@<TRIPOS>BOND
     1    25    23    1
     2    24    23   ar
     3    24    20   ar
     4    10     9    1
     5     9     3    1
     6    23    22   ar
     7     8     7    1
     8    19    18    1
     9    20    14    1
    10    20    21   ar
    11    22    21   ar
    12    22    28    1
    13     7     2    1
    14     3     2   ar
    15     3     4   ar
    16    14    15   ar
    17    14    13   ar
    18    15    11   ar
    19    17    16    1
    20    18    13    1
    21    13    12   ar
    22    29    28    1
    23    21    26    1
    24    11    12   ar
    25    11     4    1
    26     2     1   ar
    27    12    16    1
    28     4     5   ar
    29     1     5   ar
    30     1     6    1
    31    26    27    1
