@<TRIPOS>MOLECULE
mol_data/opt/b3lyp/geoms/mol2/5gg5gg5gg5gg.out
 38 41 0 0 0
SMALL
GASTEIGER

@<TRIPOS>ATOM
      1 C          -1.7033   -2.0258    0.4520 C.ar    1  LIG1       -0.0095
      2 C          -0.5876   -1.9023   -0.3310 C.ar    1  LIG1        0.0256
      3 C          -0.1323   -0.5393   -0.4383 C.ar    1  LIG1        0.0333
      4 C          -0.9227    0.3452    0.2677 C.ar    1  LIG1        0.0412
      5 S          -2.2272   -0.5100    1.0862 S.2     1  LIG1       -0.0939
      6 H          -2.2388   -2.9364    0.6802 H       1  LIG1        0.0705
      7 S           0.2359   -3.3147   -1.0458 S.3     1  LIG1       -0.1410
      8 H           0.0531   -2.9847   -2.3435 H       1  LIG1        0.1072
      9 S           1.2771   -0.1385   -1.4342 S.3     1  LIG1       -0.1404
     10 H           1.1811    1.1942   -1.2525 H       1  LIG1        0.1072
     11 C          -0.8053    1.7958    0.3855 C.ar    1  LIG1        0.0418
     12 C           0.1314    2.5339    1.0826 C.ar    1  LIG1        0.0339
     13 C          -0.0835    3.9570    0.9849 C.ar    1  LIG1        0.0339
     14 C          -1.1826    4.2831    0.2112 C.ar    1  LIG1        0.0418
     15 S          -1.9548    2.8485   -0.4172 S.2     1  LIG1       -0.0849
     16 S           1.4111    1.7532    2.0312 S.3     1  LIG1       -0.1404
     17 H           2.0342    2.9140    2.3330 H       1  LIG1        0.1072
     18 S           0.8918    5.1434    1.8938 S.3     1  LIG1       -0.1404
     19 H           1.3080    5.8625    0.8228 H       1  LIG1        0.1072
     20 C          -1.7307    5.6012   -0.0935 C.ar    1  LIG1        0.0418
     21 C          -1.1492    6.6460   -0.7820 C.ar    1  LIG1        0.0339
     22 C          -2.0074    7.7981   -0.8953 C.ar    1  LIG1        0.0339
     23 C          -3.2385    7.6107   -0.2938 C.ar    1  LIG1        0.0418
     24 S          -3.3441    6.0264    0.4334 S.2     1  LIG1       -0.0849
     25 S           0.4601    6.5031   -1.5229 S.3     1  LIG1       -0.1404
     26 H           0.5690    7.8230   -1.7952 H       1  LIG1        0.1072
     27 S          -1.5555    9.2435   -1.8411 S.3     1  LIG1       -0.1404
     28 H          -1.6833   10.1467   -0.8394 H       1  LIG1        0.1072
     29 C          -4.3696    8.5282   -0.2180 C.ar    1  LIG1        0.0412
     30 C          -4.4425    9.7654    0.3876 C.ar    1  LIG1        0.0333
     31 C          -5.7394   10.3825    0.2388 C.ar    1  LIG1        0.0256
     32 C          -6.6247    9.5837   -0.4353 C.ar    1  LIG1       -0.0095
     33 S          -5.9141    8.0970   -0.9377 S.2     1  LIG1       -0.0939
     34 H          -7.6572    9.8073   -0.6632 H       1  LIG1        0.0705
     35 S          -3.0893   10.4571    1.3030 S.3     1  LIG1       -0.1404
     36 H          -3.7544   11.5875    1.6319 H       1  LIG1        0.1072
     37 S          -6.2108   11.9636    0.9249 S.3     1  LIG1       -0.1410
     38 H          -5.7622   12.7420   -0.0859 H       1  LIG1        0.1072
@<TRIPOS>BOND
     1     8     7    1
     2    27    22    1
     3    27    28    1
     4    26    25    1
     5    25    21    1
     6     9    10    1
     7     9     3    1
     8     7     2    1
     9    33    32   ar
    10    33    29   ar
    11    22    21   ar
    12    22    23   ar
    13    21    20   ar
    14    34    32    1
    15     3     2   ar
    16     3     4   ar
    17    32    31   ar
    18    15    14   ar
    19    15    11   ar
    20     2     1   ar
    21    23    29    1
    22    23    24   ar
    23    29    30   ar
    24    20    14    1
    25    20    24   ar
    26    38    37    1
    27    14    13   ar
    28    31    30   ar
    29    31    37    1
    30     4    11    1
    31     4     5   ar
    32    11    12   ar
    33    30    35    1
    34     1     6    1
    35     1     5   ar
    36    19    18    1
    37    13    12   ar
    38    13    18    1
    39    12    16    1
    40    35    36    1
    41    16    17    1
