@<TRIPOS>MOLECULE
mol_data/opt/b3lyp/geoms/mol2/5gg5gg-5gg5gg.out
 38 41 0 0 0
SMALL
GASTEIGER

@<TRIPOS>ATOM
      1 C          -0.6121   -1.5588    2.2495 C.ar    1  LIG1       -0.0095
      2 C          -0.9344   -1.7497    0.9331 C.ar    1  LIG1        0.0256
      3 C          -0.9173   -0.5252    0.1746 C.ar    1  LIG1        0.0333
      4 C          -0.5584    0.5679    0.9347 C.ar    1  LIG1        0.0412
      5 S          -0.2707    0.0943    2.6050 S.2     1  LIG1       -0.0939
      6 H          -0.5497   -2.3142    3.0197 H       1  LIG1        0.0705
      7 S          -1.4329   -3.3395    0.2951 S.3     1  LIG1       -0.1410
      8 H          -0.4457   -3.4767   -0.6174 H       1  LIG1        0.1072
      9 S          -1.3493   -0.5217   -1.5445 S.3     1  LIG1       -0.1404
     10 H          -1.0044    0.7644   -1.7545 H       1  LIG1        0.1072
     11 C          -0.4441    1.9684    0.5299 C.ar    1  LIG1        0.0418
     12 C           0.5562    2.5786   -0.2008 C.ar    1  LIG1        0.0339
     13 C           0.3297    3.9840   -0.4076 C.ar    1  LIG1        0.0339
     14 C          -0.8409    4.4315    0.1693 C.ar    1  LIG1        0.0418
     15 S          -1.6759    3.1243    0.9808 S.2     1  LIG1       -0.0849
     16 S           2.0090    1.6932   -0.7273 S.3     1  LIG1       -0.1404
     17 H           2.1557    2.3404   -1.9031 H       1  LIG1        0.1072
     18 S           1.4837    4.9679   -1.3286 S.3     1  LIG1       -0.1404
     19 H           0.6984    6.0620   -1.3847 H       1  LIG1        0.1072
     20 C          -1.4066    5.7809    0.1521 C.ar    1  LIG1        0.0418
     21 C          -0.9982    6.8986    0.8524 C.ar    1  LIG1        0.0339
     22 C          -1.7966    8.0629    0.5736 C.ar    1  LIG1        0.0339
     23 C          -2.8108    7.8206   -0.3317 C.ar    1  LIG1        0.0418
     24 S          -2.7978    6.1447   -0.8434 S.2     1  LIG1       -0.0849
     25 S           0.3218    6.8328    2.0437 S.3     1  LIG1       -0.1404
     26 H           0.8517    8.0375    1.7423 H       1  LIG1        0.1072
     27 S          -1.4247    9.6193    1.3423 S.3     1  LIG1       -0.1404
     28 H          -2.2512   10.3457    0.5631 H       1  LIG1        0.1072
     29 C          -3.8123    8.7421   -0.8598 C.ar    1  LIG1        0.0412
     30 C          -4.8779    9.3314   -0.2076 C.ar    1  LIG1        0.0333
     31 C          -5.6692   10.1668   -1.0825 C.ar    1  LIG1        0.0256
     32 C          -5.2077   10.1653   -2.3720 C.ar    1  LIG1       -0.0095
     33 S          -3.7993    9.1910   -2.5624 S.2     1  LIG1       -0.0939
     34 H          -5.6287   10.6998   -3.2118 H       1  LIG1        0.0705
     35 S          -5.2119    9.0604    1.5114 S.3     1  LIG1       -0.1404
     36 H          -6.4656    9.5625    1.4479 H       1  LIG1        0.1072
     37 S          -7.1707   11.0158   -0.6219 S.3     1  LIG1       -0.1410
     38 H          -6.6051   12.0227    0.0817 H       1  LIG1        0.1072
@<TRIPOS>BOND
     1    34    32    1
     2    33    32   ar
     3    33    29   ar
     4    32    31   ar
     5    17    16    1
     6    10     9    1
     7     9     3    1
     8    19    18    1
     9    18    13    1
    10    31    37    1
    11    31    30   ar
    12    29    23    1
    13    29    30   ar
    14    24    23   ar
    15    24    20   ar
    16    16    12    1
    17    37    38    1
    18     8     7    1
    19    13    12   ar
    20    13    14   ar
    21    23    22   ar
    22    30    35    1
    23    12    11   ar
    24    20    14    1
    25    20    21   ar
    26    14    15   ar
    27     3     2   ar
    28     3     4   ar
    29     7     2    1
    30    11     4    1
    31    11    15   ar
    32    28    27    1
    33    22    21   ar
    34    22    27    1
    35    21    25    1
    36     2     1   ar
    37     4     5   ar
    38    36    35    1
    39    26    25    1
    40     1     5   ar
    41     1     6    1
