@<TRIPOS>MOLECULE
mol_data/opt/b3lyp/geoms/mol2/5gg5gg5gg5gg-.out
 38 41 0 0 0
SMALL
GASTEIGER

@<TRIPOS>ATOM
      1 C          -1.6245   -2.0158    0.5549 C.ar    1  LIG1       -0.0095
      2 C          -0.5519   -1.8978   -0.2869 C.ar    1  LIG1        0.0256
      3 C          -0.1134   -0.5338   -0.4402 C.ar    1  LIG1        0.0333
      4 C          -0.8729    0.3571    0.2913 C.ar    1  LIG1        0.0412
      5 S          -2.1266   -0.4932    1.1903 S.2     1  LIG1       -0.0939
      6 H          -2.1404   -2.9261    0.8256 H       1  LIG1        0.0705
      7 S           0.2445   -3.3163   -1.0202 S.3     1  LIG1       -0.1410
      8 H          -0.0080   -3.0093   -2.3120 H       1  LIG1        0.1072
      9 S           1.2391   -0.1401   -1.5148 S.3     1  LIG1       -0.1404
     10 H           1.1412    1.1948   -1.3520 H       1  LIG1        0.1072
     11 C          -0.7612    1.8103    0.3787 C.ar    1  LIG1        0.0418
     12 C           0.2053    2.5668    1.0126 C.ar    1  LIG1        0.0339
     13 C          -0.0259    3.9865    0.9026 C.ar    1  LIG1        0.0339
     14 C          -1.1669    4.2915    0.1830 C.ar    1  LIG1        0.0418
     15 S          -1.9600    2.8409   -0.3792 S.2     1  LIG1       -0.0849
     16 S           1.5394    1.8117    1.9053 S.3     1  LIG1       -0.1404
     17 H           2.1691    2.9817    2.1528 H       1  LIG1        0.1072
     18 S           0.9870    5.1953    1.7380 S.3     1  LIG1       -0.1404
     19 H           1.3398    5.8988    0.6343 H       1  LIG1        0.1072
     20 C          -1.7409    5.6003   -0.1141 C.ar    1  LIG1        0.0418
     21 C          -1.2052    6.6370   -0.8504 C.ar    1  LIG1        0.0339
     22 C          -2.0771    7.7810   -0.9370 C.ar    1  LIG1        0.0339
     23 C          -3.2728    7.5956   -0.2673 C.ar    1  LIG1        0.0418
     24 S          -3.3271    6.0236    0.4911 S.2     1  LIG1       -0.0849
     25 S           0.3634    6.4922   -1.6735 S.3     1  LIG1       -0.1404
     26 H           0.4465    7.8075   -1.9753 H       1  LIG1        0.1072
     27 S          -1.6881    9.2129   -1.9302 S.3     1  LIG1       -0.1404
     28 H          -1.7654   10.1321   -0.9380 H       1  LIG1        0.1072
     29 C          -4.4051    8.5068   -0.1465 C.ar    1  LIG1        0.0412
     30 C          -4.4545    9.7537    0.4414 C.ar    1  LIG1        0.0333
     31 C          -5.7620   10.3599    0.3522 C.ar    1  LIG1        0.0256
     32 C          -6.6762    9.5441   -0.2601 C.ar    1  LIG1       -0.0095
     33 S          -5.9827    8.0536   -0.7751 S.2     1  LIG1       -0.0939
     34 H          -7.7210    9.7570   -0.4360 H       1  LIG1        0.0705
     35 S          -3.0592   10.4697    1.2710 S.3     1  LIG1       -0.1404
     36 H          -3.7147   11.6004    1.6181 H       1  LIG1        0.1072
     37 S          -6.2075   11.9493    1.0364 S.3     1  LIG1       -0.1410
     38 H          -5.8212   12.7132   -0.0105 H       1  LIG1        0.1072
@<TRIPOS>BOND
     1     8     7    1
     2    26    25    1
     3    27    28    1
     4    27    22    1
     5    25    21    1
     6     9    10    1
     7     9     3    1
     8     7     2    1
     9    22    21   ar
    10    22    23   ar
    11    21    20   ar
    12    33    32   ar
    13    33    29   ar
    14     3     2   ar
    15     3     4   ar
    16    34    32    1
    17    15    14   ar
    18    15    11   ar
    19     2     1   ar
    20    23    29    1
    21    23    24   ar
    22    32    31   ar
    23    29    30   ar
    24    20    14    1
    25    20    24   ar
    26    38    37    1
    27    14    13   ar
    28     4    11    1
    29     4     5   ar
    30    31    30   ar
    31    31    37    1
    32    11    12   ar
    33    30    35    1
    34     1     6    1
    35     1     5   ar
    36    19    18    1
    37    13    12   ar
    38    13    18    1
    39    12    16    1
    40    35    36    1
    41    16    17    1
