@<TRIPOS>MOLECULE
mol_data/opt/b3lyp/geoms/mol2/5gg5gg-5gg5gg-.out
 38 41 0 0 0
SMALL
GASTEIGER

@<TRIPOS>ATOM
      1 C          -0.5950   -1.5324    2.3133 C.ar    1  LIG1       -0.0095
      2 C          -0.9483   -1.7410    1.0076 C.ar    1  LIG1        0.0256
      3 C          -0.9424   -0.5279    0.2308 C.ar    1  LIG1        0.0333
      4 C          -0.5606    0.5744    0.9663 C.ar    1  LIG1        0.0412
      5 S          -0.2373    0.1238    2.6364 S.2     1  LIG1       -0.0939
      6 H          -0.5188   -2.2768    3.0931 H       1  LIG1        0.0705
      7 S          -1.4693   -3.3373    0.4048 S.3     1  LIG1       -0.1410
      8 H          -0.5036   -3.4934   -0.5275 H       1  LIG1        0.1072
      9 S          -1.4136   -0.5474   -1.4779 S.3     1  LIG1       -0.1404
     10 H          -1.0679    0.7338   -1.7145 H       1  LIG1        0.1072
     11 C          -0.4486    1.9681    0.5382 C.ar    1  LIG1        0.0418
     12 C           0.5374    2.5619   -0.2248 C.ar    1  LIG1        0.0339
     13 C           0.3133    3.9654   -0.4469 C.ar    1  LIG1        0.0339
     14 C          -0.8409    4.4279    0.1508 C.ar    1  LIG1        0.0418
     15 S          -1.6633    3.1373    1.0009 S.2     1  LIG1       -0.0849
     16 S           1.9728    1.6611   -0.7721 S.3     1  LIG1       -0.1404
     17 H           2.0937    2.2885   -1.9615 H       1  LIG1        0.1072
     18 S           1.4506    4.9293   -1.4091 S.3     1  LIG1       -0.1404
     19 H           0.6699    6.0269   -1.4627 H       1  LIG1        0.1072
     20 C          -1.3997    5.7801    0.1270 C.ar    1  LIG1        0.0418
     21 C          -0.9702    6.9049    0.8028 C.ar    1  LIG1        0.0339
     22 C          -1.7682    8.0698    0.5251 C.ar    1  LIG1        0.0339
     23 C          -2.8030    7.8209   -0.3546 C.ar    1  LIG1        0.0418
     24 S          -2.8101    6.1380   -0.8432 S.2     1  LIG1       -0.0849
     25 S           0.3751    6.8481    1.9659 S.3     1  LIG1       -0.1404
     26 H           0.9041    8.0460    1.6369 H       1  LIG1        0.1072
     27 S          -1.3712    9.6346    1.2639 S.3     1  LIG1       -0.1404
     28 H          -2.2087   10.3553    0.4911 H       1  LIG1        0.1072
     29 C          -3.8107    8.7407   -0.8739 C.ar    1  LIG1        0.0412
     30 C          -4.8580    9.3462   -0.2070 C.ar    1  LIG1        0.0333
     31 C          -5.6638   10.1733   -1.0766 C.ar    1  LIG1        0.0256
     32 C          -5.2313   10.1496   -2.3759 C.ar    1  LIG1       -0.0095
     33 S          -3.8332    9.1639   -2.5830 S.2     1  LIG1       -0.0939
     34 H          -5.6680   10.6740   -3.2141 H       1  LIG1        0.0705
     35 S          -5.1552    9.1031    1.5228 S.3     1  LIG1       -0.1404
     36 H          -6.4073    9.6111    1.4794 H       1  LIG1        0.1072
     37 S          -7.1496   11.0382   -0.5956 S.3     1  LIG1       -0.1410
     38 H          -6.5626   12.0522    0.0798 H       1  LIG1        0.1072
@<TRIPOS>BOND
     1    34    32    1
     2    33    32   ar
     3    33    29   ar
     4    32    31   ar
     5    17    16    1
     6    10     9    1
     7     9     3    1
     8    19    18    1
     9    18    13    1
    10    31    37    1
    11    31    30   ar
    12    29    23    1
    13    29    30   ar
    14    24    23   ar
    15    24    20   ar
    16    16    12    1
    17    37    38    1
    18     8     7    1
    19    13    12   ar
    20    13    14   ar
    21    23    22   ar
    22    12    11   ar
    23    30    35    1
    24    20    14    1
    25    20    21   ar
    26    14    15   ar
    27     3     4   ar
    28     3     2   ar
    29     7     2    1
    30    28    27    1
    31    22    21   ar
    32    22    27    1
    33    11     4    1
    34    11    15   ar
    35    21    25    1
    36     4     5   ar
    37     2     1   ar
    38    36    35    1
    39    26    25    1
    40     1     5   ar
    41     1     6    1
