@<TRIPOS>MOLECULE
mol_data/opt/b3lyp/geoms/mol2/5gg5gg5gg-5gg-.out
 38 41 0 0 0
SMALL
GASTEIGER

@<TRIPOS>ATOM
      1 C          -1.9402   -1.9043    0.0118 C.ar    1  LIG1       -0.0095
      2 C          -0.8141   -1.7682   -0.7541 C.ar    1  LIG1        0.0256
      3 C          -0.2770   -0.4316   -0.7195 C.ar    1  LIG1        0.0333
      4 C          -1.0172    0.4213    0.0744 C.ar    1  LIG1        0.0412
      5 S          -2.3759   -0.4334    0.7998 S.2     1  LIG1       -0.0939
      6 H          -2.5313   -2.7993    0.1439 H       1  LIG1        0.0705
      7 S          -0.0725   -3.1468   -1.6104 S.3     1  LIG1       -0.1410
      8 H          -0.2122   -2.6678   -2.8665 H       1  LIG1        0.1072
      9 S           1.1593   -0.0156   -1.6696 S.3     1  LIG1       -0.1404
     10 H           1.1424    1.2946   -1.3512 H       1  LIG1        0.1072
     11 C          -0.8130    1.8422    0.3412 C.ar    1  LIG1        0.0418
     12 C           0.1619    2.4458    1.1116 C.ar    1  LIG1        0.0339
     13 C           0.0366    3.8819    1.1578 C.ar    1  LIG1        0.0339
     14 C          -1.0337    4.3526    0.4203 C.ar    1  LIG1        0.0418
     15 S          -1.8896    3.0404   -0.3497 S.2     1  LIG1       -0.0849
     16 S           1.3835    1.4941    1.9770 S.3     1  LIG1       -0.1404
     17 H           2.0775    2.5760    2.3940 H       1  LIG1        0.1072
     18 S           1.0867    4.9110    2.1678 S.3     1  LIG1       -0.1404
     19 H           1.5541    5.6827    1.1562 H       1  LIG1        0.1072
     20 C          -1.5104    5.7247    0.2573 C.ar    1  LIG1        0.0418
     21 C          -0.8792    6.8100   -0.3154 C.ar    1  LIG1        0.0339
     22 C          -1.6790    8.0048   -0.3001 C.ar    1  LIG1        0.0339
     23 C          -2.9195    7.8168    0.2757 C.ar    1  LIG1        0.0418
     24 S          -3.1120    6.1580    0.8032 S.2     1  LIG1       -0.0849
     25 S           0.7229    6.6812   -1.0865 S.3     1  LIG1       -0.1404
     26 H           1.1388    7.9253   -0.7644 H       1  LIG1        0.1072
     27 S          -1.0521    9.5325   -0.9551 S.3     1  LIG1       -0.1404
     28 H          -2.0054   10.3084   -0.4016 H       1  LIG1        0.1072
     29 C          -3.9954    8.7818    0.4796 C.ar    1  LIG1        0.0412
     30 C          -4.8008    9.3943   -0.4611 C.ar    1  LIG1        0.0333
     31 C          -5.7820   10.2709    0.1368 C.ar    1  LIG1        0.0256
     32 C          -5.7190   10.2767    1.5051 C.ar    1  LIG1       -0.0095
     33 S          -4.4651    9.2604    2.1080 S.2     1  LIG1       -0.0939
     34 H          -6.3475   10.8399    2.1804 H       1  LIG1        0.0705
     35 S          -4.6276    9.1039   -2.2005 S.3     1  LIG1       -0.1404
     36 H          -5.8313    9.6368   -2.5089 H       1  LIG1        0.1072
     37 S          -7.0505   11.1605   -0.7500 S.3     1  LIG1       -0.1410
     38 H          -6.2653   12.1289   -1.2735 H       1  LIG1        0.1072
@<TRIPOS>BOND
     1     8     7    1
     2    36    35    1
     3    35    30    1
     4     9    10    1
     5     9     3    1
     6     7     2    1
     7    38    37    1
     8    25    26    1
     9    25    21    1
    10    27    28    1
    11    27    22    1
    12     2     3   ar
    13     2     1   ar
    14    37    31    1
    15     3     4   ar
    16    30    31   ar
    17    30    29   ar
    18    15    11   ar
    19    15    14   ar
    20    21    22   ar
    21    21    20   ar
    22    22    23   ar
    23     1     6    1
    24     1     5   ar
    25     4    11    1
    26     4     5   ar
    27    31    32   ar
    28    20    14    1
    29    20    24   ar
    30    23    29    1
    31    23    24   ar
    32    11    12   ar
    33    14    13   ar
    34    29    33   ar
    35    12    13   ar
    36    12    16    1
    37    19    18    1
    38    13    18    1
    39    32    33   ar
    40    32    34    1
    41    16    17    1
