@<TRIPOS>MOLECULE
mol_data/opt/b3lyp/geoms/mol2/5gg5gg-.out
 20 21 0 0 0
SMALL
GASTEIGER

@<TRIPOS>ATOM
      1 C          -1.7849   -1.7452    0.9169 C.ar    1  LIG1       -0.0095
      2 C          -0.6261   -1.7945    0.1904 C.ar    1  LIG1        0.0256
      3 C          -0.1873   -0.4924   -0.2428 C.ar    1  LIG1        0.0333
      4 C          -1.0316    0.5204    0.1649 C.ar    1  LIG1        0.0412
      5 S          -2.3687   -0.1333    1.1058 S.2     1  LIG1       -0.0939
      6 H          -2.3198   -2.5815    1.3440 H       1  LIG1        0.0705
      7 S           0.2619   -3.3171   -0.0861 S.3     1  LIG1       -0.1410
      8 H           0.1560   -3.3382   -1.4333 H       1  LIG1        0.1072
      9 S           1.2723   -0.3215   -1.2354 S.3     1  LIG1       -0.1404
     10 H           1.1186    1.0006   -1.4534 H       1  LIG1        0.1072
     11 C          -0.9384    1.9559   -0.0806 C.ar    1  LIG1        0.0412
     12 C          -0.0384    2.8668    0.4364 C.ar    1  LIG1        0.0333
     13 C          -0.2793    4.2130   -0.0314 C.ar    1  LIG1        0.0256
     14 C          -1.3670    4.2960   -0.8597 C.ar    1  LIG1       -0.0095
     15 S          -2.1049    2.7617   -1.1256 S.2     1  LIG1       -0.0939
     16 H          -1.7581    5.1882   -1.3278 H       1  LIG1        0.0705
     17 S           1.2533    2.3958    1.5559 S.3     1  LIG1       -0.1404
     18 H           1.5283    3.6659    1.9286 H       1  LIG1        0.1072
     19 S           0.6201    5.6655    0.4883 S.3     1  LIG1       -0.1410
     20 H           1.7406    5.4612   -0.2405 H       1  LIG1        0.1072
@<TRIPOS>BOND
     1    10     9    1
     2     8     7    1
     3    16    14    1
     4     9     3    1
     5    15    14   ar
     6    15    11   ar
     7    14    13   ar
     8     3     4   ar
     9     3     2   ar
    10    20    19    1
    11     7     2    1
    12    11     4    1
    13    11    12   ar
    14    13    12   ar
    15    13    19    1
    16     4     5   ar
    17     2     1   ar
    18    12    17    1
    19     1     5   ar
    20     1     6    1
    21    17    18    1
