@<TRIPOS>MOLECULE
mol_data/opt/b3lyp/geoms/mol2/5gg5gg-5gg-.out
 29 31 0 0 0
SMALL
GASTEIGER

@<TRIPOS>ATOM
      1 C          -1.5825   -1.6662    1.5076 C.ar    1  LIG1       -0.0095
      2 C          -0.9065   -1.8039    0.3255 C.ar    1  LIG1        0.0256
      3 C          -0.4608   -0.5425   -0.2089 C.ar    1  LIG1        0.0333
      4 C          -0.8177    0.5285    0.5831 C.ar    1  LIG1        0.0412
      5 S          -1.6942   -0.0189    2.0074 S.2     1  LIG1       -0.0939
      6 H          -2.0215   -2.4554    2.1012 H       1  LIG1        0.0705
      7 S          -0.5528   -3.3994   -0.3908 S.3     1  LIG1       -0.1410
      8 H          -1.2502   -3.2341   -1.5366 H       1  LIG1        0.1072
      9 S           0.4158   -0.4752   -1.7473 S.3     1  LIG1       -0.1404
     10 H           0.4717    0.8711   -1.7972 H       1  LIG1        0.1072
     11 C          -0.5738    1.9533    0.3628 C.ar    1  LIG1        0.0418
     12 C           0.6061    2.6602    0.4867 C.ar    1  LIG1        0.0339
     13 C           0.4644    4.0585    0.1775 C.ar    1  LIG1        0.0339
     14 C          -0.8241    4.4066   -0.1761 C.ar    1  LIG1        0.0418
     15 S          -1.8814    3.0099   -0.1198 S.2     1  LIG1       -0.0849
     16 S           2.1026    1.8973    1.0758 S.3     1  LIG1       -0.1404
     17 H           2.9402    2.5451    0.2379 H       1  LIG1        0.1072
     18 S           1.8613    5.1487    0.2518 S.3     1  LIG1       -0.1404
     19 H           1.2169    6.2120   -0.2694 H       1  LIG1        0.1072
     20 C          -1.3453    5.7142   -0.5678 C.ar    1  LIG1        0.0412
     21 C          -1.5768    6.8251    0.2189 C.ar    1  LIG1        0.0333
     22 C          -2.1227    7.9328   -0.5319 C.ar    1  LIG1        0.0256
     23 C          -2.2866    7.6388   -1.8596 C.ar    1  LIG1       -0.0095
     24 S          -1.7996    6.0305   -2.2395 S.2     1  LIG1       -0.0939
     25 H          -2.6759    8.2952   -2.6250 H       1  LIG1        0.0705
     26 S          -1.2775    6.8268    1.9652 S.3     1  LIG1       -0.1404
     27 H          -1.4657    8.1590    2.0968 H       1  LIG1        0.1072
     28 S          -2.4811    9.5524    0.1303 S.3     1  LIG1       -0.1410
     29 H          -3.6616    9.2537    0.7186 H       1  LIG1        0.1072
@<TRIPOS>BOND
     1    25    23    1
     2    24    23   ar
     3    24    20   ar
     4    23    22   ar
     5    10     9    1
     6     9     3    1
     7     8     7    1
     8    20    14    1
     9    20    21   ar
    10    22    28    1
    11    22    21   ar
    12     7     2    1
    13    19    18    1
    14     3     2   ar
    15     3     4   ar
    16    14    15   ar
    17    14    13   ar
    18    15    11   ar
    19    28    29    1
    20    13    18    1
    21    13    12   ar
    22    21    26    1
    23    17    16    1
    24     2     1   ar
    25    11    12   ar
    26    11     4    1
    27    12    16    1
    28     4     5   ar
    29     1     5   ar
    30     1     6    1
    31    26    27    1
