@<TRIPOS>MOLECULE
mol_data/opt/b3lyp/geoms/mol2/5gg5gg5gg-5gg.out
 38 41 0 0 0
SMALL
GASTEIGER

@<TRIPOS>ATOM
      1 C          -1.9076   -1.9042   -0.0161 C.ar    1  LIG1       -0.0095
      2 C          -0.7806   -1.7601   -0.7792 C.ar    1  LIG1        0.0256
      3 C          -0.2496   -0.4214   -0.7384 C.ar    1  LIG1        0.0333
      4 C          -0.9951    0.4252    0.0573 C.ar    1  LIG1        0.0412
      5 S          -2.3514   -0.4383    0.7768 S.2     1  LIG1       -0.0939
      6 H          -2.4951   -2.8024    0.1113 H       1  LIG1        0.0705
      7 S          -0.0312   -3.1321   -1.6392 S.3     1  LIG1       -0.1410
      8 H          -0.1684   -2.6478   -2.8936 H       1  LIG1        0.1072
      9 S           1.1865    0.0047   -1.6843 S.3     1  LIG1       -0.1404
     10 H           1.1617    1.3141   -1.3632 H       1  LIG1        0.1072
     11 C          -0.7978    1.8459    0.3302 C.ar    1  LIG1        0.0418
     12 C           0.1742    2.4510    1.1031 C.ar    1  LIG1        0.0339
     13 C           0.0418    3.8862    1.1556 C.ar    1  LIG1        0.0339
     14 C          -1.0310    4.3548    0.4202 C.ar    1  LIG1        0.0418
     15 S          -1.8805    3.0417   -0.3554 S.2     1  LIG1       -0.0849
     16 S           1.4004    1.5016    1.9647 S.3     1  LIG1       -0.1404
     17 H           2.0890    2.5853    2.3863 H       1  LIG1        0.1072
     18 S           1.0867    4.9162    2.1700 S.3     1  LIG1       -0.1404
     19 H           1.5503    5.6946    1.1618 H       1  LIG1        0.1072
     20 C          -1.5145    5.7252    0.2634 C.ar    1  LIG1        0.0418
     21 C          -0.8888    6.8161   -0.3046 C.ar    1  LIG1        0.0339
     22 C          -1.6944    8.0068   -0.2838 C.ar    1  LIG1        0.0339
     23 C          -2.9340    7.8102    0.2912 C.ar    1  LIG1        0.0418
     24 S          -3.1182    6.1481    0.8115 S.2     1  LIG1       -0.0849
     25 S           0.7138    6.6984   -1.0764 S.3     1  LIG1       -0.1404
     26 H           1.1230    7.9438   -0.7504 H       1  LIG1        0.1072
     27 S          -1.0753    9.5405   -0.9323 S.3     1  LIG1       -0.1404
     28 H          -2.0319   10.3093   -0.3745 H       1  LIG1        0.1072
     29 C          -4.0144    8.7691    0.4997 C.ar    1  LIG1        0.0412
     30 C          -4.8231    9.3816   -0.4381 C.ar    1  LIG1        0.0333
     31 C          -5.8083   10.2509    0.1638 C.ar    1  LIG1        0.0256
     32 C          -5.7450   10.2512    1.5320 C.ar    1  LIG1       -0.0095
     33 S          -4.4860    9.2384    2.1302 S.2     1  LIG1       -0.0939
     34 H          -6.3759   10.8085    2.2099 H       1  LIG1        0.0705
     35 S          -4.6491    9.0992   -2.1789 S.3     1  LIG1       -0.1404
     36 H          -5.8548    9.6289   -2.4848 H       1  LIG1        0.1072
     37 S          -7.0814   11.1382   -0.7189 S.3     1  LIG1       -0.1410
     38 H          -6.3009   12.1127   -1.2384 H       1  LIG1        0.1072
@<TRIPOS>BOND
     1     8     7    1
     2    36    35    1
     3    35    30    1
     4     9    10    1
     5     9     3    1
     6     7     2    1
     7    38    37    1
     8    25    26    1
     9    25    21    1
    10    27    28    1
    11    27    22    1
    12     2     3   ar
    13     2     1   ar
    14     3     4   ar
    15    37    31    1
    16    30    31   ar
    17    30    29   ar
    18    15    11   ar
    19    15    14   ar
    20    21    22   ar
    21    21    20   ar
    22    22    23   ar
    23     1     6    1
    24     1     5   ar
    25     4    11    1
    26     4     5   ar
    27    31    32   ar
    28    20    14    1
    29    20    24   ar
    30    23    29    1
    31    23    24   ar
    32    11    12   ar
    33    14    13   ar
    34    29    33   ar
    35    12    13   ar
    36    12    16    1
    37    13    18    1
    38    19    18    1
    39    32    33   ar
    40    32    34    1
    41    16    17    1
