@<TRIPOS>MOLECULE
mol_data/opt/b3lyp/geoms/mol2/5gg5gg5gg-.out
 29 31 0 0 0
SMALL
GASTEIGER

@<TRIPOS>ATOM
      1 C          -1.6414   -1.9178    0.6512 C.ar    1  LIG1       -0.0095
      2 C          -0.6383   -1.8107   -0.2732 C.ar    1  LIG1        0.0256
      3 C          -0.1945   -0.4520   -0.4562 C.ar    1  LIG1        0.0333
      4 C          -0.8772    0.4443    0.3405 C.ar    1  LIG1        0.0412
      5 S          -2.0695   -0.3905    1.3299 S.2     1  LIG1       -0.0939
      6 H          -2.1496   -2.8210    0.9576 H       1  LIG1        0.0705
      7 S           0.0773   -3.2366   -1.0720 S.3     1  LIG1       -0.1410
      8 H          -0.2327   -2.8953   -2.3423 H       1  LIG1        0.1072
      9 S           1.0641   -0.0760   -1.6495 S.3     1  LIG1       -0.1404
     10 H           0.8994    1.2616   -1.5970 H       1  LIG1        0.1072
     11 C          -0.7295    1.8917    0.4404 C.ar    1  LIG1        0.0418
     12 C           0.3542    2.6272    0.8815 C.ar    1  LIG1        0.0339
     13 C           0.1220    4.0472    0.8530 C.ar    1  LIG1        0.0339
     14 C          -1.1424    4.3826    0.4112 C.ar    1  LIG1        0.0418
     15 S          -2.0502    2.9457   -0.0138 S.2     1  LIG1       -0.0849
     16 S           1.8704    1.8659    1.4246 S.3     1  LIG1       -0.1404
     17 H           2.0816    2.7138    2.4547 H       1  LIG1        0.1072
     18 S           1.3728    5.1801    1.4061 S.3     1  LIG1       -0.1404
     19 H           0.5618    6.2567    1.4369 H       1  LIG1        0.1072
     20 C          -1.7480    5.7023    0.2661 C.ar    1  LIG1        0.0412
     21 C          -1.4334    6.7083   -0.6269 C.ar    1  LIG1        0.0333
     22 C          -2.2854    7.8666   -0.4805 C.ar    1  LIG1        0.0256
     23 C          -3.2385    7.7002    0.4890 C.ar    1  LIG1       -0.0095
     24 S          -3.1172    6.1693    1.2708 S.2     1  LIG1       -0.0939
     25 H          -3.9972    8.4125    0.7809 H       1  LIG1        0.0705
     26 S          -0.1278    6.5547   -1.8162 S.3     1  LIG1       -0.1404
     27 H          -0.5514    7.5989   -2.5629 H       1  LIG1        0.1072
     28 S          -2.2407    9.3205   -1.5154 S.3     1  LIG1       -0.1410
     29 H          -1.1165    9.8745   -1.0076 H       1  LIG1        0.1072
@<TRIPOS>BOND
     1    27    26    1
     2     8     7    1
     3    26    21    1
     4     9    10    1
     5     9     3    1
     6    28    29    1
     7    28    22    1
     8     7     2    1
     9    21    22   ar
    10    21    20   ar
    11    22    23   ar
    12     3     2   ar
    13     3     4   ar
    14     2     1   ar
    15    15    14   ar
    16    15    11   ar
    17    20    14    1
    18    20    24   ar
    19     4    11    1
    20     4     5   ar
    21    14    13   ar
    22    11    12   ar
    23    23    25    1
    24    23    24   ar
    25     1     6    1
    26     1     5   ar
    27    13    12   ar
    28    13    18    1
    29    12    16    1
    30    18    19    1
    31    16    17    1
