@<TRIPOS>MOLECULE
mol_data/opt/b3lyp/geoms/mol2/5gg5gg-5gg-5gg-.out
 38 41 0 0 0
SMALL
GASTEIGER

@<TRIPOS>ATOM
      1 C          -0.7577   -1.7677    1.8301 C.ar    1  LIG1       -0.0095
      2 C          -0.7073   -1.8840    0.4667 C.ar    1  LIG1        0.0256
      3 C          -0.5960   -0.6047   -0.1919 C.ar    1  LIG1        0.0333
      4 C          -0.5586    0.4523    0.6980 C.ar    1  LIG1        0.0412
      5 S          -0.6606   -0.1223    2.3497 S.2     1  LIG1       -0.0939
      6 H          -0.8240   -2.5644    2.5573 H       1  LIG1        0.0705
      7 S          -0.8319   -3.4603   -0.3482 S.3     1  LIG1       -0.1410
      8 H          -0.3181   -3.0329   -1.5217 H       1  LIG1        0.1072
      9 S          -0.5887   -0.4408   -1.9670 S.3     1  LIG1       -0.1404
     10 H           0.5536    0.2846   -2.0381 H       1  LIG1        0.1072
     11 C          -0.5028    1.8889    0.4343 C.ar    1  LIG1        0.0418
     12 C           0.4855    2.6366   -0.1726 C.ar    1  LIG1        0.0339
     13 C           0.1800    4.0403   -0.2369 C.ar    1  LIG1        0.0339
     14 C          -1.0391    4.3530    0.3303 C.ar    1  LIG1        0.0418
     15 S          -1.8206    2.9131    0.9509 S.2     1  LIG1       -0.0849
     16 S           2.0252    1.9176   -0.7128 S.3     1  LIG1       -0.1404
     17 H           2.1945    2.7228   -1.7839 H       1  LIG1        0.1072
     18 S           1.3018    5.1850   -0.9990 S.3     1  LIG1       -0.1404
     19 H           0.4457    6.2260   -0.9916 H       1  LIG1        0.1072
     20 C          -1.6959    5.6535    0.4366 C.ar    1  LIG1        0.0418
     21 C          -1.3670    6.7246    1.2451 C.ar    1  LIG1        0.0339
     22 C          -2.2730    7.8382    1.0992 C.ar    1  LIG1        0.0339
     23 C          -3.2792    7.5977    0.1810 C.ar    1  LIG1        0.0418
     24 S          -3.1164    6.0114   -0.5270 S.2     1  LIG1       -0.0849
     25 S           0.0025    6.6571    2.3690 S.3     1  LIG1       -0.1404
     26 H          -0.1304    7.9426    2.7646 H       1  LIG1        0.1072
     27 S          -2.1808    9.2979    2.1245 S.3     1  LIG1       -0.1404
     28 H          -1.9895   10.1984    1.1311 H       1  LIG1        0.1072
     29 C          -4.3744    8.4723   -0.2235 C.ar    1  LIG1        0.0412
     30 C          -4.3122    9.7001   -0.8485 C.ar    1  LIG1        0.0333
     31 C          -5.6172   10.2711   -1.0847 C.ar    1  LIG1        0.0256
     32 C          -6.6307    9.4476   -0.6715 C.ar    1  LIG1       -0.0095
     33 S          -6.0440    7.9923    0.0396 S.2     1  LIG1       -0.0939
     34 H          -7.6922    9.6364   -0.7471 H       1  LIG1        0.0705
     35 S          -2.7775   10.4332   -1.3532 S.3     1  LIG1       -0.1404
     36 H          -3.3598   11.5158   -1.9167 H       1  LIG1        0.1072
     37 S          -5.9263   11.8240   -1.9123 S.3     1  LIG1       -0.1410
     38 H          -5.7786   12.6356   -0.8405 H       1  LIG1        0.1072
@<TRIPOS>BOND
     1    10     9    1
     2     9     3    1
     3    36    35    1
     4    37    31    1
     5    37    38    1
     6    17    16    1
     7     8     7    1
     8    35    30    1
     9    31    30   ar
    10    31    32   ar
    11    18    19    1
    12    18    13    1
    13    30    29   ar
    14    34    32    1
    15    16    12    1
    16    32    33   ar
    17    24    23   ar
    18    24    20   ar
    19     7     2    1
    20    13    12   ar
    21    13    14   ar
    22    29    33   ar
    23    29    23    1
    24     3     2   ar
    25     3     4   ar
    26    12    11   ar
    27    23    22   ar
    28    14    20    1
    29    14    15   ar
    30    11     4    1
    31    11    15   ar
    32    20    21   ar
    33     2     1   ar
    34     4     5   ar
    35    22    21   ar
    36    22    27    1
    37    28    27    1
    38    21    25    1
    39     1     5   ar
    40     1     6    1
    41    25    26    1
