@<TRIPOS>MOLECULE
mol_data/opt/b3lyp/geoms/mol2/5gg5gg-5gg-5gg.out
 38 41 0 0 0
SMALL
GASTEIGER

@<TRIPOS>ATOM
      1 C          -0.7643   -1.7659    1.8448 C.ar    1  LIG1       -0.0095
      2 C          -0.6845   -1.8795    0.4825 C.ar    1  LIG1        0.0256
      3 C          -0.5656   -0.5985   -0.1714 C.ar    1  LIG1        0.0333
      4 C          -0.5523    0.4571    0.7209 C.ar    1  LIG1        0.0412
      5 S          -0.6863   -0.1209    2.3690 S.2     1  LIG1       -0.0939
      6 H          -0.8419   -2.5641    2.5691 H       1  LIG1        0.0705
      7 S          -0.7841   -3.4550   -0.3373 S.3     1  LIG1       -0.1410
      8 H          -0.2485   -3.0230   -1.4993 H       1  LIG1        0.1072
      9 S          -0.5220   -0.4315   -1.9457 S.3     1  LIG1       -0.1404
     10 H           0.6178    0.2998   -1.9917 H       1  LIG1        0.1072
     11 C          -0.4980    1.8944    0.4607 C.ar    1  LIG1        0.0418
     12 C           0.4991    2.6479   -0.1243 C.ar    1  LIG1        0.0339
     13 C           0.1883    4.0502   -0.1927 C.ar    1  LIG1        0.0339
     14 C          -1.0439    4.3562    0.3494 C.ar    1  LIG1        0.0418
     15 S          -1.8312    2.9115    0.9513 S.2     1  LIG1       -0.0849
     16 S           2.0533    1.9371   -0.6332 S.3     1  LIG1       -0.1404
     17 H           2.2412    2.7450   -1.6991 H       1  LIG1        0.1072
     18 S           1.3203    5.2014   -0.9293 S.3     1  LIG1       -0.1404
     19 H           0.4592    6.2383   -0.9382 H       1  LIG1        0.1072
     20 C          -1.7088    5.6533    0.4443 C.ar    1  LIG1        0.0418
     21 C          -1.4021    6.7243    1.2615 C.ar    1  LIG1        0.0339
     22 C          -2.3099    7.8340    1.0985 C.ar    1  LIG1        0.0339
     23 C          -3.2954    7.5907    0.1589 C.ar    1  LIG1        0.0418
     24 S          -3.1104    6.0065   -0.5484 S.2     1  LIG1       -0.0849
     25 S          -0.0564    6.6609    2.4141 S.3     1  LIG1       -0.1404
     26 H          -0.2031    7.9453    2.8085 H       1  LIG1        0.1072
     27 S          -2.2459    9.2922    2.1281 S.3     1  LIG1       -0.1404
     28 H          -2.0384   10.1955    1.1405 H       1  LIG1        0.1072
     29 C          -4.3859    8.4610   -0.2670 C.ar    1  LIG1        0.0412
     30 C          -4.3163    9.6902   -0.8886 C.ar    1  LIG1        0.0333
     31 C          -5.6185   10.2559   -1.1508 C.ar    1  LIG1        0.0256
     32 C          -6.6368    9.4273   -0.7598 C.ar    1  LIG1       -0.0095
     33 S          -6.0584    7.9734   -0.0390 S.2     1  LIG1       -0.0939
     34 H          -7.6972    9.6115   -0.8571 H       1  LIG1        0.0705
     35 S          -2.7746   10.4311   -1.3599 S.3     1  LIG1       -0.1404
     36 H          -3.3501   11.5112   -1.9352 H       1  LIG1        0.1072
     37 S          -5.9174   11.8085   -1.9825 S.3     1  LIG1       -0.1410
     38 H          -5.7939   12.6194   -0.9072 H       1  LIG1        0.1072
@<TRIPOS>BOND
     1    10     9    1
     2    37    31    1
     3    37    38    1
     4     9     3    1
     5    36    35    1
     6    17    16    1
     7     8     7    1
     8    35    30    1
     9    31    30   ar
    10    31    32   ar
    11    19    18    1
    12    18    13    1
    13    30    29   ar
    14    34    32    1
    15    32    33   ar
    16    16    12    1
    17    24    23   ar
    18    24    20   ar
    19     7     2    1
    20    29    33   ar
    21    29    23    1
    22    13    12   ar
    23    13    14   ar
    24     3     2   ar
    25     3     4   ar
    26    12    11   ar
    27    23    22   ar
    28    14    20    1
    29    14    15   ar
    30    20    21   ar
    31    11     4    1
    32    11    15   ar
    33     2     1   ar
    34     4     5   ar
    35    22    21   ar
    36    22    27    1
    37    28    27    1
    38    21    25    1
    39     1     5   ar
    40     1     6    1
    41    25    26    1
