@<TRIPOS>MOLECULE
mol_data/opt/b3lyp/geoms/mol2/5gg5gg5gg.out
 29 31 0 0 0
SMALL
GASTEIGER

@<TRIPOS>ATOM
      1 C          -1.6519   -1.9149    0.6563 C.ar    1  LIG1       -0.0095
      2 C          -0.6595   -1.8112   -0.2799 C.ar    1  LIG1        0.0256
      3 C          -0.2131   -0.4541   -0.4680 C.ar    1  LIG1        0.0333
      4 C          -0.8832    0.4444    0.3369 C.ar    1  LIG1        0.0412
      5 S          -2.0666   -0.3862    1.3402 S.2     1  LIG1       -0.0939
      6 H          -2.1596   -2.8164    0.9686 H       1  LIG1        0.0705
      7 S           0.0416   -3.2395   -1.0871 S.3     1  LIG1       -0.1410
      8 H          -0.2817   -2.8968   -2.3537 H       1  LIG1        0.1072
      9 S           1.0326   -0.0821   -1.6760 S.3     1  LIG1       -0.1404
     10 H           0.8722    1.2559   -1.6223 H       1  LIG1        0.1072
     11 C          -0.7292    1.8914    0.4351 C.ar    1  LIG1        0.0418
     12 C           0.3621    2.6230    0.8635 C.ar    1  LIG1        0.0339
     13 C           0.1345    4.0439    0.8379 C.ar    1  LIG1        0.0339
     14 C          -1.1339    4.3837    0.4109 C.ar    1  LIG1        0.0418
     15 S          -2.0516    2.9500   -0.0035 S.2     1  LIG1       -0.0849
     16 S           1.8820    1.8565    1.3886 S.3     1  LIG1       -0.1404
     17 H           2.1071    2.7021    2.4176 H       1  LIG1        0.1072
     18 S           1.3955    5.1722    1.3769 S.3     1  LIG1       -0.1404
     19 H           0.5889    6.2517    1.4167 H       1  LIG1        0.1072
     20 C          -1.7365    5.7056    0.2729 C.ar    1  LIG1        0.0412
     21 C          -1.4280    6.7109   -0.6230 C.ar    1  LIG1        0.0333
     22 C          -2.2747    7.8718   -0.4671 C.ar    1  LIG1        0.0256
     23 C          -3.2182    7.7081    0.5120 C.ar    1  LIG1       -0.0095
     24 S          -3.0937    6.1764    1.2918 S.2     1  LIG1       -0.0939
     25 H          -3.9714    8.4226    0.8122 H       1  LIG1        0.0705
     26 S          -0.1356    6.5536   -1.8261 S.3     1  LIG1       -0.1404
     27 H          -0.5639    7.5993   -2.5680 H       1  LIG1        0.1072
     28 S          -2.2361    9.3261   -1.5018 S.3     1  LIG1       -0.1410
     29 H          -1.1047    9.8762   -1.0056 H       1  LIG1        0.1072
@<TRIPOS>BOND
     1    27    26    1
     2     8     7    1
     3    26    21    1
     4     9    10    1
     5     9     3    1
     6    28    29    1
     7    28    22    1
     8     7     2    1
     9    21    22   ar
    10    21    20   ar
    11     3     2   ar
    12     3     4   ar
    13    22    23   ar
    14     2     1   ar
    15    15    14   ar
    16    15    11   ar
    17    20    14    1
    18    20    24   ar
    19     4    11    1
    20     4     5   ar
    21    14    13   ar
    22    11    12   ar
    23    23    25    1
    24    23    24   ar
    25     1     6    1
    26     1     5   ar
    27    13    12   ar
    28    13    18    1
    29    12    16    1
    30    18    19    1
    31    16    17    1
