@<TRIPOS>MOLECULE
mol_data/opt/b3lyp/geoms/mol2/5gg5gg.out
 20 21 0 0 0
SMALL
GASTEIGER

@<TRIPOS>ATOM
      1 C          -1.8135   -1.6913    1.0468 C.ar    1  LIG1       -0.0095
      2 C          -0.6381   -1.7799    0.3515 C.ar    1  LIG1        0.0256
      3 C          -0.1862   -0.5027   -0.1388 C.ar    1  LIG1        0.0333
      4 C          -1.0376    0.5310    0.1953 C.ar    1  LIG1        0.0412
      5 S          -2.3980   -0.0712    1.1373 S.2     1  LIG1       -0.0939
      6 H          -2.3603   -2.5036    1.5042 H       1  LIG1        0.0705
      7 S           0.2526   -3.3157    0.1759 S.3     1  LIG1       -0.1410
      8 H           0.1788   -3.4069   -1.1705 H       1  LIG1        0.1072
      9 S           1.2966   -0.3853   -1.1038 S.3     1  LIG1       -0.1404
     10 H           1.1510    0.9238   -1.3942 H       1  LIG1        0.1072
     11 C          -0.9350    1.9515   -0.1225 C.ar    1  LIG1        0.0412
     12 C          -0.0454    2.8869    0.3680 C.ar    1  LIG1        0.0333
     13 C          -0.2713    4.2073   -0.1746 C.ar    1  LIG1        0.0256
     14 C          -1.3385    4.2485   -1.0322 C.ar    1  LIG1       -0.0095
     15 S          -2.0739    2.7035   -1.2358 S.2     1  LIG1       -0.0939
     16 H          -1.7159    5.1157   -1.5556 H       1  LIG1        0.0705
     17 S           1.2179    2.4727    1.5418 S.3     1  LIG1       -0.1404
     18 H           1.4867    3.7600    1.8552 H       1  LIG1        0.1072
     19 S           0.6192    5.6835    0.2903 S.3     1  LIG1       -0.1410
     20 H           1.7566    5.4393   -0.3989 H       1  LIG1        0.1072
@<TRIPOS>BOND
     1    16    14    1
     2    10     9    1
     3    15    14   ar
     4    15    11   ar
     5     8     7    1
     6     9     3    1
     7    14    13   ar
     8    20    19    1
     9    13    19    1
    10    13    12   ar
    11     3     4   ar
    12     3     2   ar
    13    11     4    1
    14    11    12   ar
    15     7     2    1
    16     4     5   ar
    17     2     1   ar
    18    12    17    1
    19     1     5   ar
    20     1     6    1
    21    17    18    1
