@<TRIPOS>MOLECULE
mol_data/opt/b3lyp/geoms/mol2/5gh.out
 12 12 0 0 0
SMALL
GASTEIGER

@<TRIPOS>ATOM
      1 C          -2.0706   -1.6969    0.0174 C.ar    1  LIG1       -0.0093
      2 C          -0.7110   -1.6200   -0.1189 C.ar    1  LIG1        0.0324
      3 C          -0.2169   -0.2611   -0.1205 C.ar    1  LIG1        0.0450
      4 C          -1.2364    0.6461    0.0234 C.ar    1  LIG1       -0.0026
      5 S          -2.7889   -0.1322    0.1552 S.2     1  LIG1       -0.1021
      6 H          -2.6763   -2.5910    0.0444 H       1  LIG1        0.0705
      7 H          -1.1662    1.7237    0.0650 H       1  LIG1        0.0712
      8 S           0.3250   -3.0485   -0.3881 S.3     1  LIG1       -0.1403
      9 H           0.9889   -3.0223    0.7900 H       1  LIG1        0.1072
     10 N           1.1470    0.0241   -0.1897 N.pl3   1  LIG1       -0.3567
     11 H           1.6630   -0.6643   -0.7271 H       1  LIG1        0.1424
     12 H           1.3578    0.9646   -0.4966 H       1  LIG1        0.1424
@<TRIPOS>BOND
     1    11    10    1
     2    12    10    1
     3     8     2    1
     4     8     9    1
     5    10     3    1
     6     3     2   ar
     7     3     4   ar
     8     2     1   ar
     9     1     6    1
    10     1     5   ar
    11     4     7    1
    12     4     5   ar
