@<TRIPOS>MOLECULE
mol_data/opt/b3lyp/geoms/mol2/5gh5gh-5gh5gh-.out
 42 45 0 0 0
SMALL
GASTEIGER

@<TRIPOS>ATOM
      1 C          -1.1150   -1.5971    2.0549 C.ar    1  LIG1       -0.0087
      2 C          -0.7992   -1.8080    0.7400 C.ar    1  LIG1        0.0331
      3 C          -0.5648   -0.5857    0.0114 C.ar    1  LIG1        0.0534
      4 C          -0.6849    0.5340    0.8162 C.ar    1  LIG1        0.0487
      5 S          -1.1173    0.0784    2.4626 S.2     1  LIG1       -0.0931
      6 H          -1.3390   -2.3481    2.7989 H       1  LIG1        0.0705
      7 S          -0.8136   -3.4221   -0.0217 S.3     1  LIG1       -0.1403
      8 H           0.5173   -3.5409   -0.2301 H       1  LIG1        0.1072
      9 N          -0.2369   -0.5811   -1.3365 N.pl3   1  LIG1       -0.3562
     10 H          -0.5828   -1.3923   -1.8366 H       1  LIG1        0.1424
     11 H          -0.4406    0.2873   -1.8147 H       1  LIG1        0.1424
     12 C          -0.5269    1.9253    0.4308 C.ar    1  LIG1        0.0433
     13 C           0.5392    2.5364   -0.2020 C.ar    1  LIG1        0.0414
     14 C           0.3316    3.9357   -0.4655 C.ar    1  LIG1        0.0540
     15 C          -0.8776    4.3979    0.0216 C.ar    1  LIG1        0.0493
     16 S          -1.8025    3.0878    0.7407 S.2     1  LIG1       -0.0841
     17 S           2.0485    1.6964   -0.6538 S.3     1  LIG1       -0.1397
     18 H           2.8708    2.6448   -0.1518 H       1  LIG1        0.1072
     19 N           1.2971    4.7123   -1.0996 N.pl3   1  LIG1       -0.3562
     20 H           1.8263    4.1999   -1.7968 H       1  LIG1        0.1424
     21 H           0.9420    5.5879   -1.4643 H       1  LIG1        0.1424
     22 C          -1.4015    5.7504   -0.0475 C.ar    1  LIG1        0.0433
     23 C          -0.8186    6.9324    0.3697 C.ar    1  LIG1        0.0414
     24 C          -1.6195    8.0984    0.1050 C.ar    1  LIG1        0.0540
     25 C          -2.8402    7.7907   -0.4672 C.ar    1  LIG1        0.0493
     26 S          -2.9794    6.0615   -0.7474 S.2     1  LIG1       -0.0841
     27 S           0.7702    7.0347    1.1780 S.3     1  LIG1       -0.1397
     28 H           0.3543    7.8662    2.1591 H       1  LIG1        0.1072
     29 N          -1.1922    9.3758    0.4576 N.pl3   1  LIG1       -0.3562
     30 H          -0.1901    9.5013    0.3652 H       1  LIG1        0.1424
     31 H          -1.7086   10.1184    0.0018 H       1  LIG1        0.1424
     32 C          -3.8990    8.7108   -0.8441 C.ar    1  LIG1        0.0427
     33 C          -4.5423    9.6623   -0.0760 C.ar    1  LIG1        0.0408
     34 C          -5.5347   10.4178   -0.8023 C.ar    1  LIG1        0.0456
     35 C          -5.6472   10.0043   -2.1042 C.ar    1  LIG1       -0.0020
     36 S          -4.5340    8.7268   -2.4828 S.2     1  LIG1       -0.0931
     37 H          -6.3229   10.3797   -2.8601 H       1  LIG1        0.0712
     38 S          -4.2246    9.9304    1.6591 S.3     1  LIG1       -0.1397
     39 H          -5.5267   10.0698    1.9935 H       1  LIG1        0.1072
     40 N          -6.3293   11.3772   -0.1622 N.pl3   1  LIG1       -0.3567
     41 H          -5.7959   11.9779    0.4582 H       1  LIG1        0.1424
     42 H          -6.8848   11.9312   -0.8021 H       1  LIG1        0.1424
@<TRIPOS>BOND
     1    37    35    1
     2    36    35   ar
     3    36    32   ar
     4    35    34   ar
     5    10     9    1
     6    11     9    1
     7    20    19    1
     8    21    19    1
     9     9     3    1
    10    19    14    1
    11    32    25    1
    12    32    33   ar
    13    34    40    1
    14    34    33   ar
    15    42    40    1
    16    26    25   ar
    17    26    22   ar
    18    17    13    1
    19    17    18    1
    20    25    24   ar
    21    14    13   ar
    22    14    15   ar
    23     8     7    1
    24    13    12   ar
    25    40    41    1
    26    33    38    1
    27    22    15    1
    28    22    23   ar
    29     7     2    1
    30    31    29    1
    31     3     2   ar
    32     3     4   ar
    33    15    16   ar
    34    24    23   ar
    35    24    29    1
    36    30    29    1
    37    23    27    1
    38    12    16   ar
    39    12     4    1
    40     2     1   ar
    41     4     5   ar
    42    27    28    1
    43    38    39    1
    44     1     5   ar
    45     1     6    1
