@<TRIPOS>MOLECULE
mol_data/opt/b3lyp/geoms/mol2/5gh5gh-5gh5gh.out
 42 45 0 0 0
SMALL
GASTEIGER

@<TRIPOS>ATOM
      1 C          -1.1149   -1.6000    2.0489 C.ar    1  LIG1       -0.0087
      2 C          -0.7988   -1.8089    0.7338 C.ar    1  LIG1        0.0331
      3 C          -0.5643   -0.5855    0.0070 C.ar    1  LIG1        0.0534
      4 C          -0.6846    0.5331    0.8134 C.ar    1  LIG1        0.0487
      5 S          -1.1172    0.0749    2.4591 S.2     1  LIG1       -0.0931
      6 H          -1.3389   -2.3520    2.7917 H       1  LIG1        0.0705
      7 S          -0.8130   -3.4218   -0.0303 S.3     1  LIG1       -0.1403
      8 H           0.5180   -3.5403   -0.2385 H       1  LIG1        0.1072
      9 N          -0.2363   -0.5789   -1.3408 N.pl3   1  LIG1       -0.3562
     10 H          -0.5820   -1.3894   -1.8421 H       1  LIG1        0.1424
     11 H          -0.4399    0.2902   -1.8178 H       1  LIG1        0.1424
     12 C          -0.5266    1.9249    0.4301 C.ar    1  LIG1        0.0433
     13 C           0.5395    2.5371   -0.2015 C.ar    1  LIG1        0.0414
     14 C           0.3319    3.9368   -0.4630 C.ar    1  LIG1        0.0540
     15 C          -0.8775    4.3981    0.0245 C.ar    1  LIG1        0.0493
     16 S          -1.8024    3.0868    0.7416 S.2     1  LIG1       -0.0841
     17 S           2.0489    1.6978   -0.6544 S.3     1  LIG1       -0.1397
     18 H           2.8711    2.6456   -0.1510 H       1  LIG1        0.1072
     19 N           1.2974    4.7143   -1.0958 N.pl3   1  LIG1       -0.3562
     20 H           1.8267    4.2031   -1.7937 H       1  LIG1        0.1424
     21 H           0.9424    5.5905   -1.4591 H       1  LIG1        0.1424
     22 C          -1.4016    5.7506   -0.0426 C.ar    1  LIG1        0.0433
     23 C          -0.8190    6.9321    0.3765 C.ar    1  LIG1        0.0414
     24 C          -1.6199    8.0983    0.1133 C.ar    1  LIG1        0.0540
     25 C          -2.8404    7.7914   -0.4596 C.ar    1  LIG1        0.0493
     26 S          -2.9793    6.0626   -0.7424 S.2     1  LIG1       -0.0841
     27 S           0.7697    7.0334    1.1853 S.3     1  LIG1       -0.1397
     28 H           0.3535    7.8635    2.1674 H       1  LIG1        0.1072
     29 N          -1.1929    9.3752    0.4679 N.pl3   1  LIG1       -0.3562
     30 H          -0.1907    9.5011    0.3758 H       1  LIG1        0.1424
     31 H          -1.7092   10.1184    0.0132 H       1  LIG1        0.1424
     32 C          -3.8993    8.7119   -0.8354 C.ar    1  LIG1        0.0427
     33 C          -4.5428    9.6622   -0.0661 C.ar    1  LIG1        0.0408
     34 C          -5.5351   10.4186   -0.7915 C.ar    1  LIG1        0.0456
     35 C          -5.6473   10.0070   -2.0941 C.ar    1  LIG1       -0.0020
     36 S          -4.5339    8.7301   -2.4743 S.2     1  LIG1       -0.0931
     37 H          -6.3229   10.3834   -2.8496 H       1  LIG1        0.0712
     38 S          -4.2255    9.9279    1.6694 S.3     1  LIG1       -0.1397
     39 H          -5.5277   10.0668    2.0037 H       1  LIG1        0.1072
     40 N          -6.3300   11.3771   -0.1503 N.pl3   1  LIG1       -0.3567
     41 H          -5.7968   11.9768    0.4712 H       1  LIG1        0.1424
     42 H          -6.8853   11.9319   -0.7895 H       1  LIG1        0.1424
@<TRIPOS>BOND
     1    37    35    1
     2    36    35   ar
     3    36    32   ar
     4    35    34   ar
     5    10     9    1
     6    11     9    1
     7    20    19    1
     8    21    19    1
     9     9     3    1
    10    19    14    1
    11    32    25    1
    12    32    33   ar
    13    34    40    1
    14    34    33   ar
    15    42    40    1
    16    26    25   ar
    17    26    22   ar
    18    17    13    1
    19    17    18    1
    20    14    13   ar
    21    14    15   ar
    22    25    24   ar
    23     8     7    1
    24    13    12   ar
    25    40    41    1
    26    33    38    1
    27    22    15    1
    28    22    23   ar
    29     7     2    1
    30     3     2   ar
    31     3     4   ar
    32    31    29    1
    33    15    16   ar
    34    24    23   ar
    35    24    29    1
    36    30    29    1
    37    23    27    1
    38    12    16   ar
    39    12     4    1
    40     2     1   ar
    41     4     5   ar
    42    27    28    1
    43    38    39    1
    44     1     5   ar
    45     1     6    1
