@<TRIPOS>MOLECULE
mol_data/opt/b3lyp/geoms/mol2/5gh5gh-5gh-5gh-.out
 42 45 0 0 0
SMALL
GASTEIGER

@<TRIPOS>ATOM
      1 C          -1.1299   -1.5982    2.0502 C.ar    1  LIG1       -0.0087
      2 C          -0.8056   -1.8083    0.7373 C.ar    1  LIG1        0.0331
      3 C          -0.5661   -0.5857    0.0110 C.ar    1  LIG1        0.0534
      4 C          -0.6912    0.5336    0.8156 C.ar    1  LIG1        0.0487
      5 S          -1.1344    0.0771    2.4589 S.2     1  LIG1       -0.0931
      6 H          -1.3589   -2.3496    2.7923 H       1  LIG1        0.0705
      7 S          -0.8154   -3.4219   -0.0254 S.3     1  LIG1       -0.1403
      8 H           0.5169   -3.5412   -0.2248 H       1  LIG1        0.1072
      9 N          -0.2294   -0.5803   -1.3347 N.pl3   1  LIG1       -0.3562
     10 H          -0.5720   -1.3912   -1.8375 H       1  LIG1        0.1424
     11 H          -0.4297    0.2884   -1.8137 H       1  LIG1        0.1424
     12 C          -0.5304    1.9251    0.4321 C.ar    1  LIG1        0.0433
     13 C           0.5401    2.5365   -0.1929 C.ar    1  LIG1        0.0414
     14 C           0.3346    3.9359   -0.4571 C.ar    1  LIG1        0.0540
     15 C          -0.8780    4.3979    0.0219 C.ar    1  LIG1        0.0493
     16 S          -1.8079    3.0876    0.7340 S.2     1  LIG1       -0.0841
     17 S           2.0523    1.6964   -0.6350 S.3     1  LIG1       -0.1397
     18 H           2.8714    2.6444   -0.1271 H       1  LIG1        0.1072
     19 N           1.3045    4.7127   -1.0841 N.pl3   1  LIG1       -0.3562
     20 H           1.8383    4.2007   -1.7780 H       1  LIG1        0.1424
     21 H           0.9521    5.5886   -1.4506 H       1  LIG1        0.1424
     22 C          -1.4013    5.7505   -0.0500 C.ar    1  LIG1        0.0433
     23 C          -0.8214    6.9323    0.3720 C.ar    1  LIG1        0.0414
     24 C          -1.6204    8.0984    0.1024 C.ar    1  LIG1        0.0540
     25 C          -2.8370    7.7911   -0.4785 C.ar    1  LIG1        0.0493
     26 S          -2.9742    6.0621   -0.7608 S.2     1  LIG1       -0.0841
     27 S           0.7619    7.0341    1.1913 S.3     1  LIG1       -0.1397
     28 H           0.3392    7.8651    2.1699 H       1  LIG1        0.1072
     29 N          -1.1955    9.3756    0.4588 N.pl3   1  LIG1       -0.3562
     30 H          -0.1928    9.5012    0.3733 H       1  LIG1        0.1424
     31 H          -1.7087   10.1185   -0.0000 H       1  LIG1        0.1424
     32 C          -3.8932    8.7115   -0.8623 C.ar    1  LIG1        0.0427
     33 C          -4.5418    9.6626   -0.0983 C.ar    1  LIG1        0.0408
     34 C          -5.5291   10.4185   -0.8311 C.ar    1  LIG1        0.0456
     35 C          -5.6325   10.0056   -2.1340 C.ar    1  LIG1       -0.0020
     36 S          -4.5167    8.7282   -2.5054 S.2     1  LIG1       -0.0931
     37 H          -6.3029   10.3814   -2.8944 H       1  LIG1        0.0712
     38 S          -4.2362    9.9299    1.6391 S.3     1  LIG1       -0.1397
     39 H          -5.5406   10.0692    1.9645 H       1  LIG1        0.1072
     40 N          -6.3281   11.3776   -0.1962 N.pl3   1  LIG1       -0.3567
     41 H          -5.7991   11.9778    0.4285 H       1  LIG1        0.1424
     42 H          -6.8790   11.9320   -0.8396 H       1  LIG1        0.1424
@<TRIPOS>BOND
     1    37    35    1
     2    36    35   ar
     3    36    32   ar
     4    35    34   ar
     5    10     9    1
     6    11     9    1
     7    20    19    1
     8    21    19    1
     9     9     3    1
    10    19    14    1
    11    32    25    1
    12    32    33   ar
    13    42    40    1
    14    34    40    1
    15    34    33   ar
    16    26    25   ar
    17    26    22   ar
    18    17    13    1
    19    17    18    1
    20    25    24   ar
    21    14    13   ar
    22    14    15   ar
    23     8     7    1
    24    40    41    1
    25    13    12   ar
    26    33    38    1
    27    22    15    1
    28    22    23   ar
    29     7     2    1
    30    31    29    1
    31     3     2   ar
    32     3     4   ar
    33    15    16   ar
    34    24    23   ar
    35    24    29    1
    36    23    27    1
    37    30    29    1
    38    12    16   ar
    39    12     4    1
    40     2     1   ar
    41     4     5   ar
    42    27    28    1
    43    38    39    1
    44     1     5   ar
    45     1     6    1
