@<TRIPOS>MOLECULE
mol_data/opt/b3lyp/geoms/mol2/5gh5gh-.out
 22 23 0 0 0
SMALL
GASTEIGER

@<TRIPOS>ATOM
      1 C          -1.9103   -1.7518    0.7333 C.ar    1  LIG1       -0.0087
      2 C          -0.7297   -1.8005    0.0428 C.ar    1  LIG1        0.0331
      3 C          -0.2437   -0.4978   -0.3402 C.ar    1  LIG1        0.0534
      4 C          -1.0707    0.5203    0.1004 C.ar    1  LIG1        0.0487
      5 S          -2.4602   -0.1335    0.9651 S.2     1  LIG1       -0.0931
      6 H          -2.4741   -2.5893    1.1185 H       1  LIG1        0.0705
      7 S           0.0504   -3.3276   -0.4519 S.3     1  LIG1       -0.1403
      8 H           1.1418   -3.2444    0.3424 H       1  LIG1        0.1072
      9 N           0.9387   -0.3292   -1.0473 N.pl3   1  LIG1       -0.3562
     10 H           1.1772   -1.1273   -1.6252 H       1  LIG1        0.1424
     11 H           1.0033    0.5475   -1.5490 H       1  LIG1        0.1424
     12 C          -0.9058    1.9492   -0.1010 C.ar    1  LIG1        0.0426
     13 C           0.1764    2.7528    0.2007 C.ar    1  LIG1        0.0408
     14 C          -0.0063    4.1347   -0.1727 C.ar    1  LIG1        0.0456
     15 C          -1.2399    4.3613   -0.7254 C.ar    1  LIG1       -0.0020
     16 S          -2.1807    2.9061   -0.8414 S.2     1  LIG1       -0.0931
     17 H          -1.6468    5.3019   -1.0695 H       1  LIG1        0.0712
     18 S           1.6614    2.1710    1.0009 S.3     1  LIG1       -0.1397
     19 H           1.7664    3.2316    1.8325 H       1  LIG1        0.1072
     20 N           0.9645    5.1010    0.1205 N.pl3   1  LIG1       -0.3567
     21 H           1.9067    4.7821   -0.0816 H       1  LIG1        0.1424
     22 H           0.7892    5.9941   -0.3229 H       1  LIG1        0.1424
@<TRIPOS>BOND
     1    10     9    1
     2    11     9    1
     3    17    15    1
     4     9     3    1
     5    16    15   ar
     6    16    12   ar
     7    15    14   ar
     8     7     2    1
     9     7     8    1
    10     3     2   ar
    11     3     4   ar
    12    22    20    1
    13    14    20    1
    14    14    13   ar
    15    12     4    1
    16    12    13   ar
    17    21    20    1
    18     2     1   ar
    19     4     5   ar
    20    13    18    1
    21     1     5   ar
    22     1     6    1
    23    18    19    1
