@<TRIPOS>MOLECULE
mol_data/opt/b3lyp/geoms/mol2/5gh5gh5gh-5gh.out
 42 45 0 0 0
SMALL
GASTEIGER

@<TRIPOS>ATOM
      1 C          -1.1483   -1.5957    2.0461 C.ar    1  LIG1       -0.0087
      2 C          -0.8115   -1.8072    0.7365 C.ar    1  LIG1        0.0331
      3 C          -0.5656   -0.5853    0.0110 C.ar    1  LIG1        0.0534
      4 C          -0.6987    0.5349    0.8132 C.ar    1  LIG1        0.0487
      5 S          -1.1572    0.0801    2.4528 S.2     1  LIG1       -0.0931
      6 H          -1.3840   -2.3462    2.7868 H       1  LIG1        0.0705
      7 S          -0.8136   -3.4217   -0.0244 S.3     1  LIG1       -0.1403
      8 H           0.5205   -3.5405   -0.2115 H       1  LIG1        0.1072
      9 N          -0.2163   -0.5814   -1.3314 N.pl3   1  LIG1       -0.3562
     10 H          -0.5540   -1.3929   -1.8365 H       1  LIG1        0.1424
     11 H          -0.4125    0.2867   -1.8133 H       1  LIG1        0.1424
     12 C          -0.5346    1.9259    0.4296 C.ar    1  LIG1        0.0433
     13 C           0.5413    2.5368   -0.1865 C.ar    1  LIG1        0.0414
     14 C           0.3379    3.9359   -0.4541 C.ar    1  LIG1        0.0540
     15 C          -0.8790    4.3983    0.0135 C.ar    1  LIG1        0.0493
     16 S          -1.8151    3.0886    0.7186 S.2     1  LIG1       -0.0841
     17 S           2.0576    1.6966   -0.6138 S.3     1  LIG1       -0.1397
     18 H           2.8718    2.6454   -0.0994 H       1  LIG1        0.1072
     19 N           1.3133    4.7122   -1.0732 N.pl3   1  LIG1       -0.3562
     20 H           1.8535    4.1995   -1.7616 H       1  LIG1        0.1424
     21 H           0.9640    5.5876   -1.4439 H       1  LIG1        0.1424
     22 C          -1.4018    5.7507   -0.0646 C.ar    1  LIG1        0.0433
     23 C          -0.8257    6.9330    0.3611 C.ar    1  LIG1        0.0414
     24 C          -1.6224    8.0988    0.0831 C.ar    1  LIG1        0.0540
     25 C          -2.8338    7.7907   -0.5082 C.ar    1  LIG1        0.0493
     26 S          -2.9684    6.0613   -0.7896 S.2     1  LIG1       -0.0841
     27 S           0.7501    7.0359    1.1944 S.3     1  LIG1       -0.1397
     28 H           0.3187    7.8681    2.1683 H       1  LIG1        0.1072
     29 N          -1.2008    9.3764    0.4416 N.pl3   1  LIG1       -0.3562
     30 H          -0.1974    9.5020    0.3650 H       1  LIG1        0.1424
     31 H          -1.7100   10.1187   -0.0227 H       1  LIG1        0.1424
     32 C          -3.8866    8.7105   -0.9024 C.ar    1  LIG1        0.0427
     33 C          -4.5420    9.6624   -0.1451 C.ar    1  LIG1        0.0408
     34 C          -5.5228   10.4173   -0.8875 C.ar    1  LIG1        0.0456
     35 C          -5.6147   10.0031   -2.1908 C.ar    1  LIG1       -0.0020
     36 S          -4.4955    8.7255   -2.5510 S.2     1  LIG1       -0.0931
     37 H          -6.2783   10.3780   -2.9575 H       1  LIG1        0.0712
     38 S          -4.2519    9.9315    1.5946 S.3     1  LIG1       -0.1397
     39 H          -5.5591   10.0712    1.9082 H       1  LIG1        0.1072
     40 N          -6.3276   11.3771   -0.2607 N.pl3   1  LIG1       -0.3567
     41 H          -5.8041   11.9782    0.3678 H       1  LIG1        0.1424
     42 H          -6.8729   11.9306   -0.9096 H       1  LIG1        0.1424
@<TRIPOS>BOND
     1    37    35    1
     2    36    35   ar
     3    36    32   ar
     4    35    34   ar
     5    10     9    1
     6    11     9    1
     7    20    19    1
     8    21    19    1
     9     9     3    1
    10    19    14    1
    11    42    40    1
    12    32    25    1
    13    32    33   ar
    14    34    40    1
    15    34    33   ar
    16    26    25   ar
    17    26    22   ar
    18    17    13    1
    19    17    18    1
    20    25    24   ar
    21    14    13   ar
    22    14    15   ar
    23    40    41    1
    24     8     7    1
    25    13    12   ar
    26    33    38    1
    27    22    15    1
    28    22    23   ar
    29     7     2    1
    30    31    29    1
    31     3     2   ar
    32     3     4   ar
    33    15    16   ar
    34    24    23   ar
    35    24    29    1
    36    23    27    1
    37    30    29    1
    38    12    16   ar
    39    12     4    1
    40     2     1   ar
    41     4     5   ar
    42    27    28    1
    43    38    39    1
    44     1     5   ar
    45     1     6    1
