@<TRIPOS>MOLECULE
mol_data/opt/b3lyp/geoms/mol2/5gh5gh5gh-.out
 32 34 0 0 0
SMALL
GASTEIGER

@<TRIPOS>ATOM
      1 C          -1.6496   -1.7215    1.3683 C.ar    1  LIG1       -0.0087
      2 C          -0.8074   -1.8462    0.2967 C.ar    1  LIG1        0.0331
      3 C          -0.3782   -0.5768   -0.2362 C.ar    1  LIG1        0.0534
      4 C          -0.8951    0.4914    0.4762 C.ar    1  LIG1        0.0487
      5 S          -1.9332   -0.0721    1.7840 S.2     1  LIG1       -0.0931
      6 H          -2.1076   -2.5212    1.9325 H       1  LIG1        0.0705
      7 S          -0.3986   -3.4164   -0.4468 S.3     1  LIG1       -0.1403
      8 H           0.9053   -3.4570   -0.0900 H       1  LIG1        0.1072
      9 N           0.4744   -0.4830   -1.3266 N.pl3   1  LIG1       -0.3562
     10 H           0.4208   -1.2820   -1.9484 H       1  LIG1        0.1424
     11 H           0.4259    0.3990   -1.8206 H       1  LIG1        0.1424
     12 C          -0.6908    1.9070    0.2244 C.ar    1  LIG1        0.0433
     13 C           0.4951    2.6067    0.1058 C.ar    1  LIG1        0.0414
     14 C           0.3166    4.0030   -0.1933 C.ar    1  LIG1        0.0540
     15 C          -1.0146    4.3728   -0.2477 C.ar    1  LIG1        0.0493
     16 S          -2.0589    2.9813   -0.0000 S.2     1  LIG1       -0.0841
     17 S           2.1113    1.8749    0.3052 S.3     1  LIG1       -0.1397
     18 H           2.5885    2.8522    1.1080 H       1  LIG1        0.1072
     19 N           1.4007    4.8629   -0.3487 N.pl3   1  LIG1       -0.3562
     20 H           2.2017    4.4192   -0.7850 H       1  LIG1        0.1424
     21 H           1.1640    5.7386   -0.7993 H       1  LIG1        0.1424
     22 C          -1.5573    5.6949   -0.5070 C.ar    1  LIG1        0.0427
     23 C          -1.2939    6.8889    0.1365 C.ar    1  LIG1        0.0408
     24 C          -2.0047    8.0152   -0.4196 C.ar    1  LIG1        0.0456
     25 C          -2.8195    7.6490   -1.4591 C.ar    1  LIG1       -0.0020
     26 S          -2.7125    5.9512   -1.8066 S.2     1  LIG1       -0.0931
     27 H          -3.4767    8.2832   -2.0377 H       1  LIG1        0.0712
     28 S          -0.2123    7.0493    1.5467 S.3     1  LIG1       -0.1397
     29 H          -1.0288    7.8885    2.2218 H       1  LIG1        0.1072
     30 N          -1.9077    9.2901    0.1521 N.pl3   1  LIG1       -0.3567
     31 H          -0.9543    9.5397    0.3947 H       1  LIG1        0.1424
     32 H          -2.3329   10.0164   -0.4105 H       1  LIG1        0.1424
@<TRIPOS>BOND
     1    27    25    1
     2    10     9    1
     3    11     9    1
     4    26    25   ar
     5    26    22   ar
     6    25    24   ar
     7     9     3    1
     8    21    19    1
     9    20    19    1
    10    22    15    1
    11    22    23   ar
    12     7     8    1
    13     7     2    1
    14    24    23   ar
    15    24    30    1
    16    32    30    1
    17    19    14    1
    18    15    14   ar
    19    15    16   ar
    20     3     2   ar
    21     3     4   ar
    22    14    13   ar
    23    16    12   ar
    24    13    12   ar
    25    13    17    1
    26    23    28    1
    27    30    31    1
    28    12     4    1
    29     2     1   ar
    30    17    18    1
    31     4     5   ar
    32     1     5   ar
    33     1     6    1
    34    28    29    1
