@<TRIPOS>MOLECULE
mol_data/opt/b3lyp/geoms/mol2/5gh5gh-5gh-5gh.out
 42 45 0 0 0
SMALL
GASTEIGER

@<TRIPOS>ATOM
      1 C          -1.1308   -1.6015    2.0433 C.ar    1  LIG1       -0.0087
      2 C          -0.8051   -1.8094    0.7304 C.ar    1  LIG1        0.0331
      3 C          -0.5653   -0.5855    0.0062 C.ar    1  LIG1        0.0534
      4 C          -0.6915    0.5325    0.8126 C.ar    1  LIG1        0.0487
      5 S          -1.1362    0.0732    2.4547 S.2     1  LIG1       -0.0931
      6 H          -1.3603   -2.3541    2.7839 H       1  LIG1        0.0705
      7 S          -0.8137   -3.4218   -0.0349 S.3     1  LIG1       -0.1403
      8 H           0.5188   -3.5401   -0.2335 H       1  LIG1        0.1072
      9 N          -0.2273   -0.5779   -1.3391 N.pl3   1  LIG1       -0.3562
     10 H          -0.5693   -1.3880   -1.8435 H       1  LIG1        0.1424
     11 H          -0.4274    0.2915   -1.8169 H       1  LIG1        0.1424
     12 C          -0.5306    1.9245    0.4315 C.ar    1  LIG1        0.0433
     13 C           0.5401    2.5371   -0.1919 C.ar    1  LIG1        0.0414
     14 C           0.3346    3.9370   -0.4540 C.ar    1  LIG1        0.0540
     15 C          -0.8783    4.3980    0.0250 C.ar    1  LIG1        0.0493
     16 S          -1.8085    3.0864    0.7343 S.2     1  LIG1       -0.0841
     17 S           2.0528    1.6981   -0.6341 S.3     1  LIG1       -0.1397
     18 H           2.8713    2.6454   -0.1240 H       1  LIG1        0.1072
     19 N           1.3048    4.7149   -1.0791 N.pl3   1  LIG1       -0.3562
     20 H           1.8393    4.2040   -1.7733 H       1  LIG1        0.1424
     21 H           0.9524    5.5912   -1.4446 H       1  LIG1        0.1424
     22 C          -1.4017    5.7507   -0.0451 C.ar    1  LIG1        0.0433
     23 C          -0.8221    6.9318    0.3791 C.ar    1  LIG1        0.0414
     24 C          -1.6210    8.0983    0.1109 C.ar    1  LIG1        0.0540
     25 C          -2.8373    7.7919   -0.4711 C.ar    1  LIG1        0.0493
     26 S          -2.9743    6.0633   -0.7562 S.2     1  LIG1       -0.0841
     27 S           0.7606    7.0324    1.1995 S.3     1  LIG1       -0.1397
     28 H           0.3373    7.8617    2.1794 H       1  LIG1        0.1072
     29 N          -1.1964    9.3749    0.4695 N.pl3   1  LIG1       -0.3562
     30 H          -0.1936    9.5007    0.3850 H       1  LIG1        0.1424
     31 H          -1.7093   10.1185    0.0114 H       1  LIG1        0.1424
     32 C          -3.8933    8.7128   -0.8540 C.ar    1  LIG1        0.0427
     33 C          -4.5424    9.6626   -0.0888 C.ar    1  LIG1        0.0408
     34 C          -5.5293   10.4196   -0.8208 C.ar    1  LIG1        0.0456
     35 C          -5.6320   10.0090   -2.1245 C.ar    1  LIG1       -0.0020
     36 S          -4.5159    8.7323   -2.4975 S.2     1  LIG1       -0.0931
     37 H          -6.3019   10.3860   -2.8846 H       1  LIG1        0.0712
     38 S          -4.2377    9.9270    1.6492 S.3     1  LIG1       -0.1397
     39 H          -5.5423   10.0656    1.9741 H       1  LIG1        0.1072
     40 N          -6.3287   11.3777   -0.1847 N.pl3   1  LIG1       -0.3567
     41 H          -5.8000   11.9770    0.4411 H       1  LIG1        0.1424
     42 H          -6.8793   11.9331   -0.8276 H       1  LIG1        0.1424
@<TRIPOS>BOND
     1    37    35    1
     2    36    35   ar
     3    36    32   ar
     4    35    34   ar
     5    10     9    1
     6    11     9    1
     7    20    19    1
     8    21    19    1
     9     9     3    1
    10    19    14    1
    11    32    25    1
    12    32    33   ar
    13    42    40    1
    14    34    40    1
    15    34    33   ar
    16    26    25   ar
    17    26    22   ar
    18    17    13    1
    19    17    18    1
    20    25    24   ar
    21    14    13   ar
    22    14    15   ar
    23     8     7    1
    24    13    12   ar
    25    40    41    1
    26    33    38    1
    27    22    15    1
    28    22    23   ar
    29     7     2    1
    30     3     2   ar
    31     3     4   ar
    32    31    29    1
    33    15    16   ar
    34    24    23   ar
    35    24    29    1
    36    23    27    1
    37    30    29    1
    38    12    16   ar
    39    12     4    1
    40     2     1   ar
    41     4     5   ar
    42    27    28    1
    43    38    39    1
    44     1     5   ar
    45     1     6    1
