@<TRIPOS>MOLECULE
mol_data/opt/b3lyp/geoms/mol2/5gh5gh5gh.out
 32 34 0 0 0
SMALL
GASTEIGER

@<TRIPOS>ATOM
      1 C          -1.6416   -1.7174    1.3855 C.ar    1  LIG1       -0.0087
      2 C          -0.8030   -1.8453    0.3114 C.ar    1  LIG1        0.0331
      3 C          -0.3767   -0.5775   -0.2275 C.ar    1  LIG1        0.0534
      4 C          -0.8923    0.4929    0.4828 C.ar    1  LIG1        0.0487
      5 S          -1.9253   -0.0668    1.7961 S.2     1  LIG1       -0.0931
      6 H          -2.0970   -2.5155    1.9541 H       1  LIG1        0.0705
      7 S          -0.3950   -3.4177   -0.4276 S.3     1  LIG1       -0.1403
      8 H           0.9103   -3.4554   -0.0756 H       1  LIG1        0.1072
      9 N           0.4721   -0.4867   -1.3211 N.pl3   1  LIG1       -0.3562
     10 H           0.4170   -1.2878   -1.9400 H       1  LIG1        0.1424
     11 H           0.4211    0.3935   -1.8180 H       1  LIG1        0.1424
     12 C          -0.6898    1.9076    0.2250 C.ar    1  LIG1        0.0433
     13 C           0.4953    2.6075    0.1002 C.ar    1  LIG1        0.0414
     14 C           0.3152    4.0026   -0.2034 C.ar    1  LIG1        0.0540
     15 C          -1.0164    4.3716   -0.2545 C.ar    1  LIG1        0.0493
     16 S          -2.0590    2.9805    0.0013 S.2     1  LIG1       -0.0841
     17 S           2.1126    1.8770    0.2967 S.3     1  LIG1       -0.1397
     18 H           2.5922    2.8577    1.0941 H       1  LIG1        0.1072
     19 N           1.3983    4.8625   -0.3656 N.pl3   1  LIG1       -0.3562
     20 H           2.1982    4.4175   -0.8025 H       1  LIG1        0.1424
     21 H           1.1597    5.7361   -0.8193 H       1  LIG1        0.1424
     22 C          -1.5604    5.6924   -0.5171 C.ar    1  LIG1        0.0427
     23 C          -1.2949    6.8889    0.1209 C.ar    1  LIG1        0.0408
     24 C          -2.0080    8.0129   -0.4368 C.ar    1  LIG1        0.0456
     25 C          -2.8267    7.6425   -1.4718 C.ar    1  LIG1       -0.0020
     26 S          -2.7204    5.9435   -1.8133 S.2     1  LIG1       -0.0931
     27 H          -3.4860    8.2743   -2.0505 H       1  LIG1        0.0712
     28 S          -0.2084    7.0550    1.5268 S.3     1  LIG1       -0.1397
     29 H          -1.0227    7.8969    2.2013 H       1  LIG1        0.1072
     30 N          -1.9094    9.2900    0.1296 N.pl3   1  LIG1       -0.3567
     31 H          -0.9551    9.5407    0.3679 H       1  LIG1        0.1424
     32 H          -2.3364   10.0141   -0.4345 H       1  LIG1        0.1424
@<TRIPOS>BOND
     1    27    25    1
     2    10     9    1
     3    11     9    1
     4    26    25   ar
     5    26    22   ar
     6    25    24   ar
     7     9     3    1
     8    21    19    1
     9    20    19    1
    10    22    15    1
    11    22    23   ar
    12    24    23   ar
    13    24    30    1
    14    32    30    1
    15     7     8    1
    16     7     2    1
    17    19    14    1
    18    15    14   ar
    19    15    16   ar
    20     3     2   ar
    21     3     4   ar
    22    14    13   ar
    23    16    12   ar
    24    13    12   ar
    25    13    17    1
    26    23    28    1
    27    30    31    1
    28    12     4    1
    29    17    18    1
    30     2     1   ar
    31     4     5   ar
    32     1     5   ar
    33     1     6    1
    34    28    29    1
