@<TRIPOS>MOLECULE
mol_data/opt/b3lyp/geoms/mol2/5gh5gh.out
 22 23 0 0 0
SMALL
GASTEIGER

@<TRIPOS>ATOM
      1 C          -1.9161   -1.7531    0.7213 C.ar    1  LIG1       -0.0087
      2 C          -0.7303   -1.8003    0.0398 C.ar    1  LIG1        0.0331
      3 C          -0.2416   -0.4969   -0.3371 C.ar    1  LIG1        0.0534
      4 C          -1.0720    0.5203    0.0992 C.ar    1  LIG1        0.0487
      5 S          -2.4679   -0.1352    0.9521 S.2     1  LIG1       -0.0931
      6 H          -2.4827   -2.5913    1.1007 H       1  LIG1        0.0705
      7 S           0.0537   -3.3265   -0.4520 S.3     1  LIG1       -0.1403
      8 H           1.1391   -3.2445    0.3506 H       1  LIG1        0.1072
      9 N           0.9461   -0.3268   -1.0350 N.pl3   1  LIG1       -0.3562
     10 H           1.1889   -1.1238   -1.6127 H       1  LIG1        0.1424
     11 H           1.0143    0.5509   -1.5347 H       1  LIG1        0.1424
     12 C          -0.9056    1.9496   -0.0983 C.ar    1  LIG1        0.0426
     13 C           0.1746    2.7524    0.2128 C.ar    1  LIG1        0.0408
     14 C          -0.0052    4.1351   -0.1594 C.ar    1  LIG1        0.0456
     15 C          -1.2347    4.3629   -0.7206 C.ar    1  LIG1       -0.0020
     16 S          -2.1748    2.9081   -0.8463 S.2     1  LIG1       -0.0931
     17 H          -1.6390    5.3042   -1.0659 H       1  LIG1        0.0712
     18 S           1.6535    2.1690    1.0229 S.3     1  LIG1       -0.1397
     19 H           1.7523    3.2280    1.8573 H       1  LIG1        0.1072
     20 N           0.9635    5.1007    0.1428 N.pl3   1  LIG1       -0.3567
     21 H           1.9072    4.7819   -0.0526 H       1  LIG1        0.1424
     22 H           0.7918    5.9945   -0.3005 H       1  LIG1        0.1424
@<TRIPOS>BOND
     1    10     9    1
     2    11     9    1
     3    17    15    1
     4     9     3    1
     5    16    15   ar
     6    16    12   ar
     7    15    14   ar
     8     7     2    1
     9     7     8    1
    10     3     2   ar
    11     3     4   ar
    12    22    20    1
    13    14    20    1
    14    14    13   ar
    15    12     4    1
    16    12    13   ar
    17    21    20    1
    18     2     1   ar
    19     4     5   ar
    20    13    18    1
    21     1     5   ar
    22     1     6    1
    23    18    19    1
