@<TRIPOS>MOLECULE
mol_data/opt/b3lyp/geoms/mol2/5gh5gh5gh-5gh-.out
 42 45 0 0 0
SMALL
GASTEIGER

@<TRIPOS>ATOM
      1 C          -1.1480   -1.5927    2.0523 C.ar    1  LIG1       -0.0087
      2 C          -0.8120   -1.8063    0.7429 C.ar    1  LIG1        0.0331
      3 C          -0.5663   -0.5855    0.0154 C.ar    1  LIG1        0.0534
      4 C          -0.6988    0.5359    0.8160 C.ar    1  LIG1        0.0487
      5 S          -1.1566    0.0837    2.4565 S.2     1  LIG1       -0.0931
      6 H          -1.3835   -2.3421    2.7943 H       1  LIG1        0.0705
      7 S          -0.8148   -3.4219   -0.0155 S.3     1  LIG1       -0.1403
      8 H           0.5193   -3.5413   -0.2030 H       1  LIG1        0.1072
      9 N          -0.2178   -0.5837   -1.3272 N.pl3   1  LIG1       -0.3562
     10 H          -0.5559   -1.3960   -1.8309 H       1  LIG1        0.1424
     11 H          -0.4141    0.2837   -1.8103 H       1  LIG1        0.1424
     12 C          -0.5348    1.9263    0.4302 C.ar    1  LIG1        0.0433
     13 C           0.5409    2.5361   -0.1874 C.ar    1  LIG1        0.0414
     14 C           0.3376    3.9348   -0.4570 C.ar    1  LIG1        0.0540
     15 C          -0.8789    4.3981    0.0104 C.ar    1  LIG1        0.0493
     16 S          -1.8149    3.0896    0.7180 S.2     1  LIG1       -0.0841
     17 S           2.0570    1.6950   -0.6141 S.3     1  LIG1       -0.1397
     18 H           2.8715    2.6444   -0.1015 H       1  LIG1        0.1072
     19 N           1.3129    4.7100   -1.0778 N.pl3   1  LIG1       -0.3562
     20 H           1.8527    4.1961   -1.7656 H       1  LIG1        0.1424
     21 H           0.9636    5.5848   -1.4497 H       1  LIG1        0.1424
     22 C          -1.4016    5.7505   -0.0695 C.ar    1  LIG1        0.0433
     23 C          -0.8251    6.9334    0.3541 C.ar    1  LIG1        0.0414
     24 C          -1.6218    8.0988    0.0747 C.ar    1  LIG1        0.0540
     25 C          -2.8334    7.7900   -0.5155 C.ar    1  LIG1        0.0493
     26 S          -2.9684    6.0602   -0.7943 S.2     1  LIG1       -0.0841
     27 S           0.7511    7.0373    1.1866 S.3     1  LIG1       -0.1397
     28 H           0.3203    7.8710    2.1593 H       1  LIG1        0.1072
     29 N          -1.1998    9.3769    0.4311 N.pl3   1  LIG1       -0.3562
     30 H          -0.1964    9.5022    0.3539 H       1  LIG1        0.1424
     31 H          -1.7091   10.1185   -0.0341 H       1  LIG1        0.1424
     32 C          -3.8863    8.7093   -0.9107 C.ar    1  LIG1        0.0427
     33 C          -4.5413    9.6625   -0.1546 C.ar    1  LIG1        0.0408
     34 C          -5.5223   10.4164   -0.8977 C.ar    1  LIG1        0.0456
     35 C          -5.6148   10.0002   -2.2003 C.ar    1  LIG1       -0.0020
     36 S          -4.4960    8.7218   -2.5590 S.2     1  LIG1       -0.0931
     37 H          -6.2787   10.3740   -2.9673 H       1  LIG1        0.0712
     38 S          -4.2503    9.9343    1.5846 S.3     1  LIG1       -0.1397
     39 H          -5.5574   10.0745    1.8985 H       1  LIG1        0.1072
     40 N          -6.3266   11.3773   -0.2720 N.pl3   1  LIG1       -0.3567
     41 H          -5.8028   11.9793    0.3553 H       1  LIG1        0.1424
     42 H          -6.8722   11.9298   -0.9216 H       1  LIG1        0.1424
@<TRIPOS>BOND
     1    37    35    1
     2    36    35   ar
     3    36    32   ar
     4    35    34   ar
     5    10     9    1
     6    11     9    1
     7    20    19    1
     8    21    19    1
     9     9     3    1
    10    19    14    1
    11    42    40    1
    12    32    25    1
    13    32    33   ar
    14    34    40    1
    15    34    33   ar
    16    26    25   ar
    17    26    22   ar
    18    17    13    1
    19    17    18    1
    20    25    24   ar
    21    14    13   ar
    22    14    15   ar
    23    40    41    1
    24     8     7    1
    25    13    12   ar
    26    33    38    1
    27    22    15    1
    28    22    23   ar
    29    31    29    1
    30     7     2    1
    31    15    16   ar
    32     3     2   ar
    33     3     4   ar
    34    24    23   ar
    35    24    29    1
    36    30    29    1
    37    23    27    1
    38    12    16   ar
    39    12     4    1
    40     2     1   ar
    41     4     5   ar
    42    27    28    1
    43    38    39    1
    44     1     5   ar
    45     1     6    1
