@<TRIPOS>MOLECULE
mol_data/opt/b3lyp/geoms/mol2/5gh5gh-5gh.out
 32 34 0 0 0
SMALL
GASTEIGER

@<TRIPOS>ATOM
      1 C          -1.6302   -1.7228    1.3809 C.ar    1  LIG1       -0.0087
      2 C          -0.8020   -1.8468    0.2983 C.ar    1  LIG1        0.0331
      3 C          -0.3798   -0.5771   -0.2393 C.ar    1  LIG1        0.0534
      4 C          -0.8876    0.4907    0.4803 C.ar    1  LIG1        0.0487
      5 S          -1.9087   -0.0737    1.8010 S.2     1  LIG1       -0.0931
      6 H          -2.0807   -2.5229    1.9505 H       1  LIG1        0.0705
      7 S          -0.4025   -3.4165   -0.4511 S.3     1  LIG1       -0.1403
      8 H           0.9060   -3.4570   -0.1114 H       1  LIG1        0.1072
      9 N           0.4586   -0.4825   -1.3407 N.pl3   1  LIG1       -0.3562
     10 H           0.3971   -1.2812   -1.9621 H       1  LIG1        0.1424
     11 H           0.4035    0.3998   -1.8336 H       1  LIG1        0.1424
     12 C          -0.6868    1.9065    0.2265 C.ar    1  LIG1        0.0433
     13 C           0.4973    2.6064    0.0931 C.ar    1  LIG1        0.0414
     14 C           0.3148    4.0028   -0.2030 C.ar    1  LIG1        0.0540
     15 C          -1.0171    4.3725   -0.2402 C.ar    1  LIG1        0.0493
     16 S          -2.0579    2.9806    0.0201 S.2     1  LIG1       -0.0841
     17 S           2.1160    1.8748    0.2713 S.3     1  LIG1       -0.1397
     18 H           2.6033    2.8516    1.0687 H       1  LIG1        0.1072
     19 N           1.3967    4.8630   -0.3719 N.pl3   1  LIG1       -0.3562
     20 H           2.1921    4.4197   -0.8185 H       1  LIG1        0.1424
     21 H           1.1541    5.7389   -0.8190 H       1  LIG1        0.1424
     22 C          -1.5633    5.6946   -0.4920 C.ar    1  LIG1        0.0427
     23 C          -1.2919    6.8883    0.1487 C.ar    1  LIG1        0.0408
     24 C          -2.0099    8.0147   -0.3978 C.ar    1  LIG1        0.0456
     25 C          -2.8380    7.6489   -1.4270 C.ar    1  LIG1       -0.0020
     26 S          -2.7350    5.9513   -1.7766 S.2     1  LIG1       -0.0931
     27 H          -3.5026    8.2832   -1.9968 H       1  LIG1        0.0712
     28 S          -0.1924    7.0482    1.5450 S.3     1  LIG1       -0.1397
     29 H          -1.0004    7.8869    2.2310 H       1  LIG1        0.1072
     30 N          -1.9059    9.2894    0.1732 N.pl3   1  LIG1       -0.3567
     31 H          -0.9495    9.5390    0.4039 H       1  LIG1        0.1424
     32 H          -2.3382   10.0160   -0.3837 H       1  LIG1        0.1424
@<TRIPOS>BOND
     1    27    25    1
     2    10     9    1
     3    11     9    1
     4    26    25   ar
     5    26    22   ar
     6    25    24   ar
     7     9     3    1
     8    21    19    1
     9    20    19    1
    10    22    15    1
    11    22    23   ar
    12     7     8    1
    13     7     2    1
    14    24    23   ar
    15    24    30    1
    16    32    30    1
    17    19    14    1
    18    15    14   ar
    19    15    16   ar
    20     3     2   ar
    21     3     4   ar
    22    14    13   ar
    23    16    12   ar
    24    13    12   ar
    25    13    17    1
    26    23    28    1
    27    30    31    1
    28    12     4    1
    29    17    18    1
    30     2     1   ar
    31     4     5   ar
    32     1     5   ar
    33     1     6    1
    34    28    29    1
