@<TRIPOS>MOLECULE
mol_data/opt/b3lyp/geoms/mol2/5gh5gh5gh5gh-.out
 42 45 0 0 0
SMALL
GASTEIGER

@<TRIPOS>ATOM
      1 C          -1.1330   -1.5908    2.0590 C.ar    1  LIG1       -0.0087
      2 C          -0.8062   -1.8056    0.7475 C.ar    1  LIG1        0.0331
      3 C          -0.5655   -0.5855    0.0172 C.ar    1  LIG1        0.0534
      4 C          -0.6924    0.5366    0.8176 C.ar    1  LIG1        0.0487
      5 S          -1.1387    0.0859    2.4617 S.2     1  LIG1       -0.0931
      6 H          -1.3633   -2.3396    2.8033 H       1  LIG1        0.0705
      7 S          -0.8142   -3.4219   -0.0095 S.3     1  LIG1       -0.1403
      8 H           0.5184   -3.5414   -0.2064 H       1  LIG1        0.1072
      9 N          -0.2264   -0.5850   -1.3279 N.pl3   1  LIG1       -0.3562
     10 H          -0.5680   -1.3977   -1.8284 H       1  LIG1        0.1424
     11 H          -0.4261    0.2820   -1.8104 H       1  LIG1        0.1424
     12 C          -0.5311    1.9267    0.4295 C.ar    1  LIG1        0.0433
     13 C           0.5402    2.5359   -0.1963 C.ar    1  LIG1        0.0414
     14 C           0.3350    3.9345   -0.4657 C.ar    1  LIG1        0.0540
     15 C          -0.8782    4.3981    0.0101 C.ar    1  LIG1        0.0493
     16 S          -1.8091    3.0902    0.7254 S.2     1  LIG1       -0.0841
     17 S           2.0532    1.6945   -0.6331 S.3     1  LIG1       -0.1397
     18 H           2.8713    2.6444   -0.1271 H       1  LIG1        0.1072
     19 N           1.3058    4.7091   -1.0940 N.pl3   1  LIG1       -0.3562
     20 H           1.8407    4.1946   -1.7853 H       1  LIG1        0.1424
     21 H           0.9539    5.5836   -1.4642 H       1  LIG1        0.1424
     22 C          -1.4014    5.7504   -0.0672 C.ar    1  LIG1        0.0433
     23 C          -0.8219    6.9337    0.3512 C.ar    1  LIG1        0.0414
     24 C          -1.6206    8.0989    0.0765 C.ar    1  LIG1        0.0540
     25 C          -2.8365    7.7895   -0.5047 C.ar    1  LIG1        0.0493
     26 S          -2.9735    6.0595   -0.7810 S.2     1  LIG1       -0.0841
     27 S           0.7603    7.0384    1.1723 S.3     1  LIG1       -0.1397
     28 H           0.3363    7.8729    2.1474 H       1  LIG1        0.1072
     29 N          -1.1962    9.3773    0.4289 N.pl3   1  LIG1       -0.3562
     30 H          -0.1933    9.5026    0.3442 H       1  LIG1        0.1424
     31 H          -1.7088   10.1185   -0.0332 H       1  LIG1        0.1424
     32 C          -3.8922    8.7085   -0.8930 C.ar    1  LIG1        0.0427
     33 C          -4.5417    9.6623   -0.1330 C.ar    1  LIG1        0.0408
     34 C          -5.5280   10.4156   -0.8696 C.ar    1  LIG1        0.0456
     35 C          -5.6299    9.9983   -2.1712 C.ar    1  LIG1       -0.0020
     36 S          -4.5137    8.7197   -2.5370 S.2     1  LIG1       -0.0931
     37 H          -6.2994   10.3715   -2.9337 H       1  LIG1        0.0712
     38 S          -4.2382    9.9355    1.6038 S.3     1  LIG1       -0.1397
     39 H          -5.5430   10.0763    1.9270 H       1  LIG1        0.1072
     40 N          -6.3278   11.3770   -0.2389 N.pl3   1  LIG1       -0.3567
     41 H          -5.7994   11.9796    0.3839 H       1  LIG1        0.1424
     42 H          -6.8782   11.9289   -0.8850 H       1  LIG1        0.1424
@<TRIPOS>BOND
     1    37    35    1
     2    36    35   ar
     3    36    32   ar
     4    35    34   ar
     5    10     9    1
     6    11     9    1
     7    20    19    1
     8    21    19    1
     9     9     3    1
    10    19    14    1
    11    32    25    1
    12    32    33   ar
    13    42    40    1
    14    34    40    1
    15    34    33   ar
    16    26    25   ar
    17    26    22   ar
    18    17    13    1
    19    17    18    1
    20    25    24   ar
    21    14    13   ar
    22    14    15   ar
    23    40    41    1
    24     8     7    1
    25    13    12   ar
    26    33    38    1
    27    22    15    1
    28    22    23   ar
    29    31    29    1
    30     7     2    1
    31    15    16   ar
    32     3     2   ar
    33     3     4   ar
    34    24    23   ar
    35    24    29    1
    36    30    29    1
    37    23    27    1
    38    12    16   ar
    39    12     4    1
    40     2     1   ar
    41     4     5   ar
    42    27    28    1
    43    38    39    1
    44     1     5   ar
    45     1     6    1
