@<TRIPOS>MOLECULE
mol_data/opt/b3lyp/geoms/mol2/5gh5gh-5gh-.out
 32 34 0 0 0
SMALL
GASTEIGER

@<TRIPOS>ATOM
      1 C          -1.6295   -1.7240    1.3804 C.ar    1  LIG1       -0.0087
      2 C          -0.7997   -1.8469    0.2989 C.ar    1  LIG1        0.0331
      3 C          -0.3773   -0.5765   -0.2373 C.ar    1  LIG1        0.0534
      4 C          -0.8866    0.4905    0.4823 C.ar    1  LIG1        0.0487
      5 S          -1.9093   -0.0752    1.8013 S.2     1  LIG1       -0.0931
      6 H          -2.0804   -2.5246    1.9488 H       1  LIG1        0.0705
      7 S          -0.3984   -3.4158   -0.4512 S.3     1  LIG1       -0.1403
      8 H           0.9096   -3.4560   -0.1096 H       1  LIG1        0.1072
      9 N           0.4625   -0.4810   -1.3374 N.pl3   1  LIG1       -0.3562
     10 H           0.4021   -1.2792   -1.9595 H       1  LIG1        0.1424
     11 H           0.4079    0.4016   -1.8298 H       1  LIG1        0.1424
     12 C          -0.6862    1.9066    0.2300 C.ar    1  LIG1        0.0433
     13 C           0.4977    2.6073    0.0981 C.ar    1  LIG1        0.0414
     14 C           0.3147    4.0038   -0.1973 C.ar    1  LIG1        0.0540
     15 C          -1.0173    4.3728   -0.2355 C.ar    1  LIG1        0.0493
     16 S          -2.0576    2.9802    0.0230 S.2     1  LIG1       -0.0841
     17 S           2.1168    1.8766    0.2777 S.3     1  LIG1       -0.1397
     18 H           2.6021    2.8528    1.0770 H       1  LIG1        0.1072
     19 N           1.3964    4.8646   -0.3644 N.pl3   1  LIG1       -0.3562
     20 H           2.1927    4.4218   -0.8100 H       1  LIG1        0.1424
     21 H           1.1540    5.7405   -0.8114 H       1  LIG1        0.1424
     22 C          -1.5640    5.6948   -0.4865 C.ar    1  LIG1        0.0427
     23 C          -1.2940    6.8881    0.1556 C.ar    1  LIG1        0.0408
     24 C          -2.0121    8.0146   -0.3905 C.ar    1  LIG1        0.0456
     25 C          -2.8386    7.6494   -1.4210 C.ar    1  LIG1       -0.0020
     26 S          -2.7343    5.9521   -1.7723 S.2     1  LIG1       -0.0931
     27 H          -3.5030    8.2838   -1.9911 H       1  LIG1        0.0712
     28 S          -0.1961    7.0473    1.5533 S.3     1  LIG1       -0.1397
     29 H          -1.0059    7.8838    2.2398 H       1  LIG1        0.1072
     30 N          -1.9095    9.2887    0.1821 N.pl3   1  LIG1       -0.3567
     31 H          -0.9535    9.5386    0.4141 H       1  LIG1        0.1424
     32 H          -2.3416   10.0156   -0.3745 H       1  LIG1        0.1424
@<TRIPOS>BOND
     1    27    25    1
     2    10     9    1
     3    11     9    1
     4    26    25   ar
     5    26    22   ar
     6    25    24   ar
     7     9     3    1
     8    21    19    1
     9    20    19    1
    10    22    15    1
    11    22    23   ar
    12     7     8    1
    13     7     2    1
    14    24    23   ar
    15    24    30    1
    16    32    30    1
    17    19    14    1
    18     3     2   ar
    19     3     4   ar
    20    15    14   ar
    21    15    16   ar
    22    14    13   ar
    23    16    12   ar
    24    13    12   ar
    25    13    17    1
    26    23    28    1
    27    30    31    1
    28    12     4    1
    29    17    18    1
    30     2     1   ar
    31     4     5   ar
    32     1     5   ar
    33     1     6    1
    34    28    29    1
