@<TRIPOS>MOLECULE
mol_data/opt/b3lyp/geoms/mol2/5gh5gh5gh5gh.out
 42 45 0 0 0
SMALL
GASTEIGER

@<TRIPOS>ATOM
      1 C          -1.1326   -1.5933    2.0542 C.ar    1  LIG1       -0.0087
      2 C          -0.8055   -1.8064    0.7424 C.ar    1  LIG1        0.0331
      3 C          -0.5649   -0.5853    0.0137 C.ar    1  LIG1        0.0534
      4 C          -0.6920    0.5358    0.8155 C.ar    1  LIG1        0.0487
      5 S          -1.1385    0.0829    2.4590 S.2     1  LIG1       -0.0931
      6 H          -1.3628   -2.3430    2.7974 H       1  LIG1        0.0705
      7 S          -0.8133   -3.4217   -0.0167 S.3     1  LIG1       -0.1403
      8 H           0.5194   -3.5408   -0.2135 H       1  LIG1        0.1072
      9 N          -0.2256   -0.5830   -1.3313 N.pl3   1  LIG1       -0.3562
     10 H          -0.5670   -1.3951   -1.8329 H       1  LIG1        0.1424
     11 H          -0.4253    0.2845   -1.8128 H       1  LIG1        0.1424
     12 C          -0.5308    1.9264    0.4292 C.ar    1  LIG1        0.0433
     13 C           0.5405    2.5366   -0.1956 C.ar    1  LIG1        0.0414
     14 C           0.3351    3.9354   -0.4632 C.ar    1  LIG1        0.0540
     15 C          -0.8782    4.3983    0.0130 C.ar    1  LIG1        0.0493
     16 S          -1.8090    3.0894    0.7265 S.2     1  LIG1       -0.0841
     17 S           2.0536    1.6960   -0.6333 S.3     1  LIG1       -0.1397
     18 H           2.8716    2.6453   -0.1261 H       1  LIG1        0.1072
     19 N           1.3059    4.7110   -1.0904 N.pl3   1  LIG1       -0.3562
     20 H           1.8409    4.1975   -1.7823 H       1  LIG1        0.1424
     21 H           0.9539    5.5860   -1.4594 H       1  LIG1        0.1424
     22 C          -1.4015    5.7507   -0.0626 C.ar    1  LIG1        0.0433
     23 C          -0.8223    6.9335    0.3575 C.ar    1  LIG1        0.0414
     24 C          -1.6211    8.0989    0.0843 C.ar    1  LIG1        0.0540
     25 C          -2.8369    7.7901   -0.4976 C.ar    1  LIG1        0.0493
     26 S          -2.9735    6.0605   -0.7762 S.2     1  LIG1       -0.0841
     27 S           0.7597    7.0373    1.1789 S.3     1  LIG1       -0.1397
     28 H           0.3355    7.8704    2.1551 H       1  LIG1        0.1072
     29 N          -1.1969    9.3769    0.4384 N.pl3   1  LIG1       -0.3562
     30 H          -0.1941    9.5025    0.3540 H       1  LIG1        0.1424
     31 H          -1.7096   10.1187   -0.0228 H       1  LIG1        0.1424
     32 C          -3.8926    8.7095   -0.8849 C.ar    1  LIG1        0.0427
     33 C          -4.5423    9.6622   -0.1237 C.ar    1  LIG1        0.0408
     34 C          -5.5287   10.4164   -0.8594 C.ar    1  LIG1        0.0456
     35 C          -5.6303   10.0008   -2.1616 C.ar    1  LIG1       -0.0020
     36 S          -4.5139    8.7228   -2.5289 S.2     1  LIG1       -0.0931
     37 H          -6.2997   10.3749   -2.9237 H       1  LIG1        0.0712
     38 S          -4.2391    9.9332    1.6135 S.3     1  LIG1       -0.1397
     39 H          -5.5439   10.0734    1.9367 H       1  LIG1        0.1072
     40 N          -6.3287   11.3768   -0.2276 N.pl3   1  LIG1       -0.3567
     41 H          -5.8004   11.9787    0.3962 H       1  LIG1        0.1424
     42 H          -6.8790   11.9295   -0.8729 H       1  LIG1        0.1424
@<TRIPOS>BOND
     1    37    35    1
     2    36    35   ar
     3    36    32   ar
     4    35    34   ar
     5    10     9    1
     6    11     9    1
     7    20    19    1
     8    21    19    1
     9     9     3    1
    10    19    14    1
    11    32    25    1
    12    32    33   ar
    13    42    40    1
    14    34    40    1
    15    34    33   ar
    16    26    25   ar
    17    26    22   ar
    18    17    13    1
    19    17    18    1
    20    25    24   ar
    21    14    13   ar
    22    14    15   ar
    23    40    41    1
    24     8     7    1
    25    13    12   ar
    26    33    38    1
    27    22    15    1
    28    22    23   ar
    29    31    29    1
    30     7     2    1
    31    15    16   ar
    32     3     2   ar
    33     3     4   ar
    34    24    23   ar
    35    24    29    1
    36    30    29    1
    37    23    27    1
    38    12    16   ar
    39    12     4    1
    40     2     1   ar
    41     4     5   ar
    42    27    28    1
    43    38    39    1
    44     1     5   ar
    45     1     6    1
