@<TRIPOS>MOLECULE
mol_data/opt/b3lyp/geoms/mol2/5gi.out
 13 13 0 0 0
SMALL
GASTEIGER

@<TRIPOS>ATOM
      1 C          -2.1184   -1.7146    0.0034 C.ar    1  LIG1       -0.0109
      2 C          -0.7521   -1.6491    0.0600 C.ar    1  LIG1        0.0147
      3 C          -0.2432   -0.2973    0.0690 C.ar    1  LIG1       -0.0303
      4 C          -1.2631    0.6121    0.0087 C.ar    1  LIG1       -0.0204
      5 S          -2.8299   -0.1367   -0.0377 S.2     1  LIG1       -0.1037
      6 H          -2.7354   -2.6012   -0.0186 H       1  LIG1        0.0704
      7 H          -1.1830    1.6906   -0.0004 H       1  LIG1        0.0696
      8 S           0.2490   -3.1203    0.2341 S.3     1  LIG1       -0.1418
      9 H           0.9682   -2.9905   -0.9025 H       1  LIG1        0.1071
     10 C           1.2150    0.0575    0.1333 C.3     1  LIG1       -0.0382
     11 H           1.3525    1.1384    0.2150 H       1  LIG1        0.0278
     12 H           1.7518   -0.2805   -0.7613 H       1  LIG1        0.0278
     13 H           1.6973   -0.4191    0.9932 H       1  LIG1        0.0278
@<TRIPOS>BOND
     1     9     8    1
     2    12    10    1
     3     5     1   ar
     4     5     4   ar
     5     6     1    1
     6     7     4    1
     7     1     2   ar
     8     4     3   ar
     9     2     3   ar
    10     2     8    1
    11     3    10    1
    12    10    11    1
    13    10    13    1
