@<TRIPOS>MOLECULE
mol_data/opt/b3lyp/geoms/mol2/5gi5gi-.out
 24 25 0 0 0
SMALL
GASTEIGER

@<TRIPOS>ATOM
      1 C          -1.9988   -1.6974   -0.8288 C.ar    1  LIG1       -0.0103
      2 C          -0.7799   -1.8152   -0.2170 C.ar    1  LIG1        0.0153
      3 C          -0.2278   -0.5567    0.2189 C.ar    1  LIG1       -0.0220
      4 C          -1.0529    0.4999   -0.1064 C.ar    1  LIG1        0.0309
      5 S          -2.5163   -0.0524   -0.9113 S.2     1  LIG1       -0.0947
      6 H          -2.6087   -2.4913   -1.2355 H       1  LIG1        0.0704
      7 S          -0.0554   -3.4164    0.1095 S.3     1  LIG1       -0.1418
      8 H           1.0955   -3.2401   -0.5758 H       1  LIG1        0.1071
      9 C           1.0652   -0.4368    0.9727 C.3     1  LIG1       -0.0376
     10 H           1.1587    0.5452    1.4411 H       1  LIG1        0.0278
     11 H           1.9316   -0.5743    0.3145 H       1  LIG1        0.0278
     12 H           1.1251   -1.2046    1.7503 H       1  LIG1        0.0278
     13 C          -0.8611    1.9255    0.1400 C.ar    1  LIG1        0.0396
     14 C           0.1534    2.7634   -0.2799 C.ar    1  LIG1        0.0230
     15 C           0.0016    4.1303    0.1547 C.ar    1  LIG1       -0.0297
     16 C          -1.1456    4.2976    0.8806 C.ar    1  LIG1       -0.0197
     17 S          -2.0332    2.8270    1.0869 S.2     1  LIG1       -0.0947
     18 H          -1.5117    5.2156    1.3202 H       1  LIG1        0.0696
     19 S           1.5337    2.1744   -1.2465 S.3     1  LIG1       -0.1412
     20 H           1.6107    3.2372   -2.0735 H       1  LIG1        0.1071
     21 C           0.9705    5.2343   -0.1610 C.3     1  LIG1       -0.0382
     22 H           0.6834    6.1598    0.3439 H       1  LIG1        0.0278
     23 H           1.0109    5.4461   -1.2370 H       1  LIG1        0.0278
     24 H           1.9863    4.9718    0.1539 H       1  LIG1        0.0278
@<TRIPOS>BOND
     1    20    19    1
     2    19    14    1
     3    23    21    1
     4     6     1    1
     5     5     1   ar
     6     5     4   ar
     7     1     2   ar
     8     8     7    1
     9    14    13   ar
    10    14    15   ar
    11     2     7    1
    12     2     3   ar
    13    21    24    1
    14    21    15    1
    15    21    22    1
    16     4    13    1
    17     4     3   ar
    18    13    17   ar
    19    15    16   ar
    20     3     9    1
    21    11     9    1
    22    16    17   ar
    23    16    18    1
    24     9    10    1
    25     9    12    1
