@<TRIPOS>MOLECULE
mol_data/opt/b3lyp/geoms/mol2/5gi5gi5gi-5gi-.out
 46 49 0 0 0
SMALL
GASTEIGER

@<TRIPOS>ATOM
      1 C          -1.1383   -1.3946   -2.4092 C.ar    1  LIG1       -0.0103
      2 C          -0.9044   -1.6929   -1.0936 C.ar    1  LIG1        0.0153
      3 C          -0.6474   -0.5345   -0.2752 C.ar    1  LIG1       -0.0220
      4 C          -0.6711    0.6274   -1.0187 C.ar    1  LIG1        0.0309
      5 S          -1.0438    0.3030   -2.7068 S.2     1  LIG1       -0.0947
      6 H          -1.3540   -2.0863   -3.2109 H       1  LIG1        0.0704
      7 S          -1.0557   -3.3646   -0.4792 S.3     1  LIG1       -0.1418
      8 H           0.2014   -3.5000   -0.0031 H       1  LIG1        0.1071
      9 C          -0.4295   -0.6026    1.2087 C.3     1  LIG1       -0.0376
     10 H          -0.5275    0.3831    1.6682 H       1  LIG1        0.0278
     11 H           0.5688   -0.9851    1.4532 H       1  LIG1        0.0278
     12 H          -1.1565   -1.2786    1.6695 H       1  LIG1        0.0278
     13 C          -0.4533    2.0028   -0.5819 C.ar    1  LIG1        0.0402
     14 C           0.6470    2.5695    0.0315 C.ar    1  LIG1        0.0236
     15 C           0.5055    3.9721    0.3216 C.ar    1  LIG1       -0.0214
     16 C          -0.7026    4.4701   -0.1217 C.ar    1  LIG1        0.0315
     17 S          -1.6918    3.2129   -0.8367 S.2     1  LIG1       -0.0858
     18 S           2.0947    1.6134    0.4545 S.3     1  LIG1       -0.1412
     19 H           3.0064    2.5198    0.0455 H       1  LIG1        0.1071
     20 C           1.5425    4.7736    1.0546 C.3     1  LIG1       -0.0375
     21 H           1.1365    5.7322    1.3838 H       1  LIG1        0.0278
     22 H           2.4161    4.9853    0.4255 H       1  LIG1        0.0278
     23 H           1.8989    4.2263    1.9333 H       1  LIG1        0.0278
     24 C          -1.2175    5.8331   -0.0415 C.ar    1  LIG1        0.0402
     25 C          -0.6881    7.0063   -0.5433 C.ar    1  LIG1        0.0236
     26 C          -1.4818    8.1761   -0.2728 C.ar    1  LIG1       -0.0214
     27 C          -2.6437    7.8651    0.4031 C.ar    1  LIG1        0.0315
     28 S          -2.7399    6.1530    0.7613 S.2     1  LIG1       -0.0858
     29 S           0.8667    7.0475   -1.4205 S.3     1  LIG1       -0.1412
     30 H           0.4731    7.8947   -2.3936 H       1  LIG1        0.1071
     31 C          -1.0643    9.5673   -0.6550 C.3     1  LIG1       -0.0375
     32 H          -1.6752   10.3130   -0.1422 H       1  LIG1        0.0278
     33 H          -1.1661    9.7438   -1.7330 H       1  LIG1        0.0278
     34 H          -0.0147    9.7380   -0.3947 H       1  LIG1        0.0278
     35 C          -3.7187    8.7533    0.8339 C.ar    1  LIG1        0.0396
     36 C          -4.5305    9.5809    0.0827 C.ar    1  LIG1        0.0230
     37 C          -5.5059   10.3055    0.8595 C.ar    1  LIG1       -0.0297
     38 C          -5.4204    9.9879    2.1874 C.ar    1  LIG1       -0.0197
     39 S          -4.1580    8.8560    2.5304 S.2     1  LIG1       -0.0947
     40 H          -6.0311   10.3751    2.9919 H       1  LIG1        0.0696
     41 S          -4.3487    9.7428   -1.6857 S.3     1  LIG1       -0.1412
     42 H          -5.6651    9.7489   -1.9797 H       1  LIG1        0.1071
     43 C          -6.4999   11.2737    0.2836 C.3     1  LIG1       -0.0382
     44 H          -7.0665   11.7673    1.0768 H       1  LIG1        0.0278
     45 H          -7.2221   10.7732   -0.3736 H       1  LIG1        0.0278
     46 H          -6.0008   12.0443   -0.3138 H       1  LIG1        0.0278
@<TRIPOS>BOND
     1     6     1    1
     2     5     1   ar
     3     5     4   ar
     4     1     2   ar
     5    30    29    1
     6    42    41    1
     7    33    31    1
     8    41    36    1
     9    29    25    1
    10     2     7    1
    11     2     3   ar
    12     4    13    1
    13     4     3   ar
    14    17    13   ar
    15    17    16   ar
    16    31    34    1
    17    31    26    1
    18    31    32    1
    19    13    14   ar
    20    25    26   ar
    21    25    24   ar
    22     7     8    1
    23    45    43    1
    24    46    43    1
    25     3     9    1
    26    26    27   ar
    27    16    24    1
    28    16    15   ar
    29    24    28   ar
    30    14    15   ar
    31    14    18    1
    32    19    18    1
    33    36    35   ar
    34    36    37   ar
    35    43    37    1
    36    43    44    1
    37    15    20    1
    38    27    28   ar
    39    27    35    1
    40    22    20    1
    41    35    39   ar
    42    37    38   ar
    43    20    21    1
    44    20    23    1
    45     9    11    1
    46     9    10    1
    47     9    12    1
    48    38    39   ar
    49    38    40    1
