@<TRIPOS>MOLECULE
mol_data/opt/b3lyp/geoms/mol2/5gi5gi-5gi5gi.out
 46 49 0 0 0
SMALL
GASTEIGER

@<TRIPOS>ATOM
      1 C          -1.1804   -1.3854   -2.4146 C.ar    1  LIG1       -0.0103
      2 C          -0.9246   -1.6890   -1.1043 C.ar    1  LIG1        0.0153
      3 C          -0.6538   -0.5338   -0.2857 C.ar    1  LIG1       -0.0220
      4 C          -0.6897    0.6310   -1.0241 C.ar    1  LIG1        0.0309
      5 S          -1.0905    0.3134   -2.7070 S.2     1  LIG1       -0.0947
      6 H          -1.4095   -2.0739   -3.2153 H       1  LIG1        0.0704
      7 S          -1.0658   -3.3632   -0.4942 S.3     1  LIG1       -0.1418
      8 H           0.1993   -3.5006   -0.0402 H       1  LIG1        0.1071
      9 C          -0.4112   -0.6077    1.1941 C.3     1  LIG1       -0.0376
     10 H          -0.5026    0.3760    1.6592 H       1  LIG1        0.0278
     11 H           0.5915   -0.9901    1.4203 H       1  LIG1        0.0278
     12 H          -1.1297   -1.2865    1.6641 H       1  LIG1        0.0278
     13 C          -0.4644    2.0046   -0.5854 C.ar    1  LIG1        0.0402
     14 C           0.6463    2.5688    0.0115 C.ar    1  LIG1        0.0236
     15 C           0.5100    3.9702    0.3094 C.ar    1  LIG1       -0.0214
     16 C          -0.7053    4.4701   -0.1114 C.ar    1  LIG1        0.0315
     17 S          -1.7068    3.2159   -0.8145 S.2     1  LIG1       -0.0858
     18 S           2.1007    1.6108    0.4062 S.3     1  LIG1       -0.1412
     19 H           3.0056    2.5186   -0.0147 H       1  LIG1        0.1071
     20 C           1.5593    4.7688    1.0280 C.3     1  LIG1       -0.0375
     21 H           1.1591    5.7263    1.3673 H       1  LIG1        0.0278
     22 H           2.4224    4.9824    0.3852 H       1  LIG1        0.0278
     23 H           1.9300    4.2182    1.8987 H       1  LIG1        0.0278
     24 C          -1.2184    5.8329   -0.0169 C.ar    1  LIG1        0.0402
     25 C          -0.6972    7.0077   -0.5234 C.ar    1  LIG1        0.0236
     26 C          -1.4854    8.1769   -0.2346 C.ar    1  LIG1       -0.0214
     27 C          -2.6355    7.8638    0.4602 C.ar    1  LIG1        0.0315
     28 S          -2.7264    6.1504    0.8134 S.2     1  LIG1       -0.0858
     29 S           0.8422    7.0516   -1.4272 S.3     1  LIG1       -0.1412
     30 H           0.4320    7.9019   -2.3906 H       1  LIG1        0.1071
     31 C          -1.0738    9.5693   -0.6185 C.3     1  LIG1       -0.0375
     32 H          -1.6755   10.3133   -0.0925 H       1  LIG1        0.0278
     33 H          -1.1935    9.7500   -1.6940 H       1  LIG1        0.0278
     34 H          -0.0198    9.7386   -0.3753 H       1  LIG1        0.0278
     35 C          -3.7027    8.7506    0.9129 C.ar    1  LIG1        0.0396
     36 C          -4.5270    9.5817    0.1793 C.ar    1  LIG1        0.0230
     37 C          -5.4887   10.3031    0.9759 C.ar    1  LIG1       -0.0297
     38 C          -5.3807    9.9797    2.3007 C.ar    1  LIG1       -0.0197
     39 S          -4.1130    8.8459    2.6171 S.2     1  LIG1       -0.0947
     40 H          -5.9774   10.3635    3.1172 H       1  LIG1        0.0696
     41 S          -4.3756    9.7513   -1.5911 S.3     1  LIG1       -0.1412
     42 H          -5.6970    9.7595   -1.8623 H       1  LIG1        0.1071
     43 C          -6.4921   11.2741    0.4214 C.3     1  LIG1       -0.0382
     44 H          -7.0450   11.7642    1.2264 H       1  LIG1        0.0278
     45 H          -7.2256   10.7768   -0.2257 H       1  LIG1        0.0278
     46 H          -6.0031   12.0474   -0.1809 H       1  LIG1        0.0278
@<TRIPOS>BOND
     1     6     1    1
     2     5     1   ar
     3     5     4   ar
     4     1     2   ar
     5    30    29    1
     6    42    41    1
     7    33    31    1
     8    41    36    1
     9    29    25    1
    10     2     7    1
    11     2     3   ar
    12     4    13    1
    13     4     3   ar
    14    17    13   ar
    15    17    16   ar
    16    31    34    1
    17    31    26    1
    18    31    32    1
    19    13    14   ar
    20    25    26   ar
    21    25    24   ar
    22     7     8    1
    23     3     9    1
    24    26    27   ar
    25    45    43    1
    26    46    43    1
    27    16    24    1
    28    16    15   ar
    29    24    28   ar
    30    19    18    1
    31    14    15   ar
    32    14    18    1
    33    36    35   ar
    34    36    37   ar
    35    15    20    1
    36    22    20    1
    37    43    37    1
    38    43    44    1
    39    27    28   ar
    40    27    35    1
    41    35    39   ar
    42    37    38   ar
    43    20    21    1
    44    20    23    1
    45     9    11    1
    46     9    10    1
    47     9    12    1
    48    38    39   ar
    49    38    40    1
