@<TRIPOS>MOLECULE
mol_data/opt/b3lyp/geoms/mol2/5gi5gi5gi5gi-.out
 46 49 0 0 0
SMALL
GASTEIGER

@<TRIPOS>ATOM
      1 C          -1.1615   -1.3996   -2.3944 C.ar    1  LIG1       -0.0103
      2 C          -0.9153   -1.6953   -1.0805 C.ar    1  LIG1        0.0153
      3 C          -0.6505   -0.5352   -0.2669 C.ar    1  LIG1       -0.0220
      4 C          -0.6811    0.6252   -1.0125 C.ar    1  LIG1        0.0309
      5 S          -1.0695    0.2973   -2.6964 S.2     1  LIG1       -0.0947
      6 H          -1.3848   -2.0930   -3.1926 H       1  LIG1        0.0704
      7 S          -1.0608   -3.3657   -0.4613 S.3     1  LIG1       -0.1418
      8 H           0.2008   -3.5002    0.0031 H       1  LIG1        0.1071
      9 C          -0.4188   -0.6002    1.2150 C.3     1  LIG1       -0.0376
     10 H          -0.5130    0.3864    1.6734 H       1  LIG1        0.0278
     11 H           0.5819   -0.9818    1.4510 H       1  LIG1        0.0278
     12 H          -1.1412   -1.2756    1.6839 H       1  LIG1        0.0278
     13 C          -0.4590    2.0015   -0.5807 C.ar    1  LIG1        0.0402
     14 C           0.6470    2.5694    0.0211 C.ar    1  LIG1        0.0236
     15 C           0.5084    3.9726    0.3093 C.ar    1  LIG1       -0.0214
     16 C          -0.7037    4.4699   -0.1238 C.ar    1  LIG1        0.0315
     17 S          -1.6997    3.2112   -0.8268 S.2     1  LIG1       -0.0858
     18 S           2.0985    1.6141    0.4328 S.3     1  LIG1       -0.1412
     19 H           3.0065    2.5193    0.0129 H       1  LIG1        0.1071
     20 C           1.5523    4.7757    1.0308 C.3     1  LIG1       -0.0375
     21 H           1.1494    5.7352    1.3615 H       1  LIG1        0.0278
     22 H           2.4200    4.9858    0.3931 H       1  LIG1        0.0278
     23 H           1.9168    4.2305    1.9074 H       1  LIG1        0.0278
     24 C          -1.2176    5.8331   -0.0417 C.ar    1  LIG1        0.0402
     25 C          -0.6929    7.0050   -0.5514 C.ar    1  LIG1        0.0236
     26 C          -1.4838    8.1756   -0.2760 C.ar    1  LIG1       -0.0214
     27 C          -2.6392    7.8663    0.4117 C.ar    1  LIG1        0.0315
     28 S          -2.7323    6.1551    0.7747 S.2     1  LIG1       -0.0858
     29 S           0.8535    7.0440   -1.4433 S.3     1  LIG1       -0.1412
     30 H           0.4507    7.8883   -2.4150 H       1  LIG1        0.1071
     31 C          -1.0698    9.5658   -0.6654 C.3     1  LIG1       -0.0375
     32 H          -1.6757   10.3128   -0.1486 H       1  LIG1        0.0278
     33 H          -1.1818    9.7398   -1.7429 H       1  LIG1        0.0278
     34 H          -0.0177    9.7370   -0.4156 H       1  LIG1        0.0278
     35 C          -3.7100    8.7557    0.8505 C.ar    1  LIG1        0.0396
     36 C          -4.5290    9.5816    0.1052 C.ar    1  LIG1        0.0230
     37 C          -5.4969   10.3079    0.8897 C.ar    1  LIG1       -0.0297
     38 C          -5.3989    9.9933    2.2173 C.ar    1  LIG1       -0.0197
     39 S          -4.1333    8.8621    2.5509 S.2     1  LIG1       -0.0947
     40 H          -6.0018   10.3823    3.0268 H       1  LIG1        0.0696
     41 S          -4.3639    9.7395   -1.6651 S.3     1  LIG1       -0.1412
     42 H          -5.6832    9.7453   -1.9467 H       1  LIG1        0.1071
     43 C          -6.4964   11.2748    0.3211 C.3     1  LIG1       -0.0382
     44 H          -7.0555   11.7701    1.1185 H       1  LIG1        0.0278
     45 H          -7.2248   10.7729   -0.3282 H       1  LIG1        0.0278
     46 H          -6.0030   12.0442   -0.2827 H       1  LIG1        0.0278
@<TRIPOS>BOND
     1     6     1    1
     2     5     1   ar
     3     5     4   ar
     4    30    29    1
     5     1     2   ar
     6    42    41    1
     7    33    31    1
     8    41    36    1
     9    29    25    1
    10     2     7    1
    11     2     3   ar
    12     4    13    1
    13     4     3   ar
    14    17    13   ar
    15    17    16   ar
    16    31    34    1
    17    31    26    1
    18    31    32    1
    19    13    14   ar
    20    25    26   ar
    21    25    24   ar
    22     7     8    1
    23    45    43    1
    24    46    43    1
    25    26    27   ar
    26     3     9    1
    27    16    24    1
    28    16    15   ar
    29    24    28   ar
    30    19    18    1
    31    14    15   ar
    32    14    18    1
    33    36    35   ar
    34    36    37   ar
    35    15    20    1
    36    43    37    1
    37    43    44    1
    38    22    20    1
    39    27    28   ar
    40    27    35    1
    41    35    39   ar
    42    37    38   ar
    43    20    21    1
    44    20    23    1
    45     9    11    1
    46     9    10    1
    47     9    12    1
    48    38    39   ar
    49    38    40    1
