@<TRIPOS>MOLECULE
mol_data/opt/b3lyp/geoms/mol2/5gi5gi-5gi-5gi-.out
 46 49 0 0 0
SMALL
GASTEIGER

@<TRIPOS>ATOM
      1 C          -1.1582   -1.3882   -2.4101 C.ar    1  LIG1       -0.0103
      2 C          -0.9144   -1.6899   -1.0971 C.ar    1  LIG1        0.0153
      3 C          -0.6509   -0.5336   -0.2777 C.ar    1  LIG1       -0.0220
      4 C          -0.6798    0.6302   -1.0181 C.ar    1  LIG1        0.0309
      5 S          -1.0654    0.3101   -2.7042 S.2     1  LIG1       -0.0947
      6 H          -1.3801   -2.0778   -3.2119 H       1  LIG1        0.0704
      7 S          -1.0616   -3.3631   -0.4858 S.3     1  LIG1       -0.1418
      8 H           0.1991   -3.5000   -0.0195 H       1  LIG1        0.1071
      9 C          -0.4217   -0.6054    1.2043 C.3     1  LIG1       -0.0376
     10 H          -0.5158    0.3792    1.6669 H       1  LIG1        0.0278
     11 H           0.5784   -0.9888    1.4401 H       1  LIG1        0.0278
     12 H          -1.1453   -1.2824    1.6689 H       1  LIG1        0.0278
     13 C          -0.4584    2.0044   -0.5794 C.ar    1  LIG1        0.0402
     14 C           0.6470    2.5692    0.0266 C.ar    1  LIG1        0.0236
     15 C           0.5082    3.9709    0.3218 C.ar    1  LIG1       -0.0214
     16 C          -0.7033    4.4704   -0.1103 C.ar    1  LIG1        0.0315
     17 S          -1.6986    3.2154   -0.8208 S.2     1  LIG1       -0.0858
     18 S           2.0977    1.6114    0.4354 S.3     1  LIG1       -0.1412
     19 H           3.0065    2.5187    0.0217 H       1  LIG1        0.1071
     20 C           1.5512    4.7700    1.0490 C.3     1  LIG1       -0.0375
     21 H           1.1480    5.7278    1.3842 H       1  LIG1        0.0278
     22 H           2.4198    4.9833    0.4137 H       1  LIG1        0.0278
     23 H           1.9143    4.2200    1.9232 H       1  LIG1        0.0278
     24 C          -1.2173    5.8333   -0.0223 C.ar    1  LIG1        0.0402
     25 C          -0.6914    7.0079   -0.5243 C.ar    1  LIG1        0.0236
     26 C          -1.4830    8.1770   -0.2445 C.ar    1  LIG1       -0.0214
     27 C          -2.6401    7.8640    0.4386 C.ar    1  LIG1        0.0315
     28 S          -2.7340    6.1509    0.7922 S.2     1  LIG1       -0.0858
     29 S           0.8570    7.0518   -1.4127 S.3     1  LIG1       -0.1412
     30 H           0.4563    7.9020   -2.3802 H       1  LIG1        0.1071
     31 C          -1.0682    9.5693   -0.6255 C.3     1  LIG1       -0.0375
     32 H          -1.6754   10.3135   -0.1062 H       1  LIG1        0.0278
     33 H          -1.1776    9.7490   -1.7023 H       1  LIG1        0.0278
     34 H          -0.0167    9.7392   -0.3722 H       1  LIG1        0.0278
     35 C          -3.7120    8.7511    0.8796 C.ar    1  LIG1        0.0396
     36 C          -4.5292    9.5807    0.1365 C.ar    1  LIG1        0.0230
     37 C          -5.4990   10.3031    0.9223 C.ar    1  LIG1       -0.0297
     38 C          -5.4039    9.9820    2.2486 C.ar    1  LIG1       -0.0197
     39 S          -4.1391    8.8491    2.5795 S.2     1  LIG1       -0.0947
     40 H          -6.0088   10.3670    3.0586 H       1  LIG1        0.0696
     41 S          -4.3600    9.7473   -1.6327 S.3     1  LIG1       -0.1412
     42 H          -5.6786    9.7542   -1.9173 H       1  LIG1        0.1071
     43 C          -6.4971   11.2728    0.3561 C.3     1  LIG1       -0.0382
     44 H          -7.0580   11.7643    1.1547 H       1  LIG1        0.0278
     45 H          -7.2241   10.7741   -0.2972 H       1  LIG1        0.0278
     46 H          -6.0023   12.0450   -0.2429 H       1  LIG1        0.0278
@<TRIPOS>BOND
     1     6     1    1
     2     5     1   ar
     3     5     4   ar
     4     1     2   ar
     5    30    29    1
     6    42    41    1
     7    33    31    1
     8    41    36    1
     9    29    25    1
    10     2     7    1
    11     2     3   ar
    12     4    13    1
    13     4     3   ar
    14    17    13   ar
    15    17    16   ar
    16    31    34    1
    17    31    26    1
    18    31    32    1
    19    13    14   ar
    20    25    26   ar
    21    25    24   ar
    22     7     8    1
    23    45    43    1
    24     3     9    1
    25    26    27   ar
    26    46    43    1
    27    16    24    1
    28    16    15   ar
    29    24    28   ar
    30    19    18    1
    31    14    15   ar
    32    14    18    1
    33    36    35   ar
    34    36    37   ar
    35    15    20    1
    36    43    37    1
    37    43    44    1
    38    22    20    1
    39    27    28   ar
    40    27    35    1
    41    35    39   ar
    42    37    38   ar
    43    20    21    1
    44    20    23    1
    45     9    11    1
    46     9    10    1
    47     9    12    1
    48    38    39   ar
    49    38    40    1
