@<TRIPOS>MOLECULE
mol_data/opt/b3lyp/geoms/mol2/5gi5gi5gi5gi.out
 46 49 0 0 0
SMALL
GASTEIGER

@<TRIPOS>ATOM
      1 C          -1.1551   -1.3915   -2.4130 C.ar    1  LIG1       -0.0103
      2 C          -0.9117   -1.6914   -1.0995 C.ar    1  LIG1        0.0153
      3 C          -0.6489   -0.5339   -0.2815 C.ar    1  LIG1       -0.0220
      4 C          -0.6779    0.6289   -1.0235 C.ar    1  LIG1        0.0309
      5 S          -1.0628    0.3065   -2.7092 S.2     1  LIG1       -0.0947
      6 H          -1.3765   -2.0823   -3.2140 H       1  LIG1        0.0704
      7 S          -1.0586   -3.3640   -0.4861 S.3     1  LIG1       -0.1418
      8 H           0.2020   -3.4999   -0.0193 H       1  LIG1        0.1071
      9 C          -0.4201   -0.6038    1.2007 C.3     1  LIG1       -0.0376
     10 H          -0.5151    0.3813    1.6621 H       1  LIG1        0.0278
     11 H           0.5801   -0.9862    1.4372 H       1  LIG1        0.0278
     12 H          -1.1434   -1.2807    1.6659 H       1  LIG1        0.0278
     13 C          -0.4573    2.0037   -0.5865 C.ar    1  LIG1        0.0402
     14 C           0.6474    2.5697    0.0197 C.ar    1  LIG1        0.0236
     15 C           0.5079    3.9718    0.3128 C.ar    1  LIG1       -0.0214
     16 C          -0.7034    4.4703   -0.1210 C.ar    1  LIG1        0.0315
     17 S          -1.6977    3.2140   -0.8306 S.2     1  LIG1       -0.0858
     18 S           2.0982    1.6130    0.4307 S.3     1  LIG1       -0.1412
     19 H           3.0069    2.5206    0.0175 H       1  LIG1        0.1071
     20 C           1.5502    4.7725    1.0392 C.3     1  LIG1       -0.0375
     21 H           1.1465    5.7308    1.3723 H       1  LIG1        0.0278
     22 H           2.4192    4.9848    0.4041 H       1  LIG1        0.0278
     23 H           1.9128    4.2243    1.9148 H       1  LIG1        0.0278
     24 C          -1.2179    5.8331   -0.0351 C.ar    1  LIG1        0.0402
     25 C          -0.6925    7.0070   -0.5395 C.ar    1  LIG1        0.0236
     26 C          -1.4841    8.1764   -0.2612 C.ar    1  LIG1       -0.0214
     27 C          -2.6407    7.8644    0.4233 C.ar    1  LIG1        0.0315
     28 S          -2.7340    6.1518    0.7799 S.2     1  LIG1       -0.0858
     29 S           0.8556    7.0495   -1.4284 S.3     1  LIG1       -0.1412
     30 H           0.4546    7.8979   -2.3973 H       1  LIG1        0.1071
     31 C          -1.0698    9.5681   -0.6448 C.3     1  LIG1       -0.0375
     32 H          -1.6768   10.3131   -0.1265 H       1  LIG1        0.0278
     33 H          -1.1797    9.7459   -1.7219 H       1  LIG1        0.0278
     34 H          -0.0182    9.7386   -0.3923 H       1  LIG1        0.0278
     35 C          -3.7125    8.7519    0.8635 C.ar    1  LIG1        0.0396
     36 C          -4.5301    9.5806    0.1199 C.ar    1  LIG1        0.0230
     37 C          -5.4996   10.3039    0.9052 C.ar    1  LIG1       -0.0297
     38 C          -5.4040    9.9843    2.2319 C.ar    1  LIG1       -0.0197
     39 S          -4.1389    8.8518    2.5635 S.2     1  LIG1       -0.0947
     40 H          -6.0085   10.3701    3.0417 H       1  LIG1        0.0696
     41 S          -4.3619    9.7452   -1.6497 S.3     1  LIG1       -0.1412
     42 H          -5.6806    9.7515   -1.9335 H       1  LIG1        0.1071
     43 C          -6.4979   11.2730    0.3385 C.3     1  LIG1       -0.0382
     44 H          -7.0585   11.7653    1.1368 H       1  LIG1        0.0278
     45 H          -7.2252   10.7735   -0.3140 H       1  LIG1        0.0278
     46 H          -6.0035   12.0445   -0.2615 H       1  LIG1        0.0278
@<TRIPOS>BOND
     1     6     1    1
     2     5     1   ar
     3     5     4   ar
     4     1     2   ar
     5    30    29    1
     6    42    41    1
     7    33    31    1
     8    41    36    1
     9    29    25    1
    10     2     7    1
    11     2     3   ar
    12     4    13    1
    13     4     3   ar
    14    17    13   ar
    15    17    16   ar
    16    31    34    1
    17    31    26    1
    18    31    32    1
    19    13    14   ar
    20    25    26   ar
    21    25    24   ar
    22     7     8    1
    23    45    43    1
    24     3     9    1
    25    46    43    1
    26    26    27   ar
    27    16    24    1
    28    16    15   ar
    29    24    28   ar
    30    19    18    1
    31    14    15   ar
    32    14    18    1
    33    36    35   ar
    34    36    37   ar
    35    15    20    1
    36    43    37    1
    37    43    44    1
    38    22    20    1
    39    27    28   ar
    40    27    35    1
    41    35    39   ar
    42    37    38   ar
    43    20    21    1
    44    20    23    1
    45     9    11    1
    46     9    10    1
    47     9    12    1
    48    38    39   ar
    49    38    40    1
