@<TRIPOS>MOLECULE
mol_data/opt/b3lyp/geoms/mol2/5gi5gi-5gi-5gi.out
 46 49 0 0 0
SMALL
GASTEIGER

@<TRIPOS>ATOM
      1 C          -1.1603   -1.3811   -2.4267 C.ar    1  LIG1       -0.0103
      2 C          -0.9163   -1.6871   -1.1148 C.ar    1  LIG1        0.0153
      3 C          -0.6524   -0.5335   -0.2917 C.ar    1  LIG1       -0.0220
      4 C          -0.6814    0.6327   -1.0283 C.ar    1  LIG1        0.0309
      5 S          -1.0673    0.3182   -2.7153 S.2     1  LIG1       -0.0947
      6 H          -1.3826   -2.0681   -3.2307 H       1  LIG1        0.0704
      7 S          -1.0636   -3.3623   -0.5089 S.3     1  LIG1       -0.1418
      8 H           0.1972   -3.5009   -0.0434 H       1  LIG1        0.1071
      9 C          -0.4228   -0.6102    1.1900 C.3     1  LIG1       -0.0376
     10 H          -0.5174    0.3728    1.6560 H       1  LIG1        0.0278
     11 H           0.5775   -0.9939    1.4244 H       1  LIG1        0.0278
     12 H          -1.1460   -1.2891    1.6526 H       1  LIG1        0.0278
     13 C          -0.4595    2.0055   -0.5854 C.ar    1  LIG1        0.0402
     14 C           0.6459    2.5684    0.0223 C.ar    1  LIG1        0.0236
     15 C           0.5072    3.9693    0.3215 C.ar    1  LIG1       -0.0214
     16 C          -0.7042    4.4702   -0.1091 C.ar    1  LIG1        0.0315
     17 S          -1.6996    3.2174   -0.8233 S.2     1  LIG1       -0.0858
     18 S           2.0966    1.6094    0.4283 S.3     1  LIG1       -0.1412
     19 H           3.0054    2.5180    0.0173 H       1  LIG1        0.1071
     20 C           1.5504    4.7663    1.0508 C.3     1  LIG1       -0.0375
     21 H           1.1475    5.7233    1.3884 H       1  LIG1        0.0278
     22 H           2.4191    4.9810    0.4160 H       1  LIG1        0.0278
     23 H           1.9133    4.2140    1.9236 H       1  LIG1        0.0278
     24 C          -1.2179    5.8329   -0.0169 C.ar    1  LIG1        0.0402
     25 C          -0.6919    7.0086   -0.5163 C.ar    1  LIG1        0.0236
     26 C          -1.4827    8.1773   -0.2326 C.ar    1  LIG1       -0.0214
     27 C          -2.6392    7.8630    0.4509 C.ar    1  LIG1        0.0315
     28 S          -2.7335    6.1490    0.8000 S.2     1  LIG1       -0.0858
     29 S           0.8557    7.0542   -1.4059 S.3     1  LIG1       -0.1412
     30 H           0.4546    7.9070   -2.3709 H       1  LIG1        0.1071
     31 C          -1.0675    9.5704   -0.6101 C.3     1  LIG1       -0.0375
     32 H          -1.6739   10.3135   -0.0883 H       1  LIG1        0.0278
     33 H          -1.1776    9.7532   -1.6863 H       1  LIG1        0.0278
     34 H          -0.0158    9.7392   -0.3572 H       1  LIG1        0.0278
     35 C          -3.7103    8.7492    0.8955 C.ar    1  LIG1        0.0396
     36 C          -4.5276    9.5818    0.1558 C.ar    1  LIG1        0.0230
     37 C          -5.4964   10.3022    0.9448 C.ar    1  LIG1       -0.0297
     38 C          -5.4005    9.9765    2.2700 C.ar    1  LIG1       -0.0197
     39 S          -4.1360    8.8418    2.5961 S.2     1  LIG1       -0.0947
     40 H          -6.0045   10.3591    3.0817 H       1  LIG1        0.0696
     41 S          -4.3600    9.7542   -1.6129 S.3     1  LIG1       -0.1412
     42 H          -5.6788    9.7626   -1.8963 H       1  LIG1        0.1071
     43 C          -6.4944   11.2743    0.3827 C.3     1  LIG1       -0.0382
     44 H          -7.0544   11.7634    1.1835 H       1  LIG1        0.0278
     45 H          -7.2222   10.7782   -0.2717 H       1  LIG1        0.0278
     46 H          -5.9998   12.0483   -0.2140 H       1  LIG1        0.0278
@<TRIPOS>BOND
     1     6     1    1
     2     5     1   ar
     3     5     4   ar
     4     1     2   ar
     5    30    29    1
     6    42    41    1
     7    33    31    1
     8    41    36    1
     9    29    25    1
    10     2     7    1
    11     2     3   ar
    12     4    13    1
    13     4     3   ar
    14    17    13   ar
    15    17    16   ar
    16    31    34    1
    17    31    26    1
    18    31    32    1
    19    13    14   ar
    20    25    26   ar
    21    25    24   ar
    22     7     8    1
    23     3     9    1
    24    45    43    1
    25    26    27   ar
    26    46    43    1
    27    16    24    1
    28    16    15   ar
    29    24    28   ar
    30    19    18    1
    31    14    15   ar
    32    14    18    1
    33    36    35   ar
    34    36    37   ar
    35    15    20    1
    36    43    37    1
    37    43    44    1
    38    22    20    1
    39    27    28   ar
    40    27    35    1
    41    35    39   ar
    42    37    38   ar
    43    20    21    1
    44    20    23    1
    45     9    11    1
    46     9    12    1
    47     9    10    1
    48    38    39   ar
    49    38    40    1
