@<TRIPOS>MOLECULE
mol_data/opt/b3lyp/geoms/mol2/5gi5gi5gi.out
 35 37 0 0 0
SMALL
GASTEIGER

@<TRIPOS>ATOM
      1 C          -1.7304   -1.5978   -1.5866 C.ar    1  LIG1       -0.0103
      2 C          -0.8872   -1.8131   -0.5297 C.ar    1  LIG1        0.0153
      3 C          -0.3960   -0.6000    0.0744 C.ar    1  LIG1       -0.0220
      4 C          -0.8736    0.5197   -0.5749 C.ar    1  LIG1        0.0309
      5 S          -1.9498    0.0858   -1.8972 S.2     1  LIG1       -0.0947
      6 H          -2.2232   -2.3423   -2.1953 H       1  LIG1        0.0704
      7 S          -0.5721   -3.4615    0.0862 S.3     1  LIG1       -0.1418
      8 H           0.7672   -3.4713   -0.0917 H       1  LIG1        0.1071
      9 C           0.4877   -0.5794    1.2880 C.3     1  LIG1       -0.0376
     10 H           0.5082    0.4123    1.7447 H       1  LIG1        0.0278
     11 H           1.5206   -0.8525    1.0405 H       1  LIG1        0.0278
     12 H           0.1316   -1.3009    2.0298 H       1  LIG1        0.0278
     13 C          -0.6145    1.9275   -0.2912 C.ar    1  LIG1        0.0402
     14 C           0.5833    2.6143   -0.2591 C.ar    1  LIG1        0.0236
     15 C           0.4556    4.0117    0.0615 C.ar    1  LIG1       -0.0214
     16 C          -0.8624    4.3834    0.2290 C.ar    1  LIG1        0.0315
     17 S          -1.9422    3.0149    0.0547 S.2     1  LIG1       -0.0858
     18 S           2.1477    1.8069   -0.5573 S.3     1  LIG1       -0.1412
     19 H           2.6828    2.7821   -1.3204 H       1  LIG1        0.1071
     20 C           1.6293    4.9342    0.2252 C.3     1  LIG1       -0.0375
     21 H           1.3265    5.8735    0.6923 H       1  LIG1        0.0278
     22 H           2.0935    5.1804   -0.7380 H       1  LIG1        0.0278
     23 H           2.3998    4.4680    0.8479 H       1  LIG1        0.0278
     24 C          -1.4121    5.7013    0.5313 C.ar    1  LIG1        0.0396
     25 C          -1.3090    6.8824   -0.1775 C.ar    1  LIG1        0.0230
     26 C          -2.0052    7.9909    0.4277 C.ar    1  LIG1       -0.0297
     27 C          -2.6411    7.6112    1.5778 C.ar    1  LIG1       -0.0197
     28 S          -2.3871    5.9457    1.9708 S.2     1  LIG1       -0.0947
     29 H          -3.2404    8.2339    2.2284 H       1  LIG1        0.0696
     30 S          -0.3667    7.0056   -1.6887 S.3     1  LIG1       -0.1412
     31 H          -1.2441    7.7804   -2.3590 H       1  LIG1        0.1071
     32 C          -2.0410    9.3817   -0.1394 C.3     1  LIG1       -0.0382
     33 H          -2.5544   10.0658    0.5406 H       1  LIG1        0.0278
     34 H          -2.5688    9.4161   -1.1008 H       1  LIG1        0.0278
     35 H          -1.0294    9.7640   -0.3134 H       1  LIG1        0.0278
@<TRIPOS>BOND
     1    31    30    1
     2     6     1    1
     3     5     1   ar
     4     5     4   ar
     5    30    25    1
     6     1     2   ar
     7    19    18    1
     8    34    32    1
     9    22    20    1
    10     4    13    1
    11     4     3   ar
    12    18    14    1
    13     2     3   ar
    14     2     7    1
    15    35    32    1
    16    13    14   ar
    17    13    17   ar
    18    14    15   ar
    19    25    26   ar
    20    25    24   ar
    21    32    26    1
    22    32    33    1
    23     8     7    1
    24    17    16   ar
    25    15    20    1
    26    15    16   ar
    27     3     9    1
    28    20    21    1
    29    20    23    1
    30    16    24    1
    31    26    27   ar
    32    24    28   ar
    33    11     9    1
    34     9    10    1
    35     9    12    1
    36    27    28   ar
    37    27    29    1
