@<TRIPOS>MOLECULE
mol_data/opt/b3lyp/geoms/mol2/5gi5gi-5gi-.out
 35 37 0 0 0
SMALL
GASTEIGER

@<TRIPOS>ATOM
      1 C          -1.7481   -1.5836   -1.6070 C.ar    1  LIG1       -0.0103
      2 C          -0.8982   -1.8084   -0.5574 C.ar    1  LIG1        0.0153
      3 C          -0.4014   -0.6007    0.0529 C.ar    1  LIG1       -0.0220
      4 C          -0.8818    0.5247   -0.5842 C.ar    1  LIG1        0.0309
      5 S          -1.9673    0.1027   -1.9028 S.2     1  LIG1       -0.0947
      6 H          -2.2458   -2.3228   -2.2182 H       1  LIG1        0.0704
      7 S          -0.5813   -3.4620    0.0434 S.3     1  LIG1       -0.1418
      8 H           0.7569   -3.4720   -0.1430 H       1  LIG1        0.1071
      9 C           0.4904   -0.5909    1.2608 C.3     1  LIG1       -0.0376
     10 H           0.5157    0.3973    1.7249 H       1  LIG1        0.0278
     11 H           1.5211   -0.8638    1.0043 H       1  LIG1        0.0278
     12 H           0.1379   -1.3174    1.9995 H       1  LIG1        0.0278
     13 C          -0.6189    1.9298   -0.2912 C.ar    1  LIG1        0.0402
     14 C           0.5800    2.6149   -0.2622 C.ar    1  LIG1        0.0236
     15 C           0.4564    4.0098    0.0703 C.ar    1  LIG1       -0.0214
     16 C          -0.8599    4.3819    0.2500 C.ar    1  LIG1        0.0315
     17 S          -1.9427    3.0161    0.0727 S.2     1  LIG1       -0.0858
     18 S           2.1411    1.8078   -0.5778 S.3     1  LIG1       -0.1412
     19 H           2.6727    2.7890   -1.3355 H       1  LIG1        0.1071
     20 C           1.6325    4.9295    0.2334 C.3     1  LIG1       -0.0375
     21 H           1.3343    5.8651    0.7106 H       1  LIG1        0.0278
     22 H           2.0901    5.1833   -0.7309 H       1  LIG1        0.0278
     23 H           2.4068    4.4570    0.8466 H       1  LIG1        0.0278
     24 C          -1.4057    5.6980    0.5668 C.ar    1  LIG1        0.0396
     25 C          -1.3050    6.8848   -0.1328 C.ar    1  LIG1        0.0230
     26 C          -1.9958    7.9893    0.4860 C.ar    1  LIG1       -0.0297
     27 C          -2.6253    7.6009    1.6367 C.ar    1  LIG1       -0.0197
     28 S          -2.3716    5.9318    2.0141 S.2     1  LIG1       -0.0947
     29 H          -3.2197    8.2190    2.2961 H       1  LIG1        0.0696
     30 S          -0.3722    7.0193   -1.6488 S.3     1  LIG1       -0.1412
     31 H          -1.2529    7.8007   -2.3071 H       1  LIG1        0.1071
     32 C          -2.0329    9.3848   -0.0692 C.3     1  LIG1       -0.0382
     33 H          -2.5407   10.0641    0.6198 H       1  LIG1        0.0278
     34 H          -2.5669    9.4282   -1.0268 H       1  LIG1        0.0278
     35 H          -1.0218    9.7669   -0.2466 H       1  LIG1        0.0278
@<TRIPOS>BOND
     1    31    30    1
     2     6     1    1
     3     5     1   ar
     4     5     4   ar
     5    30    25    1
     6     1     2   ar
     7    19    18    1
     8    34    32    1
     9    22    20    1
    10     4    13    1
    11     4     3   ar
    12    18    14    1
    13     2     7    1
    14     2     3   ar
    15    13    14   ar
    16    13    17   ar
    17    14    15   ar
    18    35    32    1
    19     8     7    1
    20    25    26   ar
    21    25    24   ar
    22    32    26    1
    23    32    33    1
    24     3     9    1
    25    15    20    1
    26    15    16   ar
    27    17    16   ar
    28    20    21    1
    29    20    23    1
    30    16    24    1
    31    26    27   ar
    32    24    28   ar
    33    11     9    1
    34     9    10    1
    35     9    12    1
    36    27    28   ar
    37    27    29    1
