@<TRIPOS>MOLECULE
mol_data/opt/b3lyp/geoms/mol2/5gi5gi5gi-.out
 35 37 0 0 0
SMALL
GASTEIGER

@<TRIPOS>ATOM
      1 C          -1.7089   -1.5893   -1.6237 C.ar    1  LIG1       -0.0103
      2 C          -0.8755   -1.8102   -0.5602 C.ar    1  LIG1        0.0153
      3 C          -0.3914   -0.6004    0.0560 C.ar    1  LIG1       -0.0220
      4 C          -0.8642    0.5228   -0.5907 C.ar    1  LIG1        0.0309
      5 S          -1.9274    0.0960   -1.9258 S.2     1  LIG1       -0.0947
      6 H          -2.1950   -2.3306   -2.2416 H       1  LIG1        0.0704
      7 S          -0.5644   -3.4622    0.0484 S.3     1  LIG1       -0.1418
      8 H           0.7766   -3.4691   -0.1158 H       1  LIG1        0.1071
      9 C           0.4807   -0.5865    1.2781 C.3     1  LIG1       -0.0376
     10 H           0.4945    0.4020    1.7421 H       1  LIG1        0.0278
     11 H           1.5166   -0.8554    1.0385 H       1  LIG1        0.0278
     12 H           0.1192   -1.3141    2.0114 H       1  LIG1        0.0278
     13 C          -0.6096    1.9291   -0.2959 C.ar    1  LIG1        0.0402
     14 C           0.5869    2.6173   -0.2479 C.ar    1  LIG1        0.0236
     15 C           0.4541    4.0126    0.0799 C.ar    1  LIG1       -0.0214
     16 C          -0.8659    4.3815    0.2365 C.ar    1  LIG1        0.0315
     17 S          -1.9421    3.0127    0.0434 S.2     1  LIG1       -0.0858
     18 S           2.1553    1.8140   -0.5354 S.3     1  LIG1       -0.1412
     19 H           2.6963    2.7943   -1.2877 H       1  LIG1        0.1071
     20 C           1.6249    4.9358    0.2607 C.3     1  LIG1       -0.0375
     21 H           1.3159    5.8720    0.7298 H       1  LIG1        0.0278
     22 H           2.0986    5.1878   -0.6962 H       1  LIG1        0.0278
     23 H           2.3895    4.4671    0.8889 H       1  LIG1        0.0278
     24 C          -1.4203    5.6969    0.5415 C.ar    1  LIG1        0.0396
     25 C          -1.3117    6.8823   -0.1593 C.ar    1  LIG1        0.0230
     26 C          -2.0153    7.9863    0.4456 C.ar    1  LIG1       -0.0297
     27 C          -2.6620    7.5990    1.5871 C.ar    1  LIG1       -0.0197
     28 S          -2.4099    5.9314    1.9726 S.2     1  LIG1       -0.0947
     29 H          -3.2685    8.2170    2.2354 H       1  LIG1        0.0696
     30 S          -0.3546    7.0155   -1.6601 S.3     1  LIG1       -0.1412
     31 H          -1.2253    7.7950   -2.3338 H       1  LIG1        0.1071
     32 C          -2.0473    9.3803   -0.1135 C.3     1  LIG1       -0.0382
     33 H          -2.5688   10.0597    0.5650 H       1  LIG1        0.0278
     34 H          -2.5651    9.4198   -1.0801 H       1  LIG1        0.0278
     35 H          -1.0345    9.7652   -0.2747 H       1  LIG1        0.0278
@<TRIPOS>BOND
     1    31    30    1
     2     6     1    1
     3     5     1   ar
     4     5     4   ar
     5    30    25    1
     6     1     2   ar
     7    19    18    1
     8    34    32    1
     9    22    20    1
    10     4    13    1
    11     4     3   ar
    12     2     7    1
    13     2     3   ar
    14    18    14    1
    15    13    14   ar
    16    13    17   ar
    17    35    32    1
    18    14    15   ar
    19    25    26   ar
    20    25    24   ar
    21     8     7    1
    22    32    26    1
    23    32    33    1
    24    17    16   ar
    25     3     9    1
    26    15    16   ar
    27    15    20    1
    28    16    24    1
    29    20    21    1
    30    20    23    1
    31    26    27   ar
    32    24    28   ar
    33    11     9    1
    34     9    10    1
    35     9    12    1
    36    27    28   ar
    37    27    29    1
