@<TRIPOS>MOLECULE
mol_data/opt/b3lyp/geoms/mol2/5gi5gi-5gi.out
 35 37 0 0 0
SMALL
GASTEIGER

@<TRIPOS>ATOM
      1 C          -1.7399   -1.5873   -1.6062 C.ar    1  LIG1       -0.0103
      2 C          -0.8906   -1.8096   -0.5556 C.ar    1  LIG1        0.0153
      3 C          -0.3958   -0.6005    0.0536 C.ar    1  LIG1       -0.0220
      4 C          -0.8771    0.5235   -0.5854 C.ar    1  LIG1        0.0309
      5 S          -1.9609    0.0983   -1.9043 S.2     1  LIG1       -0.0947
      6 H          -2.2362   -2.3278   -2.2169 H       1  LIG1        0.0704
      7 S          -0.5721   -3.4621    0.0476 S.3     1  LIG1       -0.1418
      8 H           0.7662   -3.4707   -0.1377 H       1  LIG1        0.1071
      9 C           0.4948   -0.5880    1.2623 C.3     1  LIG1       -0.0376
     10 H           0.5178    0.4006    1.7256 H       1  LIG1        0.0278
     11 H           1.5263   -0.8593    1.0071 H       1  LIG1        0.0278
     12 H           0.1429   -1.3145    2.0013 H       1  LIG1        0.0278
     13 C          -0.6163    1.9293   -0.2940 C.ar    1  LIG1        0.0402
     14 C           0.5817    2.6160   -0.2643 C.ar    1  LIG1        0.0236
     15 C           0.4556    4.0113    0.0660 C.ar    1  LIG1       -0.0214
     16 C          -0.8614    4.3818    0.2433 C.ar    1  LIG1        0.0315
     17 S          -1.9421    3.0144    0.0663 S.2     1  LIG1       -0.0858
     18 S           2.1443    1.8107   -0.5765 S.3     1  LIG1       -0.1412
     19 H           2.6752    2.7911   -1.3358 H       1  LIG1        0.1071
     20 C           1.6302    4.9328    0.2293 C.3     1  LIG1       -0.0375
     21 H           1.3300    5.8689    0.7044 H       1  LIG1        0.0278
     22 H           2.0891    5.1855   -0.7347 H       1  LIG1        0.0278
     23 H           2.4042    4.4625    0.8447 H       1  LIG1        0.0278
     24 C          -1.4092    5.6977    0.5573 C.ar    1  LIG1        0.0396
     25 C          -1.3096    6.8834   -0.1444 C.ar    1  LIG1        0.0230
     26 C          -2.0023    7.9881    0.4717 C.ar    1  LIG1       -0.0297
     27 C          -2.6322    7.6011    1.6227 C.ar    1  LIG1       -0.0197
     28 S          -2.3766    5.9330    2.0035 S.2     1  LIG1       -0.0947
     29 H          -3.2279    8.2196    2.2806 H       1  LIG1        0.0696
     30 S          -0.3756    7.0161   -1.6598 S.3     1  LIG1       -0.1412
     31 H          -1.2563    7.7957   -2.3202 H       1  LIG1        0.1071
     32 C          -2.0408    9.3825   -0.0859 C.3     1  LIG1       -0.0382
     33 H          -2.5504   10.0623    0.6012 H       1  LIG1        0.0278
     34 H          -2.5739    9.4235   -1.0442 H       1  LIG1        0.0278
     35 H          -1.0301    9.7658   -0.2630 H       1  LIG1        0.0278
@<TRIPOS>BOND
     1    31    30    1
     2     6     1    1
     3     5     1   ar
     4     5     4   ar
     5    30    25    1
     6     1     2   ar
     7    19    18    1
     8    34    32    1
     9    22    20    1
    10     4    13    1
    11     4     3   ar
    12    18    14    1
    13     2     7    1
    14     2     3   ar
    15    13    14   ar
    16    13    17   ar
    17    14    15   ar
    18    35    32    1
    19    25    26   ar
    20    25    24   ar
    21     8     7    1
    22    32    26    1
    23    32    33    1
    24     3     9    1
    25    15    20    1
    26    15    16   ar
    27    17    16   ar
    28    20    21    1
    29    20    23    1
    30    16    24    1
    31    26    27   ar
    32    24    28   ar
    33    11     9    1
    34     9    10    1
    35     9    12    1
    36    27    28   ar
    37    27    29    1
