@<TRIPOS>MOLECULE
mol_data/opt/b3lyp/geoms/mol2/5gi5gi5gi-5gi.out
 46 49 0 0 0
SMALL
GASTEIGER

@<TRIPOS>ATOM
      1 C          -1.1344   -1.3870   -2.4251 C.ar    1  LIG1       -0.0103
      2 C          -0.9012   -1.6892   -1.1103 C.ar    1  LIG1        0.0153
      3 C          -0.6452   -0.5332   -0.2882 C.ar    1  LIG1       -0.0220
      4 C          -0.6689    0.6309   -1.0281 C.ar    1  LIG1        0.0309
      5 S          -1.0403    0.3115   -2.7175 S.2     1  LIG1       -0.0947
      6 H          -1.3493   -2.0764   -3.2291 H       1  LIG1        0.0704
      7 S          -1.0521   -3.3630   -0.5012 S.3     1  LIG1       -0.1418
      8 H           0.2049   -3.4994   -0.0251 H       1  LIG1        0.1071
      9 C          -0.4283   -0.6058    1.1957 C.3     1  LIG1       -0.0376
     10 H          -0.5277    0.3784    1.6582 H       1  LIG1        0.0278
     11 H           0.5702   -0.9879    1.4397 H       1  LIG1        0.0278
     12 H          -1.1549   -1.2840    1.6538 H       1  LIG1        0.0278
     13 C          -0.4520    2.0050   -0.5869 C.ar    1  LIG1        0.0402
     14 C           0.6476    2.5701    0.0293 C.ar    1  LIG1        0.0236
     15 C           0.5055    3.9717    0.3236 C.ar    1  LIG1       -0.0214
     16 C          -0.7023    4.4708   -0.1192 C.ar    1  LIG1        0.0315
     17 S          -1.6905    3.2156   -0.8391 S.2     1  LIG1       -0.0858
     18 S           2.0952    1.6130    0.4506 S.3     1  LIG1       -0.1412
     19 H           3.0070    2.5213    0.0461 H       1  LIG1        0.1071
     20 C           1.5417    4.7713    1.0600 C.3     1  LIG1       -0.0375
     21 H           1.1352    5.7290    1.3913 H       1  LIG1        0.0278
     22 H           2.4159    4.9847    0.4324 H       1  LIG1        0.0278
     23 H           1.8970    4.2217    1.9376 H       1  LIG1        0.0278
     24 C          -1.2177    5.8335   -0.0353 C.ar    1  LIG1        0.0402
     25 C          -0.6885    7.0082   -0.5335 C.ar    1  LIG1        0.0236
     26 C          -1.4826    8.1770   -0.2598 C.ar    1  LIG1       -0.0214
     27 C          -2.6447    7.8636    0.4147 C.ar    1  LIG1        0.0315
     28 S          -2.7405    6.1505    0.7678 S.2     1  LIG1       -0.0858
     29 S           0.8668    7.0526   -1.4096 S.3     1  LIG1       -0.1412
     30 H           0.4735    7.9025   -2.3804 H       1  LIG1        0.1071
     31 C          -1.0656    9.5694   -0.6379 C.3     1  LIG1       -0.0375
     32 H          -1.6770   10.3134   -0.1234 H       1  LIG1        0.0278
     33 H          -1.1668    9.7488   -1.7155 H       1  LIG1        0.0278
     34 H          -0.0162    9.7399   -0.3766 H       1  LIG1        0.0278
     35 C          -3.7202    8.7502    0.8476 C.ar    1  LIG1        0.0396
     36 C          -4.5323    9.5795    0.0985 C.ar    1  LIG1        0.0230
     37 C          -5.5082   10.3015    0.8771 C.ar    1  LIG1       -0.0297
     38 C          -5.4228    9.9804    2.2041 C.ar    1  LIG1       -0.0197
     39 S          -4.1600    8.8481    2.5443 S.2     1  LIG1       -0.0947
     40 H          -6.0338   10.3651    3.0096 H       1  LIG1        0.0696
     41 S          -4.3502    9.7463   -1.6694 S.3     1  LIG1       -0.1412
     42 H          -5.6666    9.7527   -1.9637 H       1  LIG1        0.1071
     43 C          -6.5025   11.2707    0.3037 C.3     1  LIG1       -0.0382
     44 H          -7.0696   11.7618    1.0981 H       1  LIG1        0.0278
     45 H          -7.2245   10.7717   -0.3551 H       1  LIG1        0.0278
     46 H          -6.0038   12.0432   -0.2916 H       1  LIG1        0.0278
@<TRIPOS>BOND
     1     6     1    1
     2     5     1   ar
     3     5     4   ar
     4     1     2   ar
     5    30    29    1
     6    42    41    1
     7    33    31    1
     8    41    36    1
     9    29    25    1
    10     2     7    1
    11     2     3   ar
    12     4    13    1
    13     4     3   ar
    14    17    13   ar
    15    17    16   ar
    16    31    34    1
    17    31    26    1
    18    31    32    1
    19    13    14   ar
    20    25    26   ar
    21    25    24   ar
    22     7     8    1
    23    45    43    1
    24    46    43    1
    25     3     9    1
    26    26    27   ar
    27    16    24    1
    28    16    15   ar
    29    24    28   ar
    30    14    15   ar
    31    14    18    1
    32    19    18    1
    33    36    35   ar
    34    36    37   ar
    35    43    37    1
    36    43    44    1
    37    15    20    1
    38    27    28   ar
    39    27    35    1
    40    22    20    1
    41    35    39   ar
    42    37    38   ar
    43    20    21    1
    44    20    23    1
    45     9    11    1
    46     9    12    1
    47     9    10    1
    48    38    39   ar
    49    38    40    1
