@<TRIPOS>MOLECULE
mol_data/opt/b3lyp/geoms/mol2/5gi5gi.out
 24 25 0 0 0
SMALL
GASTEIGER

@<TRIPOS>ATOM
      1 C          -1.9932   -1.6953   -0.8423 C.ar    1  LIG1       -0.0103
      2 C          -0.7784   -1.8146   -0.2225 C.ar    1  LIG1        0.0153
      3 C          -0.2293   -0.5573    0.2203 C.ar    1  LIG1       -0.0220
      4 C          -1.0522    0.5001   -0.1080 C.ar    1  LIG1        0.0309
      5 S          -2.5100   -0.0501   -0.9243 S.2     1  LIG1       -0.0947
      6 H          -2.6002   -2.4881   -1.2552 H       1  LIG1        0.0704
      7 S          -0.0562   -3.4166    0.1049 S.3     1  LIG1       -0.1418
      8 H           1.0994   -3.2386   -0.5721 H       1  LIG1        0.1071
      9 C           1.0585   -0.4393    0.9833 C.3     1  LIG1       -0.0376
     10 H           1.1487    0.5416    1.4547 H       1  LIG1        0.0278
     11 H           1.9294   -0.5751    0.3307 H       1  LIG1        0.0278
     12 H           1.1131   -1.2091    1.7592 H       1  LIG1        0.0278
     13 C          -0.8621    1.9251    0.1433 C.ar    1  LIG1        0.0396
     14 C           0.1552    2.7641   -0.2675 C.ar    1  LIG1        0.0230
     15 C           0.0005    4.1299    0.1696 C.ar    1  LIG1       -0.0297
     16 C          -1.1517    4.2953    0.8880 C.ar    1  LIG1       -0.0197
     17 S          -2.0406    2.8243    1.0845 S.2     1  LIG1       -0.0947
     18 H          -1.5207    5.2123    1.3275 H       1  LIG1        0.0696
     19 S           1.5421    2.1775   -1.2261 S.3     1  LIG1       -0.1412
     20 H           1.6248    3.2425   -2.0499 H       1  LIG1        0.1071
     21 C           0.9715    5.2346   -0.1368 C.3     1  LIG1       -0.0382
     22 H           0.6809    6.1589    0.3685 H       1  LIG1        0.0278
     23 H           1.0192    5.4492   -1.2119 H       1  LIG1        0.0278
     24 H           1.9852    4.9714    0.1845 H       1  LIG1        0.0278
@<TRIPOS>BOND
     1    20    19    1
     2     6     1    1
     3    19    14    1
     4    23    21    1
     5     5     1   ar
     6     5     4   ar
     7     1     2   ar
     8     8     7    1
     9    14    13   ar
    10    14    15   ar
    11     2     7    1
    12     2     3   ar
    13    21    15    1
    14    21    24    1
    15    21    22    1
    16     4    13    1
    17     4     3   ar
    18    13    17   ar
    19    15    16   ar
    20     3     9    1
    21    11     9    1
    22    16    17   ar
    23    16    18    1
    24     9    10    1
    25     9    12    1
