@<TRIPOS>MOLECULE
mol_data/opt/b3lyp/geoms/mol2/5gi5gi-5gi5gi-.out
 46 49 0 0 0
SMALL
GASTEIGER

@<TRIPOS>ATOM
      1 C          -1.1827   -1.3945   -2.3929 C.ar    1  LIG1       -0.0103
      2 C          -0.9259   -1.6929   -1.0816 C.ar    1  LIG1        0.0153
      3 C          -0.6542   -0.5345   -0.2678 C.ar    1  LIG1       -0.0220
      4 C          -0.6905    0.6274   -1.0107 C.ar    1  LIG1        0.0309
      5 S          -1.0927    0.3032   -2.6921 S.2     1  LIG1       -0.0947
      6 H          -1.4126   -2.0861   -3.1907 H       1  LIG1        0.0704
      7 S          -1.0670   -3.3645   -0.4647 S.3     1  LIG1       -0.1418
      8 H           0.1983   -3.5003   -0.0109 H       1  LIG1        0.1071
      9 C          -0.4103   -0.6027    1.2120 C.3     1  LIG1       -0.0376
     10 H          -0.4997    0.3831    1.6731 H       1  LIG1        0.0278
     11 H           0.5920   -0.9857    1.4389 H       1  LIG1        0.0278
     12 H          -1.1294   -1.2784    1.6855 H       1  LIG1        0.0278
     13 C          -0.4645    2.0027   -0.5777 C.ar    1  LIG1        0.0402
     14 C           0.6468    2.5690    0.0158 C.ar    1  LIG1        0.0236
     15 C           0.5110    3.9716    0.3085 C.ar    1  LIG1       -0.0214
     16 C          -0.7047    4.4700   -0.1129 C.ar    1  LIG1        0.0315
     17 S          -1.7070    3.2132   -0.8102 S.2     1  LIG1       -0.0858
     18 S           2.1014    1.6122    0.4129 S.3     1  LIG1       -0.1412
     19 H           3.0061    2.5181   -0.0126 H       1  LIG1        0.1071
     20 C           1.5613    4.7727    1.0230 C.3     1  LIG1       -0.0375
     21 H           1.1614    5.7312    1.3597 H       1  LIG1        0.0278
     22 H           2.4234    4.9843    0.3782 H       1  LIG1        0.0278
     23 H           1.9333    4.2250    1.8949 H       1  LIG1        0.0278
     24 C          -1.2177    5.8332   -0.0234 C.ar    1  LIG1        0.0402
     25 C          -0.6970    7.0063   -0.5344 C.ar    1  LIG1        0.0236
     26 C          -1.4854    8.1762   -0.2497 C.ar    1  LIG1       -0.0214
     27 C          -2.6353    7.8654    0.4466 C.ar    1  LIG1        0.0315
     28 S          -2.7256    6.1533    0.8062 S.2     1  LIG1       -0.0858
     29 S           0.8421    7.0474   -1.4389 S.3     1  LIG1       -0.1412
     30 H           0.4314    7.8943   -2.4050 H       1  LIG1        0.1071
     31 C          -1.0745    9.5673   -0.6390 C.3     1  LIG1       -0.0375
     32 H          -1.6761   10.3131   -0.1155 H       1  LIG1        0.0278
     33 H          -1.1951    9.7440   -1.7151 H       1  LIG1        0.0278
     34 H          -0.0204    9.7378   -0.3972 H       1  LIG1        0.0278
     35 C          -3.7024    8.7538    0.8963 C.ar    1  LIG1        0.0396
     36 C          -4.5272    9.5817    0.1596 C.ar    1  LIG1        0.0230
     37 C          -5.4888   10.3061    0.9536 C.ar    1  LIG1       -0.0297
     38 C          -5.3802    9.9881    2.2796 C.ar    1  LIG1       -0.0197
     39 S          -4.1121    8.8559    2.6002 S.2     1  LIG1       -0.0947
     40 H          -5.9766   10.3752    3.0949 H       1  LIG1        0.0696
     41 S          -4.3763    9.7441   -1.6116 S.3     1  LIG1       -0.1412
     42 H          -5.6977    9.7506   -1.8825 H       1  LIG1        0.1071
     43 C          -6.4925   11.2746    0.3954 C.3     1  LIG1       -0.0382
     44 H          -7.0452   11.7680    1.1985 H       1  LIG1        0.0278
     45 H          -7.2262   10.7744   -0.2492 H       1  LIG1        0.0278
     46 H          -6.0039   12.0453   -0.2105 H       1  LIG1        0.0278
@<TRIPOS>BOND
     1     6     1    1
     2     5     1   ar
     3     5     4   ar
     4    30    29    1
     5     1     2   ar
     6    42    41    1
     7    33    31    1
     8    41    36    1
     9    29    25    1
    10     2     7    1
    11     2     3   ar
    12     4    13    1
    13     4     3   ar
    14    17    13   ar
    15    17    16   ar
    16    31    34    1
    17    31    26    1
    18    31    32    1
    19    13    14   ar
    20    25    26   ar
    21    25    24   ar
    22     7     8    1
    23     3     9    1
    24    26    27   ar
    25    45    43    1
    26    46    43    1
    27    16    24    1
    28    16    15   ar
    29    24    28   ar
    30    19    18    1
    31    14    15   ar
    32    14    18    1
    33    36    35   ar
    34    36    37   ar
    35    15    20    1
    36    22    20    1
    37    43    37    1
    38    43    44    1
    39    27    28   ar
    40    27    35    1
    41    35    39   ar
    42    37    38   ar
    43    20    21    1
    44    20    23    1
    45     9    11    1
    46     9    10    1
    47     9    12    1
    48    38    39   ar
    49    38    40    1
