@<TRIPOS>MOLECULE
mol_data/opt/b3lyp/geoms/mol2/5gl.out
 14 14 0 0 0
SMALL
GASTEIGER

@<TRIPOS>ATOM
      1 C          -2.2991   -1.6248    0.0003 C.ar    1  LIG1       -0.0075
      2 C          -0.9332   -1.7684   -0.0002 C.ar    1  LIG1        0.0535
      3 C          -0.2676   -0.4781   -0.0003 C.ar    1  LIG1        0.1402
      4 C          -1.1666    0.5606    0.0002 C.ar    1  LIG1        0.0185
      5 S          -2.8045    0.0241    0.0007 S.2     1  LIG1       -0.1002
      6 H          -3.0318   -2.4199    0.0005 H       1  LIG1        0.0705
      7 H          -0.9136    1.6099    0.0002 H       1  LIG1        0.0730
      8 S          -0.3234   -3.4583   -0.0007 S.3     1  LIG1       -0.1386
      9 H           0.9936   -3.2216   -0.0013 H       1  LIG1        0.1072
     10 O           1.0553   -0.1296   -0.0008 O.3     1  LIG1       -0.4935
     11 C           2.1108   -1.0717   -0.0010 C.3     1  LIG1        0.0789
     12 H           3.0280   -0.4793   -0.0012 H       1  LIG1        0.0660
     13 H           2.1080   -1.6988    0.8993 H       1  LIG1        0.0660
     14 H           2.1077   -1.6988   -0.9013 H       1  LIG1        0.0660
@<TRIPOS>BOND
     1    14    11    1
     2     9     8    1
     3    12    11    1
     4    11    10    1
     5    11    13    1
     6    10     3    1
     7     8     2    1
     8     3     2   ar
     9     3     4   ar
    10     2     1   ar
    11     4     7    1
    12     4     5   ar
    13     1     6    1
    14     1     5   ar
