@<TRIPOS>MOLECULE
mol_data/opt/b3lyp/geoms/mol2/5gl5gl-5gl5gl.out
 50 53 0 0 0
SMALL
GASTEIGER

@<TRIPOS>ATOM
      1 C          -1.7994   -2.0552    1.9096 C.ar    1  LIG1       -0.0069
      2 C          -0.8142   -2.2574    0.9834 C.ar    1  LIG1        0.0542
      3 C          -0.2539   -1.0232    0.5080 C.ar    1  LIG1        0.1484
      4 C          -0.8051    0.1008    1.0883 C.ar    1  LIG1        0.0698
      5 S          -2.0544   -0.3690    2.2284 S.2     1  LIG1       -0.0912
      6 H          -2.3846   -2.7975    2.4330 H       1  LIG1        0.0706
      7 S          -0.3001   -3.8491    0.3829 S.3     1  LIG1       -0.1386
      8 H           0.8728   -3.4015   -0.1098 H       1  LIG1        0.1072
      9 O           0.7524   -1.0012   -0.4213 O.3     1  LIG1       -0.4928
     10 C           0.3180   -0.7501   -1.7681 C.3     1  LIG1        0.0789
     11 H           1.2169   -0.7745   -2.3858 H       1  LIG1        0.0660
     12 H          -0.3831   -1.5234   -2.1016 H       1  LIG1        0.0660
     13 H          -0.1554    0.2337   -1.8477 H       1  LIG1        0.0660
     14 C          -0.4682    1.4941    0.8653 C.ar    1  LIG1        0.0468
     15 C           0.7704    2.0954    0.7510 C.ar    1  LIG1        0.0626
     16 C           0.6775    3.5160    0.5673 C.ar    1  LIG1        0.1491
     17 C          -0.6096    4.0104    0.5678 C.ar    1  LIG1        0.0704
     18 S          -1.7523    2.6937    0.7539 S.2     1  LIG1       -0.0822
     19 S           2.3356    1.2633    0.8486 S.3     1  LIG1       -0.1380
     20 H           2.9933    2.3752    1.2421 H       1  LIG1        0.1072
     21 O           1.7894    4.3068    0.4520 O.3     1  LIG1       -0.4928
     22 C           2.2210    4.5390   -0.8988 C.3     1  LIG1        0.0789
     23 H           3.0911    5.1934   -0.8299 H       1  LIG1        0.0660
     24 H           2.5017    3.5987   -1.3860 H       1  LIG1        0.0660
     25 H           1.4340    5.0332   -1.4782 H       1  LIG1        0.0660
     26 C          -1.0528    5.3836    0.4309 C.ar    1  LIG1        0.0468
     27 C          -0.5468    6.5394    0.9951 C.ar    1  LIG1        0.0626
     28 C          -1.3036    7.7045    0.6326 C.ar    1  LIG1        0.1491
     29 C          -2.3915    7.4530   -0.1752 C.ar    1  LIG1        0.0704
     30 S          -2.4762    5.7419   -0.5436 S.2     1  LIG1       -0.0822
     31 S           0.8506    6.6362    2.0853 S.3     1  LIG1       -0.1380
     32 H           0.4260    7.7846    2.6553 H       1  LIG1        0.1072
     33 O          -0.9830    8.9503    1.1033 O.3     1  LIG1       -0.4928
     34 C          -0.1449    9.7213    0.2273 C.3     1  LIG1        0.0789
     35 H           0.0246   10.6741    0.7309 H       1  LIG1        0.0660
     36 H           0.8125    9.2161    0.0589 H       1  LIG1        0.0660
     37 H          -0.6441    9.8956   -0.7317 H       1  LIG1        0.0660
     38 C          -3.3665    8.3898   -0.7003 C.ar    1  LIG1        0.0462
     39 C          -4.0019    9.4477   -0.0794 C.ar    1  LIG1        0.0619
     40 C          -4.9430   10.1083   -0.9491 C.ar    1  LIG1        0.1408
     41 C          -5.0242    9.5507   -2.1935 C.ar    1  LIG1        0.0191
     42 S          -3.9299    8.2222   -2.3640 S.2     1  LIG1       -0.0912
     43 H          -5.6724    9.8512   -3.0038 H       1  LIG1        0.0731
     44 S          -3.7810    9.9423    1.6108 S.3     1  LIG1       -0.1380
     45 H          -5.0080   10.5019    1.6895 H       1  LIG1        0.1072
     46 O          -5.7336   11.1449   -0.5246 O.3     1  LIG1       -0.4935
     47 C          -5.1514   12.4434   -0.7036 C.3     1  LIG1        0.0789
     48 H          -5.8748   13.1610   -0.3124 H       1  LIG1        0.0660
     49 H          -4.2083   12.5355   -0.1530 H       1  LIG1        0.0660
     50 H          -4.9721   12.6461   -1.7660 H       1  LIG1        0.0660
@<TRIPOS>BOND
     1    43    41    1
     2    11    10    1
     3    42    41   ar
     4    42    38   ar
     5    41    40   ar
     6    12    10    1
     7    13    10    1
     8    10     9    1
     9    50    47    1
    10    25    22    1
    11    24    22    1
    12    40    46    1
    13    40    39   ar
    14    22    23    1
    15    22    21    1
    16    37    34    1
    17    47    46    1
    18    47    48    1
    19    47    49    1
    20    38    29    1
    21    38    39   ar
    22    30    29   ar
    23    30    26   ar
    24     9     3    1
    25    29    28   ar
    26     8     7    1
    27    39    44    1
    28    36    34    1
    29    34    35    1
    30    34    33    1
    31     7     2    1
    32    26    17    1
    33    26    27   ar
    34    21    16    1
    35     3     2   ar
    36     3     4   ar
    37    16    17   ar
    38    16    15   ar
    39    17    18   ar
    40    28    27   ar
    41    28    33    1
    42    15    19    1
    43    15    14   ar
    44    18    14   ar
    45    19    20    1
    46    14     4    1
    47     2     1   ar
    48    27    31    1
    49     4     5   ar
    50    44    45    1
    51     1     5   ar
    52     1     6    1
    53    31    32    1
