@<TRIPOS>MOLECULE
mol_data/opt/b3lyp/geoms/mol2/5gl5gl-5gl-5gl-.out
 50 53 0 0 0
SMALL
GASTEIGER

@<TRIPOS>ATOM
      1 C          -2.1360   -2.0475    0.9280 C.ar    1  LIG1       -0.0069
      2 C          -1.0367   -2.1461    0.1210 C.ar    1  LIG1        0.0542
      3 C          -0.3784   -0.8820   -0.0579 C.ar    1  LIG1        0.1484
      4 C          -0.9725    0.1589    0.6264 C.ar    1  LIG1        0.0698
      5 S          -2.3843   -0.4253    1.4908 S.2     1  LIG1       -0.0912
      6 H          -2.8119   -2.8335    1.2325 H       1  LIG1        0.0706
      7 S          -0.4938   -3.6416   -0.6707 S.3     1  LIG1       -0.1386
      8 H           0.7447   -3.1776   -0.9345 H       1  LIG1        0.1072
      9 O           0.7502   -0.7666   -0.8257 O.3     1  LIG1       -0.4928
     10 C           0.5365   -0.2073   -2.1321 C.3     1  LIG1        0.0789
     11 H           1.5140   -0.1886   -2.6162 H       1  LIG1        0.0660
     12 H          -0.1544   -0.8284   -2.7131 H       1  LIG1        0.0660
     13 H           0.1434    0.8117   -2.0608 H       1  LIG1        0.0660
     14 C          -0.5677    1.5502    0.6934 C.ar    1  LIG1        0.0468
     15 C           0.6909    2.0982    0.8525 C.ar    1  LIG1        0.0626
     16 C           0.6643    3.5320    0.9032 C.ar    1  LIG1        0.1491
     17 C          -0.5959    4.0850    0.8125 C.ar    1  LIG1        0.0704
     18 S          -1.7892    2.8162    0.6132 S.2     1  LIG1       -0.0822
     19 S           2.2035    1.1829    1.0135 S.3     1  LIG1       -0.1380
     20 H           2.8387    2.1888    1.6522 H       1  LIG1        0.1072
     21 O           1.8065    4.2692    1.0738 O.3     1  LIG1       -0.4928
     22 C           2.3881    4.7577   -0.1462 C.3     1  LIG1        0.0789
     23 H           3.2815    5.3123    0.1445 H       1  LIG1        0.0660
     24 H           2.6652    3.9276   -0.8054 H       1  LIG1        0.0660
     25 H           1.6936    5.4257   -0.6661 H       1  LIG1        0.0660
     26 C          -0.9735    5.4826    0.8543 C.ar    1  LIG1        0.0468
     27 C          -0.5218    6.4976    1.6756 C.ar    1  LIG1        0.0626
     28 C          -1.1733    7.7446    1.4118 C.ar    1  LIG1        0.1491
     29 C          -2.1410    7.7011    0.4232 C.ar    1  LIG1        0.0704
     30 S          -2.2184    6.0769   -0.2386 S.2     1  LIG1       -0.0822
     31 S           0.6750    6.3118    2.9752 S.3     1  LIG1       -0.1380
     32 H           0.1649    7.3287    3.7037 H       1  LIG1        0.1072
     33 O          -0.9190    8.8721    2.1512 O.3     1  LIG1       -0.4928
     34 C           0.2052    9.6448    1.6891 C.3     1  LIG1        0.0789
     35 H           0.2941   10.4900    2.3733 H       1  LIG1        0.0660
     36 H           1.1226    9.0481    1.7154 H       1  LIG1        0.0660
     37 H           0.0293   10.0121    0.6730 H       1  LIG1        0.0660
     38 C          -3.0098    8.7761   -0.0111 C.ar    1  LIG1        0.0462
     39 C          -3.8126    8.8729   -1.1349 C.ar    1  LIG1        0.0619
     40 C          -4.5649   10.0984   -1.1776 C.ar    1  LIG1        0.1408
     41 C          -4.3360   10.9155   -0.1065 C.ar    1  LIG1        0.0191
     42 S          -3.1881   10.2206    0.9928 S.2     1  LIG1       -0.0912
     43 H          -4.7588   11.8869    0.0986 H       1  LIG1        0.0731
     44 S          -3.9317    7.6712   -2.4389 S.3     1  LIG1       -0.1380
     45 H          -4.9202    8.3232   -3.0819 H       1  LIG1        0.1072
     46 O          -5.3925   10.3154   -2.2361 O.3     1  LIG1       -0.4935
     47 C          -6.1341   11.5284   -2.2252 C.3     1  LIG1        0.0789
     48 H          -6.7421   11.5248   -3.1303 H       1  LIG1        0.0660
     49 H          -6.7860   11.5835   -1.3446 H       1  LIG1        0.0660
     50 H          -5.4660   12.3985   -2.2360 H       1  LIG1        0.0660
@<TRIPOS>BOND
     1    48    47    1
     2    45    44    1
     3    12    10    1
     4    11    10    1
     5    44    39    1
     6    46    47    1
     7    46    40    1
     8    50    47    1
     9    47    49    1
    10    10    13    1
    11    10     9    1
    12    40    39   ar
    13    40    41   ar
    14    39    38   ar
    15     8     7    1
    16     9     3    1
    17    24    22    1
    18     7     2    1
    19    25    22    1
    20    30    29   ar
    21    30    26   ar
    22    22    23    1
    23    22    21    1
    24    41    43    1
    25    41    42   ar
    26     3     2   ar
    27     3     4   ar
    28    38    29    1
    29    38    42   ar
    30     2     1   ar
    31    29    28   ar
    32    18    14   ar
    33    18    17   ar
    34     4    14    1
    35     4     5   ar
    36    37    34    1
    37    14    15   ar
    38    17    26    1
    39    17    16   ar
    40    15    16   ar
    41    15    19    1
    42    26    27   ar
    43    16    21    1
    44     1     6    1
    45     1     5   ar
    46    19    20    1
    47    28    27   ar
    48    28    33    1
    49    27    31    1
    50    34    36    1
    51    34    33    1
    52    34    35    1
    53    31    32    1
