@<TRIPOS>MOLECULE
mol_data/opt/b3lyp/geoms/mol2/5gl5gl5gl5gl.out
 50 53 0 0 0
SMALL
GASTEIGER

@<TRIPOS>ATOM
      1 C           0.1044   -1.9900   -2.3134 C.ar    1  LIG1       -0.0069
      2 C           0.8405   -2.0428   -1.1622 C.ar    1  LIG1        0.0542
      3 C           0.7016   -0.8509   -0.3735 C.ar    1  LIG1        0.1484
      4 C          -0.1498    0.0866   -0.9228 C.ar    1  LIG1        0.0698
      5 S          -0.7754   -0.5011   -2.4542 S.2     1  LIG1       -0.0912
      6 H           0.0177   -2.7423   -3.0841 H       1  LIG1        0.0706
      7 S           1.8944   -3.3959   -0.6973 S.3     1  LIG1       -0.1386
      8 H           1.9466   -3.0473    0.6045 H       1  LIG1        0.1072
      9 O           1.3513   -0.6984    0.8228 O.3     1  LIG1       -0.4928
     10 C           2.5610    0.0762    0.7527 C.3     1  LIG1        0.0789
     11 H           2.9570    0.1104    1.7686 H       1  LIG1        0.0660
     12 H           3.2889   -0.3983    0.0855 H       1  LIG1        0.0660
     13 H           2.3522    1.0929    0.4052 H       1  LIG1        0.0660
     14 C          -0.5320    1.3793   -0.3917 C.ar    1  LIG1        0.0468
     15 C          -0.8621    1.7405    0.8998 C.ar    1  LIG1        0.0626
     16 C          -1.2049    3.1259    1.0092 C.ar    1  LIG1        0.1491
     17 C          -1.1942    3.8299   -0.1861 C.ar    1  LIG1        0.0704
     18 S          -0.6478    2.7607   -1.4728 S.2     1  LIG1       -0.0822
     19 S          -0.9479    0.6250    2.2807 S.3     1  LIG1       -0.1380
     20 H          -1.8987    1.3456    2.9147 H       1  LIG1        0.1072
     21 O          -1.6036    3.6899    2.1929 O.3     1  LIG1       -0.4928
     22 C          -0.5246    4.0502    3.0809 C.3     1  LIG1        0.0789
     23 H          -0.9955    4.4746    3.9685 H       1  LIG1        0.0660
     24 H           0.0615    3.1683    3.3558 H       1  LIG1        0.0660
     25 H           0.1235    4.7993    2.6157 H       1  LIG1        0.0660
     26 C          -1.5559    5.2153   -0.3943 C.ar    1  LIG1        0.0468
     27 C          -1.5503    5.9953   -1.5446 C.ar    1  LIG1        0.0626
     28 C          -1.9513    7.3498   -1.3128 C.ar    1  LIG1        0.1491
     29 C          -2.2849    7.6233   -0.0045 C.ar    1  LIG1        0.0704
     30 S          -2.1169    6.1818    0.9755 S.2     1  LIG1       -0.0822
     31 S          -1.0652    5.5272   -3.1954 S.3     1  LIG1       -0.1380
     32 H          -1.8119    4.4066   -3.2838 H       1  LIG1        0.1072
     33 O          -1.9719    8.2864   -2.3079 O.3     1  LIG1       -0.4928
     34 C          -3.2333    8.4285   -2.9768 C.3     1  LIG1        0.0789
     35 H          -3.0978    9.2248   -3.7099 H       1  LIG1        0.0660
     36 H          -3.5084    7.5005   -3.4892 H       1  LIG1        0.0660
     37 H          -4.0210    8.7096   -2.2691 H       1  LIG1        0.0660
     38 C          -2.7328    8.8744    0.5744 C.ar    1  LIG1        0.0462
     39 C          -2.2770   10.1616    0.3628 C.ar    1  LIG1        0.0619
     40 C          -2.9677   11.1289    1.1783 C.ar    1  LIG1        0.1408
     41 C          -3.9137   10.5806    1.9971 C.ar    1  LIG1        0.0191
     42 S          -4.0238    8.8683    1.7785 S.2     1  LIG1       -0.0912
     43 H          -4.5378   11.0963    2.7123 H       1  LIG1        0.0731
     44 S          -0.9484   10.6248   -0.7196 S.3     1  LIG1       -0.1380
     45 H          -0.6627   11.7431   -0.0171 H       1  LIG1        0.1072
     46 O          -2.6367   12.4597    1.1803 O.3     1  LIG1       -0.4935
     47 C          -3.3431   13.2449    0.2098 C.3     1  LIG1        0.0789
     48 H          -2.9704   14.2659    0.3106 H       1  LIG1        0.0660
     49 H          -3.1540   12.8840   -0.8076 H       1  LIG1        0.0660
     50 H          -4.4216   13.2273    0.4060 H       1  LIG1        0.0660
@<TRIPOS>BOND
     1    35    34    1
     2    36    34    1
     3    32    31    1
     4    31    27    1
     5     6     1    1
     6    34    33    1
     7    34    37    1
     8     5     1   ar
     9     5     4   ar
    10     1     2   ar
    11    33    28    1
    12    27    28   ar
    13    27    26   ar
    14    18    14   ar
    15    18    17   ar
    16    28    29   ar
    17     2     7    1
    18     2     3   ar
    19     4    14    1
    20     4     3   ar
    21    49    47    1
    22    44    45    1
    23    44    39    1
    24     7     8    1
    25    26    17    1
    26    26    30   ar
    27    14    15   ar
    28     3     9    1
    29    17    16   ar
    30    29    38    1
    31    29    30   ar
    32    12    10    1
    33    47    48    1
    34    47    50    1
    35    47    46    1
    36    39    38   ar
    37    39    40   ar
    38    13    10    1
    39    38    42   ar
    40    10     9    1
    41    10    11    1
    42    15    16   ar
    43    15    19    1
    44    16    21    1
    45    40    46    1
    46    40    41   ar
    47    42    41   ar
    48    41    43    1
    49    21    22    1
    50    19    20    1
    51    25    22    1
    52    22    24    1
    53    22    23    1
