@<TRIPOS>MOLECULE
mol_data/opt/b3lyp/geoms/mol2/5gl5gl-5gl-.out
 38 40 0 0 0
SMALL
GASTEIGER

@<TRIPOS>ATOM
      1 C          -2.2566   -2.0860    1.0510 C.ar    1  LIG1       -0.0069
      2 C          -0.9638   -2.2787    0.6496 C.ar    1  LIG1        0.0542
      3 C          -0.2850   -1.0397    0.3900 C.ar    1  LIG1        0.1484
      4 C          -1.0613    0.0797    0.6120 C.ar    1  LIG1        0.0698
      5 S          -2.6674   -0.4023    1.1307 S.2     1  LIG1       -0.0912
      6 H          -2.9917   -2.8333    1.3128 H       1  LIG1        0.0706
      7 S          -0.2020   -3.8673    0.4187 S.3     1  LIG1       -0.1386
      8 H           1.0557   -3.3804    0.4168 H       1  LIG1        0.1072
      9 O           1.0234   -1.0139   -0.0152 O.3     1  LIG1       -0.4928
     10 C           1.2162   -0.7582   -1.4161 C.3     1  LIG1        0.0789
     11 H           2.2943   -0.7791   -1.5813 H       1  LIG1        0.0660
     12 H           0.7318   -1.5313   -2.0231 H       1  LIG1        0.0660
     13 H           0.8224    0.2253   -1.6910 H       1  LIG1        0.0660
     14 C          -0.6984    1.4777    0.4764 C.ar    1  LIG1        0.0468
     15 C           0.4525    2.1339    0.8677 C.ar    1  LIG1        0.0626
     16 C           0.4113    3.5392    0.5761 C.ar    1  LIG1        0.1491
     17 C          -0.7623    3.9689   -0.0049 C.ar    1  LIG1        0.0704
     18 S          -1.8396    2.6077   -0.2466 S.2     1  LIG1       -0.0822
     19 S           1.8456    1.3848    1.6737 S.3     1  LIG1       -0.1380
     20 H           2.2521    2.5468    2.2285 H       1  LIG1        0.1072
     21 O           1.4460    4.3758    0.9020 O.3     1  LIG1       -0.4928
     22 C           2.3841    4.6055   -0.1616 C.3     1  LIG1        0.0789
     23 H           3.1357    5.2874    0.2388 H       1  LIG1        0.0660
     24 H           2.8606    3.6684   -0.4704 H       1  LIG1        0.0660
     25 H           1.8889    5.0683   -1.0217 H       1  LIG1        0.0660
     26 C          -1.1390    5.3129   -0.3993 C.ar    1  LIG1        0.0462
     27 C          -0.9596    6.5124    0.2618 C.ar    1  LIG1        0.0619
     28 C          -1.5237    7.6258   -0.4597 C.ar    1  LIG1        0.1408
     29 C          -2.1266    7.2696   -1.6326 C.ar    1  LIG1        0.0191
     30 S          -1.9973    5.5689   -1.9195 S.2     1  LIG1       -0.0912
     31 H          -2.6399    7.9183   -2.3274 H       1  LIG1        0.0731
     32 S          -0.1938    6.7152    1.8504 S.3     1  LIG1       -0.1380
     33 H          -0.8695    7.8540    2.1182 H       1  LIG1        0.1072
     34 O          -1.5192    8.9029    0.0394 O.3     1  LIG1       -0.4935
     35 C          -0.3668    9.6753   -0.3246 C.3     1  LIG1        0.0789
     36 H          -0.4883   10.6505    0.1501 H       1  LIG1        0.0660
     37 H           0.5561    9.2050    0.0336 H       1  LIG1        0.0660
     38 H          -0.3107    9.8015   -1.4122 H       1  LIG1        0.0660
@<TRIPOS>BOND
     1    31    29    1
     2    12    10    1
     3    30    29   ar
     4    30    26   ar
     5    13    10    1
     6    29    28   ar
     7    11    10    1
     8    10     9    1
     9    38    35    1
    10    25    22    1
    11    24    22    1
    12    28    34    1
    13    28    27   ar
    14    26    17    1
    15    26    27   ar
    16    35    37    1
    17    35    34    1
    18    35    36    1
    19    18    17   ar
    20    18    14   ar
    21    22    23    1
    22    22    21    1
    23     9     3    1
    24    17    16   ar
    25    27    32    1
    26     3     4   ar
    27     3     2   ar
    28     8     7    1
    29     7     2    1
    30    14     4    1
    31    14    15   ar
    32    16    15   ar
    33    16    21    1
    34     4     5   ar
    35     2     1   ar
    36    15    19    1
    37     1     5   ar
    38     1     6    1
    39    19    20    1
    40    32    33    1
