@<TRIPOS>MOLECULE
mol_data/opt/b3lyp/geoms/mol2/5gl5gl.out
 26 27 0 0 0
SMALL
GASTEIGER

@<TRIPOS>ATOM
      1 C          -2.3796   -1.9483    0.4836 C.ar    1  LIG1       -0.0069
      2 C          -1.0253   -2.1238    0.5443 C.ar    1  LIG1        0.0542
      3 C          -0.3079   -0.8995    0.3185 C.ar    1  LIG1        0.1484
      4 C          -1.1212    0.1935    0.1052 C.ar    1  LIG1        0.0698
      5 S          -2.8053   -0.2963    0.1645 S.2     1  LIG1       -0.0912
      6 H          -3.1545   -2.6890    0.6187 H       1  LIG1        0.0706
      7 S          -0.2186   -3.6836    0.8184 S.3     1  LIG1       -0.1386
      8 H           0.9509   -3.1330    1.2032 H       1  LIG1        0.1072
      9 O           1.0611   -0.8495    0.3467 O.3     1  LIG1       -0.4928
     10 C           1.6875   -0.9073   -0.9455 C.3     1  LIG1        0.0789
     11 H           2.7620   -0.8543   -0.7637 H       1  LIG1        0.0660
     12 H           1.4434   -1.8457   -1.4558 H       1  LIG1        0.0660
     13 H           1.3781   -0.0606   -1.5668 H       1  LIG1        0.0660
     14 C          -0.7399    1.5745   -0.1287 C.ar    1  LIG1        0.0462
     15 C           0.2169    2.3441    0.5025 C.ar    1  LIG1        0.0619
     16 C           0.2538    3.6950    0.0004 C.ar    1  LIG1        0.1408
     17 C          -0.6647    3.9394   -0.9806 C.ar    1  LIG1        0.0191
     18 S          -1.5835    2.5219   -1.3538 S.2     1  LIG1       -0.0912
     19 H          -0.8466    4.8757   -1.4877 H       1  LIG1        0.0731
     20 S           1.2659    1.8045    1.8294 S.3     1  LIG1       -0.1380
     21 H           1.4252    3.0534    2.3188 H       1  LIG1        0.1072
     22 O           1.0807    4.6530    0.5285 O.3     1  LIG1       -0.4935
     23 C           2.3663    4.7373   -0.1015 C.3     1  LIG1        0.0789
     24 H           2.9143    5.5223    0.4227 H       1  LIG1        0.0660
     25 H           2.9127    3.7908   -0.0190 H       1  LIG1        0.0660
     26 H           2.2643    5.0056   -1.1596 H       1  LIG1        0.0660
@<TRIPOS>BOND
     1    13    10    1
     2    19    17    1
     3    12    10    1
     4    18    17   ar
     5    18    14   ar
     6    26    23    1
     7    17    16   ar
     8    10    11    1
     9    10     9    1
    10    14     4    1
    11    14    15   ar
    12    23    25    1
    13    23    24    1
    14    23    22    1
    15    16    15   ar
    16    16    22    1
    17     4     5   ar
    18     4     3   ar
    19     5     1   ar
    20     3     9    1
    21     3     2   ar
    22     1     2   ar
    23     1     6    1
    24    15    20    1
    25     2     7    1
    26     7     8    1
    27    20    21    1
