@<TRIPOS>MOLECULE
mol_data/opt/b3lyp/geoms/mol2/5gl5gl-.out
 26 27 0 0 0
SMALL
GASTEIGER

@<TRIPOS>ATOM
      1 C          -2.3740   -1.9437    0.5355 C.ar    1  LIG1       -0.0069
      2 C          -1.0191   -2.1179    0.5867 C.ar    1  LIG1        0.0542
      3 C          -0.3041   -0.8964    0.3400 C.ar    1  LIG1        0.1484
      4 C          -1.1196    0.1938    0.1204 C.ar    1  LIG1        0.0698
      5 S          -2.8030   -0.2957    0.2001 S.2     1  LIG1       -0.0912
      6 H          -3.1474   -2.6829    0.6861 H       1  LIG1        0.0706
      7 S          -0.2094   -3.6744    0.8731 S.3     1  LIG1       -0.1386
      8 H           0.9635   -3.1188    1.2403 H       1  LIG1        0.1072
      9 O           1.0650   -0.8456    0.3561 O.3     1  LIG1       -0.4928
     10 C           1.6807   -0.9180   -0.9406 C.3     1  LIG1        0.0789
     11 H           2.7566   -0.8623   -0.7683 H       1  LIG1        0.0660
     12 H           1.4330   -1.8625   -1.4379 H       1  LIG1        0.0660
     13 H           1.3655   -0.0789   -1.5691 H       1  LIG1        0.0660
     14 C          -0.7410    1.5720   -0.1336 C.ar    1  LIG1        0.0462
     15 C           0.2207    2.3498    0.4799 C.ar    1  LIG1        0.0619
     16 C           0.2524    3.6945   -0.0391 C.ar    1  LIG1        0.1408
     17 C          -0.6747    3.9263   -1.0150 C.ar    1  LIG1        0.0191
     18 S          -1.5958    2.5039   -1.3629 S.2     1  LIG1       -0.0912
     19 H          -0.8615    4.8563   -1.5319 H       1  LIG1        0.0731
     20 S           1.2816    1.8275    1.8038 S.3     1  LIG1       -0.1380
     21 H           1.4455    3.0828    2.2751 H       1  LIG1        0.1072
     22 O           1.0834    4.6590    0.4701 O.3     1  LIG1       -0.4935
     23 C           2.3628    4.7372   -0.1733 C.3     1  LIG1        0.0789
     24 H           2.9151    5.5286    0.3365 H       1  LIG1        0.0660
     25 H           2.9108    3.7921   -0.0852 H       1  LIG1        0.0660
     26 H           2.2502    4.9931   -1.2334 H       1  LIG1        0.0660
@<TRIPOS>BOND
     1    13    10    1
     2    19    17    1
     3    12    10    1
     4    18    17   ar
     5    18    14   ar
     6    26    23    1
     7    17    16   ar
     8    10    11    1
     9    10     9    1
    10    23    25    1
    11    23    24    1
    12    23    22    1
    13    14     4    1
    14    14    15   ar
    15    16    22    1
    16    16    15   ar
    17     4     5   ar
    18     4     3   ar
    19     5     1   ar
    20     3     9    1
    21     3     2   ar
    22    15    20    1
    23     1     2   ar
    24     1     6    1
    25     2     7    1
    26     7     8    1
    27    20    21    1
