@<TRIPOS>MOLECULE
mol_data/opt/b3lyp/geoms/mol2/5gl5gl5gl5gl-.out
 50 53 0 0 0
SMALL
GASTEIGER

@<TRIPOS>ATOM
      1 C          -0.8780   -2.4160   -1.2377 C.ar    1  LIG1       -0.0069
      2 C           0.1777   -2.2913   -0.3777 C.ar    1  LIG1        0.0542
      3 C           0.3285   -0.9483    0.1075 C.ar    1  LIG1        0.1484
      4 C          -0.6218   -0.0706   -0.3736 C.ar    1  LIG1        0.0698
      5 S          -1.7119   -0.9111   -1.4634 S.2     1  LIG1       -0.0912
      6 H          -1.2234   -3.3057   -1.7440 H       1  LIG1        0.0706
      7 S           1.2826   -3.6130    0.0612 S.3     1  LIG1       -0.1386
      8 H           1.7133   -3.0245    1.1958 H       1  LIG1        0.1072
      9 O           1.3233   -0.6042    0.9849 O.3     1  LIG1       -0.4928
     10 C           2.4852   -0.0248    0.3680 C.3     1  LIG1        0.0789
     11 H           3.1874    0.1817    1.1772 H       1  LIG1        0.0660
     12 H           2.9362   -0.7231   -0.3456 H       1  LIG1        0.0660
     13 H           2.2286    0.9086   -0.1436 H       1  LIG1        0.0660
     14 C          -0.7805    1.3393   -0.0779 C.ar    1  LIG1        0.0468
     15 C          -0.6993    2.0015    1.1310 C.ar    1  LIG1        0.0626
     16 C          -0.9551    3.4042    1.0046 C.ar    1  LIG1        0.1491
     17 C          -1.2646    3.8285   -0.2772 C.ar    1  LIG1        0.0704
     18 S          -1.1851    2.4580   -1.3750 S.2     1  LIG1       -0.0822
     19 S          -0.3847    1.2330    2.7016 S.3     1  LIG1       -0.1380
     20 H          -1.0718    2.1680    3.3931 H       1  LIG1        0.1072
     21 O          -0.9838    4.2421    2.0897 O.3     1  LIG1       -0.4928
     22 C           0.3024    4.7612    2.4796 C.3     1  LIG1        0.0789
     23 H           0.1237    5.3846    3.3567 H       1  LIG1        0.0660
     24 H           0.9875    3.9465    2.7346 H       1  LIG1        0.0660
     25 H           0.7301    5.3717    1.6780 H       1  LIG1        0.0660
     26 C          -1.6305    5.1625   -0.6994 C.ar    1  LIG1        0.0468
     27 C          -1.7369    5.7056   -1.9700 C.ar    1  LIG1        0.0626
     28 C          -2.1469    7.0737   -1.9611 C.ar    1  LIG1        0.1491
     29 C          -2.3844    7.5971   -0.7044 C.ar    1  LIG1        0.0704
     30 S          -2.0736    6.3711    0.5108 S.2     1  LIG1       -0.0822
     31 S          -1.4088    4.8616   -3.5002 S.3     1  LIG1       -0.1380
     32 H          -2.0888    5.7627   -4.2398 H       1  LIG1        0.1072
     33 O          -2.3329    7.7789   -3.1257 O.3     1  LIG1       -0.4928
     34 C          -1.1634    8.4884   -3.5785 C.3     1  LIG1        0.0789
     35 H          -1.4487    8.9828   -4.5083 H       1  LIG1        0.0660
     36 H          -0.8580    9.2387   -2.8429 H       1  LIG1        0.0660
     37 H          -0.3370    7.7944   -3.7647 H       1  LIG1        0.0660
     38 C          -2.8631    8.9240   -0.3739 C.ar    1  LIG1        0.0462
     39 C          -2.8263    9.6121    0.8271 C.ar    1  LIG1        0.0619
     40 C          -3.4637   10.8997    0.7495 C.ar    1  LIG1        0.1408
     41 C          -3.9743   11.1822   -0.4865 C.ar    1  LIG1        0.0191
     42 S          -3.6923    9.8860   -1.6037 S.2     1  LIG1       -0.0912
     43 H          -4.4846   12.0749   -0.8137 H       1  LIG1        0.0731
     44 S          -2.0715    9.0442    2.3334 S.3     1  LIG1       -0.1380
     45 H          -2.4092   10.1464    3.0312 H       1  LIG1        0.1072
     46 O          -3.4895   11.6806    1.8641 O.3     1  LIG1       -0.4935
     47 C          -4.1407   12.9386    1.7441 C.3     1  LIG1        0.0789
     48 H          -4.0735   13.4139    2.7231 H       1  LIG1        0.0660
     49 H          -3.6451   13.5692    0.9955 H       1  LIG1        0.0660
     50 H          -5.1951   12.8113    1.4693 H       1  LIG1        0.0660
@<TRIPOS>BOND
     1    35    34    1
     2    32    31    1
     3    37    34    1
     4    34    33    1
     5    34    36    1
     6    31    27    1
     7    33    28    1
     8    27    28   ar
     9    27    26   ar
    10    28    29   ar
    11     6     1    1
    12    42    41   ar
    13    42    38   ar
    14     5     1   ar
    15     5     4   ar
    16    18    17   ar
    17    18    14   ar
    18     1     2   ar
    19    43    41    1
    20    29    38    1
    21    29    30   ar
    22    26    17    1
    23    26    30   ar
    24    41    40   ar
    25     2     7    1
    26     2     3   ar
    27    38    39   ar
    28     4    14    1
    29     4     3   ar
    30    12    10    1
    31    17    16   ar
    32    13    10    1
    33    14    15   ar
    34     7     8    1
    35     3     9    1
    36    10     9    1
    37    10    11    1
    38    40    39   ar
    39    40    46    1
    40    39    44    1
    41    49    47    1
    42    16    15   ar
    43    16    21    1
    44    15    19    1
    45    50    47    1
    46    25    22    1
    47    47    46    1
    48    47    48    1
    49    21    22    1
    50    44    45    1
    51    22    24    1
    52    22    23    1
    53    19    20    1
