@<TRIPOS>MOLECULE
mol_data/opt/b3lyp/geoms/mol2/5gl5gl-5gl-5gl.out
 50 53 0 0 0
SMALL
GASTEIGER

@<TRIPOS>ATOM
      1 C          -1.7933   -2.0395    1.9654 C.ar    1  LIG1       -0.0069
      2 C          -0.8124   -2.2495    1.0363 C.ar    1  LIG1        0.0542
      3 C          -0.2539   -1.0193    0.5485 C.ar    1  LIG1        0.1484
      4 C          -0.8022    0.1095    1.1222 C.ar    1  LIG1        0.0698
      5 S          -2.0464   -0.3507    2.2718 S.2     1  LIG1       -0.0912
      6 H          -2.3763   -2.7774    2.4974 H       1  LIG1        0.0706
      7 S          -0.3015   -3.8462    0.4463 S.3     1  LIG1       -0.1386
      8 H           0.8691   -3.4027   -0.0558 H       1  LIG1        0.1072
      9 O           0.7481   -1.0053   -0.3856 O.3     1  LIG1       -0.4928
     10 C           0.3077   -0.7643   -1.7323 C.3     1  LIG1        0.0789
     11 H           1.2039   -0.7933   -2.3538 H       1  LIG1        0.0660
     12 H          -0.3948   -1.5400   -2.0569 H       1  LIG1        0.0660
     13 H          -0.1661    0.2189   -1.8172 H       1  LIG1        0.0660
     14 C          -0.4658    1.5008    0.8864 C.ar    1  LIG1        0.0468
     15 C           0.7724    2.1007    0.7618 C.ar    1  LIG1        0.0626
     16 C           0.6792    3.5198    0.5670 C.ar    1  LIG1        0.1491
     17 C          -0.6077    4.0147    0.5692 C.ar    1  LIG1        0.0704
     18 S          -1.7500    2.7000    0.7710 S.2     1  LIG1       -0.0822
     19 S           2.3377    1.2690    0.8591 S.3     1  LIG1       -0.1380
     20 H           2.9975    2.3839    1.2404 H       1  LIG1        0.1072
     21 O           1.7909    4.3092    0.4404 O.3     1  LIG1       -0.4928
     22 C           2.2162    4.5307   -0.9142 C.3     1  LIG1        0.0789
     23 H           3.0868    5.1852   -0.8545 H       1  LIG1        0.0660
     24 H           2.4943    3.5864   -1.3953 H       1  LIG1        0.0660
     25 H           1.4267    5.0206   -1.4938 H       1  LIG1        0.0660
     26 C          -1.0510    5.3869    0.4232 C.ar    1  LIG1        0.0468
     27 C          -0.5422    6.5470    0.9758 C.ar    1  LIG1        0.0626
     28 C          -1.3000    7.7094    0.6072 C.ar    1  LIG1        0.1491
     29 C          -2.3916    7.4519   -0.1938 C.ar    1  LIG1        0.0704
     30 S          -2.4786    5.7379   -0.5480 S.2     1  LIG1       -0.0822
     31 S           0.8599    6.6520    2.0592 S.3     1  LIG1       -0.1380
     32 H           0.4380    7.8050    2.6220 H       1  LIG1        0.1072
     33 O          -0.9769    8.9589    1.0662 O.3     1  LIG1       -0.4928
     34 C          -0.1410    9.7218    0.1809 C.3     1  LIG1        0.0789
     35 H           0.0305   10.6789    0.6756 H       1  LIG1        0.0660
     36 H           0.8156    9.2145    0.0141 H       1  LIG1        0.0660
     37 H          -0.6429    9.8878   -0.7781 H       1  LIG1        0.0660
     38 C          -3.3684    8.3849   -0.7223 C.ar    1  LIG1        0.0462
     39 C          -4.0006    9.4480   -0.1074 C.ar    1  LIG1        0.0619
     40 C          -4.9452   10.1020   -0.9784 C.ar    1  LIG1        0.1408
     41 C          -5.0320    9.5343   -2.2178 C.ar    1  LIG1        0.0191
     42 S          -3.9390    8.2040   -2.3821 S.2     1  LIG1       -0.0912
     43 H          -5.6835    9.8285   -3.0277 H       1  LIG1        0.0731
     44 S          -3.7721    9.9564    1.5778 S.3     1  LIG1       -0.1380
     45 H          -4.9986   10.5170    1.6573 H       1  LIG1        0.1072
     46 O          -5.7336   11.1424   -0.5590 O.3     1  LIG1       -0.4935
     47 C          -5.1516   12.4392   -0.7510 C.3     1  LIG1        0.0789
     48 H          -5.8730   13.1602   -0.3624 H       1  LIG1        0.0660
     49 H          -4.2061   12.5352   -0.2052 H       1  LIG1        0.0660
     50 H          -4.9768   12.6332   -1.8157 H       1  LIG1        0.0660
@<TRIPOS>BOND
     1    43    41    1
     2    42    41   ar
     3    42    38   ar
     4    11    10    1
     5    41    40   ar
     6    12    10    1
     7    13    10    1
     8    50    47    1
     9    10     9    1
    10    25    22    1
    11    24    22    1
    12    40    46    1
    13    40    39   ar
    14    22    23    1
    15    22    21    1
    16    37    34    1
    17    47    46    1
    18    47    48    1
    19    47    49    1
    20    38    29    1
    21    38    39   ar
    22    30    29   ar
    23    30    26   ar
    24     9     3    1
    25    29    28   ar
    26    39    44    1
    27     8     7    1
    28    36    34    1
    29    34    35    1
    30    34    33    1
    31    26    17    1
    32    26    27   ar
    33    21    16    1
    34     7     2    1
    35     3     2   ar
    36     3     4   ar
    37    16    17   ar
    38    16    15   ar
    39    17    18   ar
    40    28    27   ar
    41    28    33    1
    42    15    19    1
    43    15    14   ar
    44    18    14   ar
    45    19    20    1
    46    14     4    1
    47    27    31    1
    48     2     1   ar
    49     4     5   ar
    50    44    45    1
    51     1     5   ar
    52     1     6    1
    53    31    32    1
