@<TRIPOS>MOLECULE
mol_data/opt/b3lyp/geoms/mol2/5gl5gl-5gl.out
 38 40 0 0 0
SMALL
GASTEIGER

@<TRIPOS>ATOM
      1 C          -2.2384   -2.0744    1.1371 C.ar    1  LIG1       -0.0069
      2 C          -0.9535   -2.2717    0.7135 C.ar    1  LIG1        0.0542
      3 C          -0.2791   -1.0356    0.4293 C.ar    1  LIG1        0.1484
      4 C          -1.0507    0.0863    0.6551 C.ar    1  LIG1        0.0698
      5 S          -2.6470   -0.3899    1.2083 S.2     1  LIG1       -0.0912
      6 H          -2.9687   -2.8188    1.4199 H       1  LIG1        0.0706
      7 S          -0.1965   -3.8629    0.4841 S.3     1  LIG1       -0.1386
      8 H           1.0610   -3.3766    0.4533 H       1  LIG1        0.1072
      9 O           1.0214   -1.0145   -0.0007 O.3     1  LIG1       -0.4928
     10 C           1.1878   -0.7724   -1.4074 C.3     1  LIG1        0.0789
     11 H           2.2626   -0.7954   -1.5927 H       1  LIG1        0.0660
     12 H           0.6918   -1.5509   -1.9977 H       1  LIG1        0.0660
     13 H           0.7892    0.2086   -1.6842 H       1  LIG1        0.0660
     14 C          -0.6900    1.4827    0.4991 C.ar    1  LIG1        0.0468
     15 C           0.4685    2.1420    0.8618 C.ar    1  LIG1        0.0626
     16 C           0.4222    3.5445    0.5574 C.ar    1  LIG1        0.1491
     17 C          -0.7621    3.9691   -0.0051 C.ar    1  LIG1        0.0704
     18 S          -1.8444    2.6063   -0.2129 S.2     1  LIG1       -0.0822
     19 S           1.8764    1.3999    1.6484 S.3     1  LIG1       -0.1380
     20 H           2.2937    2.5670    2.1843 H       1  LIG1        0.1072
     21 O           1.4634    4.3835    0.8553 O.3     1  LIG1       -0.4928
     22 C           2.3809    4.6026   -0.2284 C.3     1  LIG1        0.0789
     23 H           3.1402    5.2879    0.1510 H       1  LIG1        0.0660
     24 H           2.8510    3.6623   -0.5372 H       1  LIG1        0.0660
     25 H           1.8693    5.0573   -1.0831 H       1  LIG1        0.0660
     26 C          -1.1460    5.3095   -0.4052 C.ar    1  LIG1        0.0462
     27 C          -0.9533    6.5152    0.2407 C.ar    1  LIG1        0.0619
     28 C          -1.5310    7.6219   -0.4804 C.ar    1  LIG1        0.1408
     29 C          -2.1567    7.2547   -1.6379 C.ar    1  LIG1        0.0191
     30 S          -2.0336    5.5512   -1.9107 S.2     1  LIG1       -0.0912
     31 H          -2.6831    7.8969   -2.3289 H       1  LIG1        0.0731
     32 S          -0.1569    6.7330    1.8121 S.3     1  LIG1       -0.1380
     33 H          -0.8274    7.8744    2.0821 H       1  LIG1        0.1072
     34 O          -1.5164    8.9037    0.0060 O.3     1  LIG1       -0.4935
     35 C          -0.3706    9.6716   -0.3870 C.3     1  LIG1        0.0789
     36 H          -0.4823   10.6514    0.0807 H       1  LIG1        0.0660
     37 H           0.5587    9.2039   -0.0420 H       1  LIG1        0.0660
     38 H          -0.3350    9.7875   -1.4766 H       1  LIG1        0.0660
@<TRIPOS>BOND
     1    31    29    1
     2    12    10    1
     3    30    29   ar
     4    30    26   ar
     5    13    10    1
     6    29    28   ar
     7    11    10    1
     8    38    35    1
     9    10     9    1
    10    25    22    1
    11    24    22    1
    12    28    34    1
    13    28    27   ar
    14    26    17    1
    15    26    27   ar
    16    35    37    1
    17    35    34    1
    18    35    36    1
    19    22    23    1
    20    22    21    1
    21    18    17   ar
    22    18    14   ar
    23    17    16   ar
    24     9     3    1
    25    27    32    1
    26     3     4   ar
    27     3     2   ar
    28     8     7    1
    29     7     2    1
    30    14     4    1
    31    14    15   ar
    32    16    21    1
    33    16    15   ar
    34     4     5   ar
    35     2     1   ar
    36    15    19    1
    37     1     5   ar
    38     1     6    1
    39    19    20    1
    40    32    33    1
