@<TRIPOS>MOLECULE
mol_data/opt/b3lyp/geoms/mol2/5gl5gl5gl.out
 38 40 0 0 0
SMALL
GASTEIGER

@<TRIPOS>ATOM
      1 C          -2.4300   -1.8768   -0.3522 C.ar    1  LIG1       -0.0069
      2 C          -1.0910   -2.1427   -0.2750 C.ar    1  LIG1        0.0542
      3 C          -0.3154   -0.9595   -0.0280 C.ar    1  LIG1        0.1484
      4 C          -1.0714    0.1883    0.0964 C.ar    1  LIG1        0.0698
      5 S          -2.7719   -0.1922   -0.1162 S.2     1  LIG1       -0.0912
      6 H          -3.2385   -2.5721   -0.5262 H       1  LIG1        0.0706
      7 S          -0.3637   -3.7485   -0.5013 S.3     1  LIG1       -0.1386
      8 H           0.8104   -3.4148    0.0723 H       1  LIG1        0.1072
      9 O           1.0491   -1.0074    0.0897 O.3     1  LIG1       -0.4928
     10 C           1.7658   -0.5943   -1.0857 C.3     1  LIG1        0.0789
     11 H           2.8252   -0.6990   -0.8470 H       1  LIG1        0.0660
     12 H           1.5130   -1.2322   -1.9400 H       1  LIG1        0.0660
     13 H           1.5457    0.4499   -1.3292 H       1  LIG1        0.0660
     14 C          -0.6237    1.5398    0.3700 C.ar    1  LIG1        0.0468
     15 C           0.3076    1.9928    1.2832 C.ar    1  LIG1        0.0626
     16 C           0.4464    3.4178    1.2626 C.ar    1  LIG1        0.1491
     17 C          -0.3824    4.0717    0.3680 C.ar    1  LIG1        0.0704
     18 S          -1.3341    2.8866   -0.5109 S.2     1  LIG1       -0.0822
     19 S           1.2119    0.9680    2.4183 S.3     1  LIG1       -0.1380
     20 H           1.3503    1.9538    3.3312 H       1  LIG1        0.1072
     21 O           1.2727    4.0822    2.1337 O.3     1  LIG1       -0.4928
     22 C           2.6353    4.2057    1.6845 C.3     1  LIG1        0.0789
     23 H           3.1706    4.7278    2.4790 H       1  LIG1        0.0660
     24 H           3.0811    3.2189    1.5234 H       1  LIG1        0.0660
     25 H           2.6857    4.7923    0.7617 H       1  LIG1        0.0660
     26 C          -0.5191    5.5008    0.1709 C.ar    1  LIG1        0.0462
     27 C          -1.1155    6.2038   -0.8618 C.ar    1  LIG1        0.0619
     28 C          -1.0804    7.6276   -0.6589 C.ar    1  LIG1        0.1408
     29 C          -0.4683    7.9969    0.5058 C.ar    1  LIG1        0.0191
     30 S           0.0933    6.6183    1.3964 S.2     1  LIG1       -0.0912
     31 H          -0.2991    8.9914    0.8889 H       1  LIG1        0.0731
     32 S          -1.8389    5.4965   -2.3232 S.3     1  LIG1       -0.1380
     33 H          -2.2894    6.6775   -2.7899 H       1  LIG1        0.1072
     34 O          -1.6334    8.4326   -1.6070 O.3     1  LIG1       -0.4935
     35 C          -1.5963    9.8310   -1.3535 C.3     1  LIG1        0.0789
     36 H          -2.0874   10.3100   -2.2010 H       1  LIG1        0.0660
     37 H          -2.1337   10.0777   -0.4295 H       1  LIG1        0.0660
     38 H          -0.5625   10.1904   -1.2780 H       1  LIG1        0.0660
@<TRIPOS>BOND
     1    33    32    1
     2    32    27    1
     3    36    35    1
     4    12    10    1
     5    34    35    1
     6    34    28    1
     7    35    38    1
     8    35    37    1
     9    13    10    1
    10    10    11    1
    11    10     9    1
    12    27    28   ar
    13    27    26   ar
    14    28    29   ar
    15     6     1    1
    16    18    17   ar
    17    18    14   ar
    18     7     2    1
    19     7     8    1
    20     1     2   ar
    21     1     5   ar
    22     2     3   ar
    23     5     4   ar
    24     3     9    1
    25     3     4   ar
    26     4    14    1
    27    26    17    1
    28    26    30   ar
    29    17    16   ar
    30    14    15   ar
    31    29    31    1
    32    29    30   ar
    33    25    22    1
    34    16    15   ar
    35    16    21    1
    36    15    19    1
    37    24    22    1
    38    22    21    1
    39    22    23    1
    40    19    20    1
