@<TRIPOS>MOLECULE
mol_data/opt/b3lyp/geoms/mol2/5gl5gl-5gl5gl-.out
 50 53 0 0 0
SMALL
GASTEIGER

@<TRIPOS>ATOM
      1 C          -1.7538   -2.0272    2.0207 C.ar    1  LIG1       -0.0069
      2 C          -0.7937   -2.2434    1.0715 C.ar    1  LIG1        0.0542
      3 C          -0.2453   -1.0166    0.5641 C.ar    1  LIG1        0.1484
      4 C          -0.7801    0.1160    1.1431 C.ar    1  LIG1        0.0698
      5 S          -1.9989   -0.3364    2.3224 S.2     1  LIG1       -0.0912
      6 H          -2.3254   -2.7615    2.5698 H       1  LIG1        0.0706
      7 S          -0.2970   -3.8441    0.4799 S.3     1  LIG1       -0.1386
      8 H           0.8626   -3.4046   -0.0503 H       1  LIG1        0.1072
      9 O           0.7359   -1.0090   -0.3918 O.3     1  LIG1       -0.4928
     10 C           0.2660   -0.7759   -1.7300 C.3     1  LIG1        0.0789
     11 H           1.1483   -0.8093   -2.3709 H       1  LIG1        0.0660
     12 H          -0.4438   -1.5532   -2.0342 H       1  LIG1        0.0660
     13 H          -0.2090    0.2070   -1.8104 H       1  LIG1        0.0660
     14 C          -0.4482    1.5056    0.8916 C.ar    1  LIG1        0.0468
     15 C           0.7873    2.1040    0.7360 C.ar    1  LIG1        0.0626
     16 C           0.6904    3.5220    0.5349 C.ar    1  LIG1        0.1491
     17 C          -0.5958    4.0177    0.5626 C.ar    1  LIG1        0.0704
     18 S          -1.7340    2.7050    0.7975 S.2     1  LIG1       -0.0822
     19 S           2.3540    1.2719    0.8035 S.3     1  LIG1       -0.1380
     20 H           3.0226    2.3888    1.1631 H       1  LIG1        0.1072
     21 O           1.7995    4.3099    0.3789 O.3     1  LIG1       -0.4928
     22 C           2.1948    4.5227   -0.9861 C.3     1  LIG1        0.0789
     23 H           3.0671    5.1768   -0.9497 H       1  LIG1        0.0660
     24 H           2.4615    3.5753   -1.4675 H       1  LIG1        0.0660
     25 H           1.3931    5.0098   -1.5510 H       1  LIG1        0.0660
     26 C          -1.0415    5.3893    0.4183 C.ar    1  LIG1        0.0468
     27 C          -0.5200    6.5523    0.9526 C.ar    1  LIG1        0.0626
     28 C          -1.2852    7.7131    0.5939 C.ar    1  LIG1        0.1491
     29 C          -2.3942    7.4515   -0.1813 C.ar    1  LIG1        0.0704
     30 S          -2.4900    5.7355   -0.5233 S.2     1  LIG1       -0.0822
     31 S           0.9058    6.6628    2.0040 S.3     1  LIG1       -0.1380
     32 H           0.4971    7.8193    2.5693 H       1  LIG1        0.1072
     33 O          -0.9513    8.9650    1.0382 O.3     1  LIG1       -0.4928
     34 C          -0.1356    9.7225    0.1300 C.3     1  LIG1        0.0789
     35 H           0.0473   10.6824    0.6151 H       1  LIG1        0.0660
     36 H           0.8170    9.2140   -0.0556 H       1  LIG1        0.0660
     37 H          -0.6590    9.8833   -0.8184 H       1  LIG1        0.0660
     38 C          -3.3821    8.3819   -0.6936 C.ar    1  LIG1        0.0462
     39 C          -3.9999    9.4492   -0.0711 C.ar    1  LIG1        0.0619
     40 C          -4.9633   10.0986   -0.9248 C.ar    1  LIG1        0.1408
     41 C          -5.0779    9.5236   -2.1586 C.ar    1  LIG1        0.0191
     42 S          -3.9895    8.1915   -2.3392 S.2     1  LIG1       -0.0912
     43 H          -5.7471    9.8133   -2.9556 H       1  LIG1        0.0731
     44 S          -3.7340    9.9674    1.6055 S.3     1  LIG1       -0.1380
     45 H          -4.9581   10.5294    1.7087 H       1  LIG1        0.1072
     46 O          -5.7416   11.1419   -0.4942 O.3     1  LIG1       -0.4935
     47 C          -5.1633   12.4371   -0.7069 C.3     1  LIG1        0.0789
     48 H          -5.8755   13.1610   -0.3069 H       1  LIG1        0.0660
     49 H          -4.2058   12.5359   -0.1827 H       1  LIG1        0.0660
     50 H          -5.0119   12.6245   -1.7765 H       1  LIG1        0.0660
@<TRIPOS>BOND
     1    43    41    1
     2    11    10    1
     3    42    41   ar
     4    42    38   ar
     5    41    40   ar
     6    12    10    1
     7    13    10    1
     8    50    47    1
     9    10     9    1
    10    25    22    1
    11    24    22    1
    12    22    23    1
    13    22    21    1
    14    40    46    1
    15    40    39   ar
    16    37    34    1
    17    47    46    1
    18    47    48    1
    19    47    49    1
    20    38    29    1
    21    38    39   ar
    22    30    29   ar
    23    30    26   ar
    24     9     3    1
    25    29    28   ar
    26    39    44    1
    27    36    34    1
    28     8     7    1
    29    34    35    1
    30    34    33    1
    31    21    16    1
    32    26    17    1
    33    26    27   ar
    34     7     2    1
    35    16    17   ar
    36    16    15   ar
    37    17    18   ar
    38     3     2   ar
    39     3     4   ar
    40    28    27   ar
    41    28    33    1
    42    15    19    1
    43    15    14   ar
    44    18    14   ar
    45    19    20    1
    46    14     4    1
    47    27    31    1
    48     2     1   ar
    49     4     5   ar
    50    44    45    1
    51    31    32    1
    52     1     5   ar
    53     1     6    1
