@<TRIPOS>MOLECULE
mol_data/opt/b3lyp/geoms/mol2/5gl5gl5gl-5gl-.out
 50 53 0 0 0
SMALL
GASTEIGER

@<TRIPOS>ATOM
      1 C          -2.0539   -2.0040    1.2497 C.ar    1  LIG1       -0.0069
      2 C          -1.0307   -2.1367    0.3526 C.ar    1  LIG1        0.0542
      3 C          -0.3898   -0.8829    0.0693 C.ar    1  LIG1        0.1484
      4 C          -0.9198    0.1850    0.7645 C.ar    1  LIG1        0.0698
      5 S          -2.2497   -0.3611    1.7719 S.2     1  LIG1       -0.0912
      6 H          -2.7007   -2.7754    1.6421 H       1  LIG1        0.0706
      7 S          -0.5618   -3.6627   -0.4283 S.3     1  LIG1       -0.1386
      8 H           0.6505   -3.2154   -0.8146 H       1  LIG1        0.1072
      9 O           0.6663   -0.8002   -0.7993 O.3     1  LIG1       -0.4928
     10 C           0.3363   -0.2932   -2.1030 C.3     1  LIG1        0.0789
     11 H           1.2671   -0.2948   -2.6721 H       1  LIG1        0.0660
     12 H          -0.4017   -0.9363   -2.5954 H       1  LIG1        0.0660
     13 H          -0.0515    0.7282   -2.0378 H       1  LIG1        0.0660
     14 C          -0.5096    1.5762    0.7432 C.ar    1  LIG1        0.0468
     15 C           0.7584    2.1246    0.7685 C.ar    1  LIG1        0.0626
     16 C           0.7375    3.5595    0.7682 C.ar    1  LIG1        0.1491
     17 C          -0.5255    4.1137    0.7704 C.ar    1  LIG1        0.0704
     18 S          -1.7326    2.8431    0.7258 S.2     1  LIG1       -0.0822
     19 S           2.2789    1.2101    0.8273 S.3     1  LIG1       -0.1380
     20 H           2.9693    2.2364    1.3691 H       1  LIG1        0.1072
     21 O           1.8909    4.2979    0.8083 O.3     1  LIG1       -0.4928
     22 C           2.3605    4.7394   -0.4760 C.3     1  LIG1        0.0789
     23 H           3.2766    5.3009   -0.2874 H       1  LIG1        0.0660
     24 H           2.5768    3.8848   -1.1266 H       1  LIG1        0.0660
     25 H           1.6223    5.3906   -0.9555 H       1  LIG1        0.0660
     26 C          -0.8970    5.5134    0.7943 C.ar    1  LIG1        0.0468
     27 C          -0.3726    6.5560    1.5337 C.ar    1  LIG1        0.0626
     28 C          -1.0445    7.7951    1.2837 C.ar    1  LIG1        0.1491
     29 C          -2.0972    7.7191    0.3883 C.ar    1  LIG1        0.0704
     30 S          -2.2348    6.0721   -0.2035 S.2     1  LIG1       -0.0822
     31 S           0.9358    6.4132    2.7269 S.3     1  LIG1       -0.1380
     32 H           0.4935    7.4579    3.4603 H       1  LIG1        0.1072
     33 O          -0.7240    8.9479    1.9552 O.3     1  LIG1       -0.4928
     34 C           0.3552    9.6983    1.3664 C.3     1  LIG1        0.0789
     35 H           0.5061   10.5672    2.0087 H       1  LIG1        0.0660
     36 H           1.2704    9.0988    1.3322 H       1  LIG1        0.0660
     37 H           0.0892   10.0294    0.3574 H       1  LIG1        0.0660
     38 C          -3.0009    8.7809   -0.0054 C.ar    1  LIG1        0.0462
     39 C          -3.9023    8.8392   -1.0547 C.ar    1  LIG1        0.0619
     40 C          -4.6543   10.0654   -1.0749 C.ar    1  LIG1        0.1408
     41 C          -4.3285   10.9208   -0.0604 C.ar    1  LIG1        0.0191
     42 S          -3.0862   10.2625    0.9558 S.2     1  LIG1       -0.0912
     43 H          -4.7301   11.9010    0.1457 H       1  LIG1        0.0731
     44 S          -4.1405    7.5901   -2.2964 S.3     1  LIG1       -0.1380
     45 H          -5.1821    8.2223   -2.8716 H       1  LIG1        0.1072
     46 O          -5.5744   10.2463   -2.0614 O.3     1  LIG1       -0.4935
     47 C          -6.3106   11.4623   -2.0291 C.3     1  LIG1        0.0789
     48 H          -6.9979   11.4278   -2.8748 H       1  LIG1        0.0660
     49 H          -6.8801   11.5531   -1.0959 H       1  LIG1        0.0660
     50 H          -5.6452   12.3283   -2.1328 H       1  LIG1        0.0660
@<TRIPOS>BOND
     1    48    47    1
     2    45    44    1
     3    11    10    1
     4    12    10    1
     5    44    39    1
     6    50    47    1
     7    10    13    1
     8    10     9    1
     9    46    47    1
    10    46    40    1
    11    47    49    1
    12    24    22    1
    13    40    39   ar
    14    40    41   ar
    15    39    38   ar
    16    25    22    1
    17     8     7    1
    18     9     3    1
    19    22    23    1
    20    22    21    1
    21     7     2    1
    22    30    29   ar
    23    30    26   ar
    24    41    43    1
    25    41    42   ar
    26    38    29    1
    27    38    42   ar
    28     3     2   ar
    29     3     4   ar
    30     2     1   ar
    31    37    34    1
    32    29    28   ar
    33    18    14   ar
    34    18    17   ar
    35    14     4    1
    36    14    15   ar
    37     4     5   ar
    38    16    15   ar
    39    16    17   ar
    40    16    21    1
    41    15    19    1
    42    17    26    1
    43    26    27   ar
    44    19    20    1
    45     1     6    1
    46     1     5   ar
    47    28    27   ar
    48    28    33    1
    49    36    34    1
    50    34    33    1
    51    34    35    1
    52    27    31    1
    53    31    32    1
