@<TRIPOS>MOLECULE
mol_data/opt/b3lyp/geoms/mol2/5gl5gl5gl-5gl.out
 50 53 0 0 0
SMALL
GASTEIGER

@<TRIPOS>ATOM
      1 C          -1.7856   -2.0138    2.0376 C.ar    1  LIG1       -0.0069
      2 C          -0.8144   -2.2369    1.1015 C.ar    1  LIG1        0.0542
      3 C          -0.2585   -1.0138    0.5933 C.ar    1  LIG1        0.1484
      4 C          -0.7990    0.1229    1.1586 C.ar    1  LIG1        0.0698
      5 S          -2.0326   -0.3208    2.3259 S.2     1  LIG1       -0.0912
      6 H          -2.3648   -2.7440    2.5842 H       1  LIG1        0.0706
      7 S          -0.3123   -3.8416    0.5259 S.3     1  LIG1       -0.1386
      8 H           0.8543   -3.4066    0.0074 H       1  LIG1        0.1072
      9 O           0.7343   -1.0131   -0.3507 O.3     1  LIG1       -0.4928
     10 C           0.2807   -0.7887   -1.6960 C.3     1  LIG1        0.0789
     11 H           1.1704   -0.8274   -2.3261 H       1  LIG1        0.0660
     12 H          -0.4264   -1.5672   -2.0033 H       1  LIG1        0.0660
     13 H          -0.1923    0.1942   -1.7887 H       1  LIG1        0.0660
     14 C          -0.4626    1.5106    0.9024 C.ar    1  LIG1        0.0468
     15 C           0.7753    2.1068    0.7578 C.ar    1  LIG1        0.0626
     16 C           0.6824    3.5235    0.5467 C.ar    1  LIG1        0.1491
     17 C          -0.6035    4.0207    0.5560 C.ar    1  LIG1        0.0704
     18 S          -1.7459    2.7106    0.7855 S.2     1  LIG1       -0.0822
     19 S           2.3402    1.2734    0.8493 S.3     1  LIG1       -0.1380
     20 H           3.0057    2.3917    1.2101 H       1  LIG1        0.1072
     21 O           1.7941    4.3093    0.3990 O.3     1  LIG1       -0.4928
     22 C           2.2060    4.5132   -0.9625 C.3     1  LIG1        0.0789
     23 H           3.0783    5.1668   -0.9197 H       1  LIG1        0.0660
     24 H           2.4776    3.5626   -1.4346 H       1  LIG1        0.0660
     25 H           1.4115    4.9974   -1.5400 H       1  LIG1        0.0660
     26 C          -1.0460    5.3918    0.3977 C.ar    1  LIG1        0.0468
     27 C          -0.5296    6.5577    0.9307 C.ar    1  LIG1        0.0626
     28 C          -1.2891    7.7169    0.5556 C.ar    1  LIG1        0.1491
     29 C          -2.3892    7.4515   -0.2311 C.ar    1  LIG1        0.0704
     30 S          -2.4827    5.7335   -0.5633 S.2     1  LIG1       -0.0822
     31 S           0.8838    6.6736    1.9983 S.3     1  LIG1       -0.1380
     32 H           0.4696    7.8340    2.5513 H       1  LIG1        0.1072
     33 O          -0.9592    8.9713    0.9959 O.3     1  LIG1       -0.4928
     34 C          -0.1318    9.7221    0.0925 C.3     1  LIG1        0.0789
     35 H           0.0468   10.6847    0.5739 H       1  LIG1        0.0660
     36 H           0.8220    9.2111   -0.0789 H       1  LIG1        0.0660
     37 H          -0.6440    9.8778   -0.8628 H       1  LIG1        0.0660
     38 C          -3.3699    8.3797   -0.7609 C.ar    1  LIG1        0.0462
     39 C          -3.9939    9.4515   -0.1526 C.ar    1  LIG1        0.0619
     40 C          -4.9464   10.0964   -1.0217 C.ar    1  LIG1        0.1408
     41 C          -5.0470    9.5137   -2.2530 C.ar    1  LIG1        0.0191
     42 S          -3.9581    8.1794   -2.4123 S.2     1  LIG1       -0.0912
     43 H          -5.7065    9.7990   -3.0597 H       1  LIG1        0.0731
     44 S          -3.7471    9.9801    1.5238 S.3     1  LIG1       -0.1380
     45 H          -4.9716   10.5441    1.6090 H       1  LIG1        0.1072
     46 O          -5.7286   11.1433   -0.6069 O.3     1  LIG1       -0.4935
     47 C          -5.1467   12.4366   -0.8213 C.3     1  LIG1        0.0789
     48 H          -5.8629   13.1636   -0.4344 H       1  LIG1        0.0660
     49 H          -4.1953   12.5380   -0.2866 H       1  LIG1        0.0660
     50 H          -4.9826   12.6169   -1.8902 H       1  LIG1        0.0660
@<TRIPOS>BOND
     1    43    41    1
     2    42    41   ar
     3    42    38   ar
     4    11    10    1
     5    41    40   ar
     6    12    10    1
     7    50    47    1
     8    13    10    1
     9    10     9    1
    10    25    22    1
    11    24    22    1
    12    40    46    1
    13    40    39   ar
    14    22    23    1
    15    22    21    1
    16    37    34    1
    17    47    46    1
    18    47    48    1
    19    47    49    1
    20    38    29    1
    21    38    39   ar
    22    30    29   ar
    23    30    26   ar
    24     9     3    1
    25    29    28   ar
    26    39    44    1
    27    36    34    1
    28     8     7    1
    29    34    35    1
    30    34    33    1
    31    26    17    1
    32    26    27   ar
    33    21    16    1
    34     7     2    1
    35    16    17   ar
    36    16    15   ar
    37    28    27   ar
    38    28    33    1
    39    17    18   ar
    40     3     2   ar
    41     3     4   ar
    42    15    19    1
    43    15    14   ar
    44    18    14   ar
    45    19    20    1
    46    14     4    1
    47    27    31    1
    48     2     1   ar
    49     4     5   ar
    50    44    45    1
    51    31    32    1
    52     1     5   ar
    53     1     6    1
