@<TRIPOS>MOLECULE
mol_data/opt/b3lyp/geoms/mol2/5gl5gl5gl-.out
 38 40 0 0 0
SMALL
GASTEIGER

@<TRIPOS>ATOM
      1 C          -2.2406   -2.0705    1.1508 C.ar    1  LIG1       -0.0069
      2 C          -0.9583   -2.2700    0.7203 C.ar    1  LIG1        0.0542
      3 C          -0.2835   -1.0351    0.4320 C.ar    1  LIG1        0.1484
      4 C          -1.0521    0.0881    0.6614 C.ar    1  LIG1        0.0698
      5 S          -2.6461   -0.3852    1.2234 S.2     1  LIG1       -0.0912
      6 H          -2.9706   -2.8135    1.4377 H       1  LIG1        0.0706
      7 S          -0.2052   -3.8625    0.4875 S.3     1  LIG1       -0.1386
      8 H           1.0529   -3.3782    0.4496 H       1  LIG1        0.1072
      9 O           1.0148   -1.0162   -0.0049 O.3     1  LIG1       -0.4928
     10 C           1.1740   -0.7753   -1.4126 C.3     1  LIG1        0.0789
     11 H           2.2477   -0.8006   -1.6038 H       1  LIG1        0.0660
     12 H           0.6731   -1.5532   -1.9997 H       1  LIG1        0.0660
     13 H           0.7759    0.2064   -1.6879 H       1  LIG1        0.0660
     14 C          -0.6899    1.4839    0.5029 C.ar    1  LIG1        0.0468
     15 C           0.4716    2.1415    0.8590 C.ar    1  LIG1        0.0626
     16 C           0.4259    3.5439    0.5543 C.ar    1  LIG1        0.1491
     17 C          -0.7608    3.9702   -0.0019 C.ar    1  LIG1        0.0704
     18 S          -1.8464    2.6091   -0.2032 S.2     1  LIG1       -0.0822
     19 S           1.8826    1.3975    1.6382 S.3     1  LIG1       -0.1380
     20 H           2.3046    2.5642    2.1715 H       1  LIG1        0.1072
     21 O           1.4700    4.3814    0.8462 O.3     1  LIG1       -0.4928
     22 C           2.3823    4.5980   -0.2423 C.3     1  LIG1        0.0789
     23 H           3.1447    5.2823    0.1326 H       1  LIG1        0.0660
     24 H           2.8493    3.6566   -0.5526 H       1  LIG1        0.0660
     25 H           1.8673    5.0528   -1.0949 H       1  LIG1        0.0660
     26 C          -1.1447    5.3110   -0.4005 C.ar    1  LIG1        0.0462
     27 C          -0.9469    6.5167    0.2439 C.ar    1  LIG1        0.0619
     28 C          -1.5268    7.6239   -0.4747 C.ar    1  LIG1        0.1408
     29 C          -2.1589    7.2572   -1.6288 C.ar    1  LIG1        0.0191
     30 S          -2.0396    5.5534   -1.9016 S.2     1  LIG1       -0.0912
     31 H          -2.6880    7.8999   -2.3173 H       1  LIG1        0.0731
     32 S          -0.1418    6.7340    1.8108 S.3     1  LIG1       -0.1380
     33 H          -0.8088    7.8767    2.0838 H       1  LIG1        0.1072
     34 O          -1.5078    8.9059    0.0113 O.3     1  LIG1       -0.4935
     35 C          -0.3639    9.6727   -0.3892 C.3     1  LIG1        0.0789
     36 H          -0.4721   10.6529    0.0785 H       1  LIG1        0.0660
     37 H           0.5671    9.2046   -0.0495 H       1  LIG1        0.0660
     38 H          -0.3348    9.7878   -1.4791 H       1  LIG1        0.0660
@<TRIPOS>BOND
     1    31    29    1
     2    12    10    1
     3    30    29   ar
     4    30    26   ar
     5    13    10    1
     6    29    28   ar
     7    11    10    1
     8    38    35    1
     9    10     9    1
    10    25    22    1
    11    24    22    1
    12    28    34    1
    13    28    27   ar
    14    26    17    1
    15    26    27   ar
    16    35    37    1
    17    35    34    1
    18    35    36    1
    19    22    23    1
    20    22    21    1
    21    18    17   ar
    22    18    14   ar
    23     9     3    1
    24    17    16   ar
    25    27    32    1
    26     3     4   ar
    27     3     2   ar
    28     8     7    1
    29     7     2    1
    30    14     4    1
    31    14    15   ar
    32    16    21    1
    33    16    15   ar
    34     4     5   ar
    35     2     1   ar
    36    15    19    1
    37     1     5   ar
    38     1     6    1
    39    19    20    1
    40    32    33    1
