@<TRIPOS>MOLECULE
mol_data/opt/b3lyp/geoms/mol2/5ha.out
 11 11 0 0 0
SMALL
GASTEIGER

@<TRIPOS>ATOM
      1 C          -2.0854   -1.6865   -0.0377 C.ar    1  LIG1       -0.0037
      2 C          -0.7121   -1.6726   -0.0505 C.ar    1  LIG1        0.0316
      3 C          -0.1877   -0.3348   -0.0147 C.ar    1  LIG1       -0.0340
      4 C          -1.1618    0.6198    0.0254 C.ar    1  LIG1       -0.0225
      5 S          -2.7474   -0.0783    0.0334 S.2     1  LIG1       -0.1032
      6 H          -2.7430   -2.5442   -0.0538 H       1  LIG1        0.0712
      7 H          -1.0399    1.6932    0.0584 H       1  LIG1        0.0694
      8 N           0.1206   -2.8022   -0.0264 N.pl3   1  LIG1       -0.3576
      9 H          -0.3462   -3.6542   -0.3105 H       1  LIG1        0.1423
     10 H           0.9738   -2.6820   -0.5587 H       1  LIG1        0.1423
     11 H           0.8738   -0.1113   -0.0089 H       1  LIG1        0.0641
@<TRIPOS>BOND
     1    10     8    1
     2     9     8    1
     3     6     1    1
     4     2     1   ar
     5     2     8    1
     6     2     3   ar
     7     1     5   ar
     8     3    11    1
     9     3     4   ar
    10     4     5   ar
    11     4     7    1
