@<TRIPOS>MOLECULE
mol_data/opt/b3lyp/geoms/mol2/5ha5ha.out
 20 21 0 0 0
SMALL
GASTEIGER

@<TRIPOS>ATOM
      1 C          -2.0433   -1.7859   -0.4823 C.ar    1  LIG1       -0.0031
      2 C          -0.7620   -1.8009    0.0104 C.ar    1  LIG1        0.0323
      3 C          -0.2603   -0.4808    0.2576 C.ar    1  LIG1       -0.0257
      4 C          -1.1554    0.5223   -0.0475 C.ar    1  LIG1        0.0294
      5 S          -2.6510   -0.1642   -0.6607 S.2     1  LIG1       -0.0942
      6 H          -2.6711   -2.6299   -0.7309 H       1  LIG1        0.0712
      7 N          -0.0259   -2.9495    0.3382 N.pl3   1  LIG1       -0.3575
      8 H          -0.3652   -3.7908   -0.1103 H       1  LIG1        0.1423
      9 H           0.9694   -2.8480    0.1829 H       1  LIG1        0.1423
     10 H           0.7020   -0.2878    0.7190 H       1  LIG1        0.0647
     11 C          -0.9634    1.9544    0.0598 C.ar    1  LIG1        0.0465
     12 C           0.2061    2.6677   -0.1597 C.ar    1  LIG1        0.0400
     13 C           0.0343    4.0779    0.0252 C.ar    1  LIG1       -0.0334
     14 C          -1.2395    4.4223    0.3733 C.ar    1  LIG1       -0.0219
     15 S          -2.2729    3.0410    0.5098 S.2     1  LIG1       -0.0942
     16 H          -1.6292    5.4114    0.5687 H       1  LIG1        0.0694
     17 N           1.4381    2.0978   -0.4974 N.pl3   1  LIG1       -0.3571
     18 H           1.3460    1.1824   -0.9248 H       1  LIG1        0.1424
     19 H           2.0156    2.7044   -1.0669 H       1  LIG1        0.1424
     20 H           0.8388    4.7947   -0.0993 H       1  LIG1        0.0641
@<TRIPOS>BOND
     1    19    17    1
     2    18    17    1
     3     6     1    1
     4     5     1   ar
     5     5     4   ar
     6    17    12    1
     7     1     2   ar
     8    12    13   ar
     9    12    11   ar
    10     8     7    1
    11    20    13    1
    12     4    11    1
    13     4     3   ar
    14     2     3   ar
    15     2     7    1
    16    13    14   ar
    17    11    15   ar
    18     9     7    1
    19     3    10    1
    20    14    15   ar
    21    14    16    1
