@<TRIPOS>MOLECULE
mol_data/opt/b3lyp/geoms/mol2/5ha5ha-.out
 20 21 0 0 0
SMALL
GASTEIGER

@<TRIPOS>ATOM
      1 C          -2.0473   -1.7865   -0.4692 C.ar    1  LIG1       -0.0031
      2 C          -0.7605   -1.8005    0.0093 C.ar    1  LIG1        0.0323
      3 C          -0.2568   -0.4801    0.2500 C.ar    1  LIG1       -0.0257
      4 C          -1.1556    0.5224   -0.0459 C.ar    1  LIG1        0.0294
      5 S          -2.6576   -0.1651   -0.6418 S.2     1  LIG1       -0.0942
      6 H          -2.6773   -2.6308   -0.7105 H       1  LIG1        0.0712
      7 N          -0.0204   -2.9486    0.3297 N.pl3   1  LIG1       -0.3575
      8 H          -0.3638   -3.7903   -0.1151 H       1  LIG1        0.1423
      9 H           0.9731   -2.8466    0.1639 H       1  LIG1        0.1423
     10 H           0.7105   -0.2862    0.7009 H       1  LIG1        0.0647
     11 C          -0.9629    1.9547    0.0581 C.ar    1  LIG1        0.0465
     12 C           0.2039    2.6681   -0.1746 C.ar    1  LIG1        0.0400
     13 C           0.0336    4.0784    0.0107 C.ar    1  LIG1       -0.0334
     14 C          -1.2364    4.4228    0.3722 C.ar    1  LIG1       -0.0219
     15 S          -2.2679    3.0412    0.5210 S.2     1  LIG1       -0.0942
     16 H          -1.6244    5.4119    0.5709 H       1  LIG1        0.0694
     17 N           1.4324    2.0983   -0.5250 N.pl3   1  LIG1       -0.3571
     18 H           1.3361    1.1824   -0.9504 H       1  LIG1        0.1424
     19 H           2.0036    2.7046   -1.1012 H       1  LIG1        0.1424
     20 H           0.8364    4.7953   -0.1231 H       1  LIG1        0.0641
@<TRIPOS>BOND
     1    19    17    1
     2    18    17    1
     3     6     1    1
     4     5     1   ar
     5     5     4   ar
     6    17    12    1
     7     1     2   ar
     8    12    13   ar
     9    12    11   ar
    10    20    13    1
    11     8     7    1
    12     4    11    1
    13     4     3   ar
    14     2     3   ar
    15     2     7    1
    16    13    14   ar
    17    11    15   ar
    18     9     7    1
    19     3    10    1
    20    14    15   ar
    21    14    16    1
