@<TRIPOS>MOLECULE
mol_data/opt/b3lyp/geoms/mol2/5ha5ha5ha-5ha-.out
 38 41 0 0 0
SMALL
GASTEIGER

@<TRIPOS>ATOM
      1 C          -1.6643   -1.8669   -1.3434 C.ar    1  LIG1       -0.0031
      2 C          -0.7883   -1.9582   -0.2900 C.ar    1  LIG1        0.0323
      3 C          -0.4213   -0.6722    0.2247 C.ar    1  LIG1       -0.0257
      4 C          -1.0151    0.3840   -0.4357 C.ar    1  LIG1        0.0295
      5 S          -2.0467   -0.2124   -1.7273 S.2     1  LIG1       -0.0942
      6 H          -2.1238   -2.6721   -1.8991 H       1  LIG1        0.0712
      7 N          -0.3513   -3.1504    0.3072 N.pl3   1  LIG1       -0.3575
      8 H          -0.4575   -3.9639   -0.2854 H       1  LIG1        0.1423
      9 H           0.5950   -3.0990    0.6634 H       1  LIG1        0.1423
     10 H           0.1943   -0.5403    1.1076 H       1  LIG1        0.0647
     11 C          -0.8473    1.7995   -0.1911 C.ar    1  LIG1        0.0471
     12 C           0.2936    2.4515    0.2560 C.ar    1  LIG1        0.0406
     13 C           0.1116    3.8594    0.3978 C.ar    1  LIG1       -0.0250
     14 C          -1.1519    4.3010    0.0562 C.ar    1  LIG1        0.0301
     15 S          -2.1531    2.9520   -0.4518 S.2     1  LIG1       -0.0853
     16 N           1.4941    1.8144    0.5853 N.pl3   1  LIG1       -0.3570
     17 H           1.6091    0.9198    0.1216 H       1  LIG1        0.1424
     18 H           2.3087    2.4006    0.4512 H       1  LIG1        0.1424
     19 H           0.8702    4.5141    0.8122 H       1  LIG1        0.0648
     20 C          -1.6572    5.6534    0.0680 C.ar    1  LIG1        0.0472
     21 C          -0.9463    6.8258   -0.1558 C.ar    1  LIG1        0.0406
     22 C          -1.7575    7.9953   -0.0594 C.ar    1  LIG1       -0.0250
     23 C          -3.0837    7.7385    0.2238 C.ar    1  LIG1        0.0301
     24 S          -3.3535    6.0126    0.3804 S.2     1  LIG1       -0.0853
     25 N           0.4269    6.8854   -0.4088 N.pl3   1  LIG1       -0.3570
     26 H           0.7949    6.0341   -0.8190 H       1  LIG1        0.1424
     27 H           0.7003    7.6965   -0.9496 H       1  LIG1        0.1424
     28 H          -1.3569    9.0006   -0.1306 H       1  LIG1        0.0648
     29 C          -4.1634    8.6896    0.3680 C.ar    1  LIG1        0.0465
     30 C          -4.3183    9.8994   -0.2965 C.ar    1  LIG1        0.0400
     31 C          -5.5144   10.5877    0.0854 C.ar    1  LIG1       -0.0334
     32 C          -6.2499    9.9104    1.0144 C.ar    1  LIG1       -0.0219
     33 S          -5.5060    8.4181    1.4743 S.2     1  LIG1       -0.0942
     34 H          -7.1866   10.2086    1.4639 H       1  LIG1        0.0694
     35 N          -3.4118   10.4229   -1.2229 N.pl3   1  LIG1       -0.3571
     36 H          -2.8444    9.7111   -1.6702 H       1  LIG1        0.1424
     37 H          -3.8468   11.0229   -1.9131 H       1  LIG1        0.1424
     38 H          -5.8024   11.5493   -0.3255 H       1  LIG1        0.0641
@<TRIPOS>BOND
     1    37    35    1
     2     6     1    1
     3     5     1   ar
     4     5     4   ar
     5    36    35    1
     6     1     2   ar
     7    35    30    1
     8    27    25    1
     9    26    25    1
    10    15    11   ar
    11    15    14   ar
    12     4    11    1
    13     4     3   ar
    14    25    21    1
    15    38    31    1
    16    30    31   ar
    17    30    29   ar
    18     2     3   ar
    19     2     7    1
    20     8     7    1
    21    11    12   ar
    22    21    22   ar
    23    21    20   ar
    24    28    22    1
    25    22    23   ar
    26    14    20    1
    27    14    13   ar
    28    20    24   ar
    29    31    32   ar
    30    17    16    1
    31    23    29    1
    32    23    24   ar
    33     3    10    1
    34    12    13   ar
    35    12    16    1
    36     7     9    1
    37    29    33   ar
    38    13    19    1
    39    18    16    1
    40    32    34    1
    41    32    33   ar
