@<TRIPOS>MOLECULE
mol_data/opt/b3lyp/geoms/mol2/5ha5ha-5ha.out
 29 31 0 0 0
SMALL
GASTEIGER

@<TRIPOS>ATOM
      1 C          -1.9091   -1.8531   -0.8916 C.ar    1  LIG1       -0.0031
      2 C          -0.7969   -1.8956   -0.0874 C.ar    1  LIG1        0.0323
      3 C          -0.3414   -0.5872    0.2792 C.ar    1  LIG1       -0.0257
      4 C          -1.1031    0.4366   -0.2454 C.ar    1  LIG1        0.0295
      5 S          -2.4099   -0.2185   -1.2203 S.2     1  LIG1       -0.0942
      6 H          -2.4747   -2.6833   -1.2905 H       1  LIG1        0.0712
      7 N          -0.1994   -3.0600    0.4186 N.pl3   1  LIG1       -0.3575
      8 H          -0.4340   -3.8955   -0.1020 H       1  LIG1        0.1423
      9 H           0.8047   -2.9843    0.5233 H       1  LIG1        0.1423
     10 H           0.4718   -0.4157    0.9758 H       1  LIG1        0.0647
     11 C          -0.9108    1.8623   -0.0934 C.ar    1  LIG1        0.0471
     12 C           0.2909    2.5455    0.0291 C.ar    1  LIG1        0.0406
     13 C           0.1175    3.9552    0.1715 C.ar    1  LIG1       -0.0250
     14 C          -1.2001    4.3645    0.1504 C.ar    1  LIG1        0.0301
     15 S          -2.2662    2.9856   -0.0461 S.2     1  LIG1       -0.0853
     16 N           1.5502    1.9386    0.0615 N.pl3   1  LIG1       -0.3570
     17 H           1.5644    1.0282   -0.3852 H       1  LIG1        0.1424
     18 H           2.2900    2.5304   -0.2957 H       1  LIG1        0.1424
     19 H           0.9405    4.6375    0.3537 H       1  LIG1        0.0648
     20 C          -1.7159    5.7122    0.2516 C.ar    1  LIG1        0.0465
     21 C          -1.1279    6.8796   -0.2170 C.ar    1  LIG1        0.0400
     22 C          -1.9220    8.0411    0.0496 C.ar    1  LIG1       -0.0334
     23 C          -3.0869    7.7569    0.7013 C.ar    1  LIG1       -0.0219
     24 S          -3.2533    6.0673    1.0326 S.2     1  LIG1       -0.0942
     25 H          -3.8564    8.4480    1.0153 H       1  LIG1        0.0694
     26 N           0.1122    6.9467   -0.8594 N.pl3   1  LIG1       -0.3571
     27 H           0.3773    6.0744   -1.3040 H       1  LIG1        0.1424
     28 H           0.1833    7.7188   -1.5110 H       1  LIG1        0.1424
     29 H          -1.6234    9.0430   -0.2398 H       1  LIG1        0.0641
@<TRIPOS>BOND
     1    28    26    1
     2    27    26    1
     3     6     1    1
     4     5     1   ar
     5     5     4   ar
     6     1     2   ar
     7    26    21    1
     8    17    16    1
     9    18    16    1
    10     4    11    1
    11     4     3   ar
    12    29    22    1
    13    21    22   ar
    14    21    20   ar
    15     8     7    1
    16    11    15   ar
    17    11    12   ar
    18     2     3   ar
    19     2     7    1
    20    15    14   ar
    21    12    16    1
    22    12    13   ar
    23    22    23   ar
    24    14    13   ar
    25    14    20    1
    26    13    19    1
    27    20    24   ar
    28     3    10    1
    29     7     9    1
    30    23    25    1
    31    23    24   ar
