@<TRIPOS>MOLECULE
mol_data/opt/b3lyp/geoms/mol2/5ha5ha-5ha-5ha-.out
 38 41 0 0 0
SMALL
GASTEIGER

@<TRIPOS>ATOM
      1 C          -1.6748   -1.8630   -1.3448 C.ar    1  LIG1       -0.0031
      2 C          -0.7905   -1.9575   -0.2986 C.ar    1  LIG1        0.0323
      3 C          -0.4195   -0.6730    0.2171 C.ar    1  LIG1       -0.0257
      4 C          -1.0184    0.3852   -0.4355 C.ar    1  LIG1        0.0295
      5 S          -2.0602   -0.2073   -1.7207 S.2     1  LIG1       -0.0942
      6 H          -2.1388   -2.6665   -1.8992 H       1  LIG1        0.0712
      7 N          -0.3490   -3.1515    0.2916 N.pl3   1  LIG1       -0.3575
      8 H          -0.4597   -3.9632   -0.3026 H       1  LIG1        0.1423
      9 H           0.6000   -3.1011    0.6407 H       1  LIG1        0.1423
     10 H           0.2031   -0.5438    1.0955 H       1  LIG1        0.0647
     11 C          -0.8486    1.7999   -0.1880 C.ar    1  LIG1        0.0471
     12 C           0.2960    2.4506    0.2517 C.ar    1  LIG1        0.0406
     13 C           0.1152    3.8581    0.3992 C.ar    1  LIG1       -0.0250
     14 C          -1.1510    4.3006    0.0694 C.ar    1  LIG1        0.0301
     15 S          -2.1565    2.9531   -0.4344 S.2     1  LIG1       -0.0853
     16 N           1.4991    1.8125    0.5692 N.pl3   1  LIG1       -0.3570
     17 H           1.6101    0.9190    0.1023 H       1  LIG1        0.1424
     18 H           2.3127    2.3989    0.4295 H       1  LIG1        0.1424
     19 H           0.8772    4.5115    0.8094 H       1  LIG1        0.0648
     20 C          -1.6563    5.6530    0.0894 C.ar    1  LIG1        0.0472
     21 C          -0.9471    6.8261   -0.1362 C.ar    1  LIG1        0.0406
     22 C          -1.7575    7.9953   -0.0297 C.ar    1  LIG1       -0.0250
     23 C          -3.0815    7.7376    0.2631 C.ar    1  LIG1        0.0301
     24 S          -3.3501    6.0111    0.4162 S.2     1  LIG1       -0.0853
     25 N           0.4241    6.8865   -0.3998 N.pl3   1  LIG1       -0.3570
     26 H           0.7887    6.0368   -0.8162 H       1  LIG1        0.1424
     27 H           0.6933    7.6998   -0.9395 H       1  LIG1        0.1424
     28 H          -1.3576    9.0009   -0.1008 H       1  LIG1        0.0648
     29 C          -4.1600    8.6882    0.4189 C.ar    1  LIG1        0.0465
     30 C          -4.3202    9.9000   -0.2407 C.ar    1  LIG1        0.0400
     31 C          -5.5132   10.5871    0.1529 C.ar    1  LIG1       -0.0334
     32 C          -6.2414    9.9068    1.0855 C.ar    1  LIG1       -0.0219
     33 S          -5.4938    8.4132    1.5349 S.2     1  LIG1       -0.0942
     34 H          -7.1745   10.2037    1.5434 H       1  LIG1        0.0694
     35 N          -3.4210   10.4265   -1.1725 N.pl3   1  LIG1       -0.3571
     36 H          -2.8571    9.7161   -1.6265 H       1  LIG1        0.1424
     37 H          -3.8615   11.0286   -1.8574 H       1  LIG1        0.1424
     38 H          -5.8045   11.5500   -0.2527 H       1  LIG1        0.0641
@<TRIPOS>BOND
     1     6     1    1
     2    37    35    1
     3     5     1   ar
     4     5     4   ar
     5    36    35    1
     6     1     2   ar
     7    35    30    1
     8    27    25    1
     9    26    25    1
    10     4    11    1
    11     4     3   ar
    12    15    11   ar
    13    15    14   ar
    14    25    21    1
    15     8     7    1
    16     2     3   ar
    17     2     7    1
    18    38    31    1
    19    30    31   ar
    20    30    29   ar
    21    11    12   ar
    22    21    22   ar
    23    21    20   ar
    24    28    22    1
    25    22    23   ar
    26    14    20    1
    27    14    13   ar
    28    20    24   ar
    29    17    16    1
    30    31    32   ar
    31     3    10    1
    32    12    13   ar
    33    12    16    1
    34    23    24   ar
    35    23    29    1
    36     7     9    1
    37    13    19    1
    38    29    33   ar
    39    18    16    1
    40    32    33   ar
    41    32    34    1
