@<TRIPOS>MOLECULE
mol_data/opt/b3lyp/geoms/mol2/5ha5ha-5ha-.out
 29 31 0 0 0
SMALL
GASTEIGER

@<TRIPOS>ATOM
      1 C          -1.9054   -1.8512   -0.9023 C.ar    1  LIG1       -0.0031
      2 C          -0.7975   -1.8956   -0.0924 C.ar    1  LIG1        0.0323
      3 C          -0.3437   -0.5881    0.2793 C.ar    1  LIG1       -0.0257
      4 C          -1.1023    0.4370   -0.2473 C.ar    1  LIG1        0.0295
      5 S          -2.4041   -0.2159   -1.2304 S.2     1  LIG1       -0.0942
      6 H          -2.4690   -2.6805   -1.3059 H       1  LIG1        0.0712
      7 N          -0.2028   -3.0611    0.4144 N.pl3   1  LIG1       -0.3575
      8 H          -0.4350   -3.8956   -0.1089 H       1  LIG1        0.1423
      9 H           0.8008   -2.9859    0.5244 H       1  LIG1        0.1423
     10 H           0.4659   -0.4181    0.9805 H       1  LIG1        0.0647
     11 C          -0.9105    1.8623   -0.0915 C.ar    1  LIG1        0.0471
     12 C           0.2907    2.5450    0.0384 C.ar    1  LIG1        0.0406
     13 C           0.1168    3.9545    0.1827 C.ar    1  LIG1       -0.0250
     14 C          -1.2005    4.3641    0.1559 C.ar    1  LIG1        0.0301
     15 S          -2.2659    2.9858   -0.0487 S.2     1  LIG1       -0.0853
     16 N           1.5497    1.9378    0.0759 N.pl3   1  LIG1       -0.3570
     17 H           1.5659    1.0281   -0.3720 H       1  LIG1        0.1424
     18 H           2.2913    2.5300   -0.2770 H       1  LIG1        0.1424
     19 H           0.9391    4.6362    0.3705 H       1  LIG1        0.0648
     20 C          -1.7166    5.7116    0.2572 C.ar    1  LIG1        0.0465
     21 C          -1.1259    6.8799   -0.2058 C.ar    1  LIG1        0.0400
     22 C          -1.9212    8.0411    0.0590 C.ar    1  LIG1       -0.0334
     23 C          -3.0896    7.7557    0.7040 C.ar    1  LIG1       -0.0219
     24 S          -3.2580    6.0654    1.0308 S.2     1  LIG1       -0.0942
     25 H          -3.8606    8.4463    1.0153 H       1  LIG1        0.0694
     26 N           0.1176    6.9482   -0.8415 N.pl3   1  LIG1       -0.3571
     27 H           0.3847    6.0769   -1.2869 H       1  LIG1        0.1424
     28 H           0.1925    7.7219   -1.4907 H       1  LIG1        0.1424
     29 H          -1.6209    9.0435   -0.2267 H       1  LIG1        0.0641
@<TRIPOS>BOND
     1    28    26    1
     2     6     1    1
     3    27    26    1
     4     5     1   ar
     5     5     4   ar
     6     1     2   ar
     7    26    21    1
     8    17    16    1
     9    18    16    1
    10     4    11    1
    11     4     3   ar
    12    29    22    1
    13    21    22   ar
    14    21    20   ar
    15     8     7    1
    16     2     3   ar
    17     2     7    1
    18    11    15   ar
    19    11    12   ar
    20    15    14   ar
    21    12    16    1
    22    12    13   ar
    23    22    23   ar
    24    14    13   ar
    25    14    20    1
    26    13    19    1
    27    20    24   ar
    28     3    10    1
    29     7     9    1
    30    23    25    1
    31    23    24   ar
