@<TRIPOS>MOLECULE
mol_data/opt/b3lyp/geoms/mol2/5ha5ha-5ha5ha-.out
 38 41 0 0 0
SMALL
GASTEIGER

@<TRIPOS>ATOM
      1 C          -1.6842   -1.8639   -1.3365 C.ar    1  LIG1       -0.0031
      2 C          -0.7921   -1.9576   -0.2969 C.ar    1  LIG1        0.0323
      3 C          -0.4172   -0.6727    0.2150 C.ar    1  LIG1       -0.0257
      4 C          -1.0211    0.3850   -0.4337 C.ar    1  LIG1        0.0295
      5 S          -2.0725   -0.2085   -1.7107 S.2     1  LIG1       -0.0942
      6 H          -2.1523   -2.6678   -1.8868 H       1  LIG1        0.0712
      7 N          -0.3460   -3.1512    0.2907 N.pl3   1  LIG1       -0.3575
      8 H          -0.4611   -3.9633   -0.3021 H       1  LIG1        0.1423
      9 H           0.6056   -3.1005    0.6326 H       1  LIG1        0.1423
     10 H           0.2120   -0.5429    1.0886 H       1  LIG1        0.0647
     11 C          -0.8496    1.7998   -0.1885 C.ar    1  LIG1        0.0471
     12 C           0.2983    2.4509    0.2420 C.ar    1  LIG1        0.0406
     13 C           0.1185    3.8585    0.3900 C.ar    1  LIG1       -0.0250
     14 C          -1.1503    4.3007    0.0695 C.ar    1  LIG1        0.0301
     15 S          -2.1594    2.9528   -0.4258 S.2     1  LIG1       -0.0853
     16 N           1.5039    1.8132    0.5508 N.pl3   1  LIG1       -0.3570
     17 H           1.6113    0.9194    0.0837 H       1  LIG1        0.1424
     18 H           2.3163    2.3995    0.4045 H       1  LIG1        0.1424
     19 H           0.8835    4.5123    0.7939 H       1  LIG1        0.0648
     20 C          -1.6554    5.6531    0.0924 C.ar    1  LIG1        0.0472
     21 C          -0.9482    6.8260   -0.1398 C.ar    1  LIG1        0.0406
     22 C          -1.7578    7.9953   -0.0279 C.ar    1  LIG1       -0.0250
     23 C          -3.0794    7.7377    0.2758 C.ar    1  LIG1        0.0301
     24 S          -3.3466    6.0113    0.4325 S.2     1  LIG1       -0.0853
     25 N           0.4208    6.8864   -0.4145 N.pl3   1  LIG1       -0.3570
     26 H           0.7823    6.0360   -0.8324 H       1  LIG1        0.1424
     27 H           0.6855    7.6988   -0.9576 H       1  LIG1        0.1424
     28 H          -1.3585    9.0008   -0.1030 H       1  LIG1        0.0648
     29 C          -4.1567    8.6883    0.4393 C.ar    1  LIG1        0.0465
     30 C          -4.3220    9.8998   -0.2196 C.ar    1  LIG1        0.0400
     31 C          -5.5120   10.5870    0.1828 C.ar    1  LIG1       -0.0334
     32 C          -6.2329    9.9073    1.1214 C.ar    1  LIG1       -0.0219
     33 S          -5.4818    8.4139    1.5658 S.2     1  LIG1       -0.0942
     34 H          -7.1624   10.2043    1.5862 H       1  LIG1        0.0694
     35 N          -3.4301   10.4257   -1.1587 N.pl3   1  LIG1       -0.3571
     36 H          -2.8701    9.7151   -1.6171 H       1  LIG1        0.1424
     37 H          -3.8758   11.0280   -1.8401 H       1  LIG1        0.1424
     38 H          -5.8065   11.5497   -0.2211 H       1  LIG1        0.0641
@<TRIPOS>BOND
     1     6     1    1
     2    37    35    1
     3     5     1   ar
     4     5     4   ar
     5    36    35    1
     6     1     2   ar
     7    35    30    1
     8    27    25    1
     9    26    25    1
    10     4    11    1
    11     4     3   ar
    12    15    11   ar
    13    15    14   ar
    14    25    21    1
    15     8     7    1
    16     2     3   ar
    17     2     7    1
    18    38    31    1
    19    30    31   ar
    20    30    29   ar
    21    11    12   ar
    22    21    22   ar
    23    21    20   ar
    24    28    22    1
    25    22    23   ar
    26    14    20    1
    27    14    13   ar
    28    17    16    1
    29    20    24   ar
    30    31    32   ar
    31     3    10    1
    32    12    13   ar
    33    12    16    1
    34    23    24   ar
    35    23    29    1
    36     7     9    1
    37    13    19    1
    38    18    16    1
    39    29    33   ar
    40    32    33   ar
    41    32    34    1
