@<TRIPOS>MOLECULE
mol_data/opt/b3lyp/geoms/mol2/5ha5ha5ha5ha-.out
 38 41 0 0 0
SMALL
GASTEIGER

@<TRIPOS>ATOM
      1 C          -1.6738   -1.8678   -1.3350 C.ar    1  LIG1       -0.0031
      2 C          -0.7899   -1.9584   -0.2882 C.ar    1  LIG1        0.0323
      3 C          -0.4191   -0.6719    0.2228 C.ar    1  LIG1       -0.0257
      4 C          -1.0179    0.3838   -0.4339 C.ar    1  LIG1        0.0295
      5 S          -2.0592   -0.2136   -1.7172 S.2     1  LIG1       -0.0942
      6 H          -2.1375   -2.6734   -1.8866 H       1  LIG1        0.0712
      7 N          -0.3484   -3.1501    0.3065 N.pl3   1  LIG1       -0.3575
      8 H          -0.4591   -3.9640   -0.2846 H       1  LIG1        0.1423
      9 H           0.6005   -3.0984    0.6555 H       1  LIG1        0.1423
     10 H           0.2032   -0.5394    1.1009 H       1  LIG1        0.0647
     11 C          -0.8483    1.7994   -0.1916 C.ar    1  LIG1        0.0471
     12 C           0.2960    2.4518    0.2464 C.ar    1  LIG1        0.0406
     13 C           0.1150    3.8598    0.3886 C.ar    1  LIG1       -0.0250
     14 C          -1.1510    4.3011    0.0563 C.ar    1  LIG1        0.0301
     15 S          -2.1561    2.9517   -0.4432 S.2     1  LIG1       -0.0853
     16 N           1.4990    1.8150    0.5669 N.pl3   1  LIG1       -0.3570
     17 H           1.6105    0.9200    0.1031 H       1  LIG1        0.1424
     18 H           2.3125    2.4011    0.4261 H       1  LIG1        0.1424
     19 H           0.8767    4.5148    0.7968 H       1  LIG1        0.0648
     20 C          -1.6564    5.6535    0.0710 C.ar    1  LIG1        0.0472
     21 C          -0.9473    6.8257   -0.1594 C.ar    1  LIG1        0.0406
     22 C          -1.7577    7.9953   -0.0576 C.ar    1  LIG1       -0.0250
     23 C          -3.0816    7.7387    0.2364 C.ar    1  LIG1        0.0301
     24 S          -3.3501    6.0129    0.3967 S.2     1  LIG1       -0.0853
     25 N           0.4239    6.8852   -0.4235 N.pl3   1  LIG1       -0.3570
     26 H           0.7887    6.0333   -0.8353 H       1  LIG1        0.1424
     27 H           0.6928    7.6955   -0.9676 H       1  LIG1        0.1424
     28 H          -1.3577    9.0006   -0.1328 H       1  LIG1        0.0648
     29 C          -4.1601    8.6899    0.3885 C.ar    1  LIG1        0.0465
     30 C          -4.3202    9.8993   -0.2756 C.ar    1  LIG1        0.0400
     31 C          -5.5133   10.5878    0.1152 C.ar    1  LIG1       -0.0334
     32 C          -6.2417    9.9110    1.0501 C.ar    1  LIG1       -0.0219
     33 S          -5.4941    8.4191    1.5053 S.2     1  LIG1       -0.0942
     34 H          -7.1749   10.2095    1.5067 H       1  LIG1        0.0694
     35 N          -3.4209   10.4222   -1.2092 N.pl3   1  LIG1       -0.3571
     36 H          -2.8572    9.7102   -1.6609 H       1  LIG1        0.1424
     37 H          -3.8610   11.0224   -1.8960 H       1  LIG1        0.1424
     38 H          -5.8045   11.5492   -0.2940 H       1  LIG1        0.0641
@<TRIPOS>BOND
     1    37    35    1
     2     6     1    1
     3     5     1   ar
     4     5     4   ar
     5    36    35    1
     6     1     2   ar
     7    35    30    1
     8    27    25    1
     9    26    25    1
    10    15    11   ar
    11    15    14   ar
    12     4    11    1
    13     4     3   ar
    14    25    21    1
    15    38    31    1
    16     2     3   ar
    17     2     7    1
    18     8     7    1
    19    30    31   ar
    20    30    29   ar
    21    11    12   ar
    22    21    22   ar
    23    21    20   ar
    24    28    22    1
    25    22    23   ar
    26    14    20    1
    27    14    13   ar
    28    20    24   ar
    29    17    16    1
    30    31    32   ar
    31     3    10    1
    32    23    29    1
    33    23    24   ar
    34    12    13   ar
    35    12    16    1
    36     7     9    1
    37    29    33   ar
    38    13    19    1
    39    18    16    1
    40    32    33   ar
    41    32    34    1
