@<TRIPOS>MOLECULE
mol_data/opt/b3lyp/geoms/mol2/5ha5ha5ha-5ha.out
 38 41 0 0 0
SMALL
GASTEIGER

@<TRIPOS>ATOM
      1 C          -1.6627   -1.8647   -1.3505 C.ar    1  LIG1       -0.0031
      2 C          -0.7884   -1.9578   -0.2958 C.ar    1  LIG1        0.0323
      3 C          -0.4222   -0.6726    0.2216 C.ar    1  LIG1       -0.0257
      4 C          -1.0148    0.3847   -0.4381 C.ar    1  LIG1        0.0295
      5 S          -2.0444   -0.2095   -1.7323 S.2     1  LIG1       -0.0942
      6 H          -2.1215   -2.6689   -1.9082 H       1  LIG1        0.0712
      7 N          -0.3526   -3.1511    0.3001 N.pl3   1  LIG1       -0.3575
      8 H          -0.4580   -3.9636   -0.2939 H       1  LIG1        0.1423
      9 H           0.5932   -3.1004    0.6578 H       1  LIG1        0.1423
     10 H           0.1921   -0.5423    1.1057 H       1  LIG1        0.0647
     11 C          -0.8472    1.7997   -0.1909 C.ar    1  LIG1        0.0471
     12 C           0.2931    2.4509    0.2589 C.ar    1  LIG1        0.0406
     13 C           0.1111    3.8586    0.4028 C.ar    1  LIG1       -0.0250
     14 C          -1.1518    4.3008    0.0601 C.ar    1  LIG1        0.0301
     15 S          -2.1525    2.9528   -0.4516 S.2     1  LIG1       -0.0853
     16 N           1.4931    1.8131    0.5889 N.pl3   1  LIG1       -0.3570
     17 H           1.6086    0.9191    0.1241 H       1  LIG1        0.1424
     18 H           2.3080    2.3994    0.4566 H       1  LIG1        0.1424
     19 H           0.8692    4.5125    0.8194 H       1  LIG1        0.0648
     20 C          -1.6571    5.6533    0.0734 C.ar    1  LIG1        0.0472
     21 C          -0.9458    6.8260   -0.1475 C.ar    1  LIG1        0.0406
     22 C          -1.7569    7.9954   -0.0504 C.ar    1  LIG1       -0.0250
     23 C          -3.0836    7.7383    0.2307 C.ar    1  LIG1        0.0301
     24 S          -3.3537    6.0121    0.3842 S.2     1  LIG1       -0.0853
     25 N           0.4278    6.8859   -0.3988 N.pl3   1  LIG1       -0.3570
     26 H           0.7963    6.0351   -0.8096 H       1  LIG1        0.1424
     27 H           0.7018    7.6977   -0.9381 H       1  LIG1        0.1424
     28 H          -1.3562    9.0008   -0.1194 H       1  LIG1        0.0648
     29 C          -4.1633    8.6892    0.3751 C.ar    1  LIG1        0.0465
     30 C          -4.3171    9.9003   -0.2874 C.ar    1  LIG1        0.0400
     31 C          -5.5137   10.5879    0.0940 C.ar    1  LIG1       -0.0334
     32 C          -6.2508    9.9090    1.0205 C.ar    1  LIG1       -0.0219
     33 S          -5.5076    8.4159    1.4789 S.2     1  LIG1       -0.0942
     34 H          -7.1881   10.2065    1.4692 H       1  LIG1        0.0694
     35 N          -3.4091   10.4253   -1.2115 N.pl3   1  LIG1       -0.3571
     36 H          -2.8414    9.7143   -1.6596 H       1  LIG1        0.1424
     37 H          -3.8429   11.0271   -1.9009 H       1  LIG1        0.1424
     38 H          -5.8010   11.5504   -0.3156 H       1  LIG1        0.0641
@<TRIPOS>BOND
     1     6     1    1
     2    37    35    1
     3     5     1   ar
     4     5     4   ar
     5    36    35    1
     6     1     2   ar
     7    35    30    1
     8    27    25    1
     9    26    25    1
    10    15    11   ar
    11    15    14   ar
    12     4    11    1
    13     4     3   ar
    14    25    21    1
    15    38    31    1
    16     2     3   ar
    17     2     7    1
    18     8     7    1
    19    30    31   ar
    20    30    29   ar
    21    11    12   ar
    22    21    22   ar
    23    21    20   ar
    24    28    22    1
    25    22    23   ar
    26    14    20    1
    27    14    13   ar
    28    20    24   ar
    29    31    32   ar
    30    17    16    1
    31     3    10    1
    32    23    29    1
    33    23    24   ar
    34    12    13   ar
    35    12    16    1
    36     7     9    1
    37    29    33   ar
    38    13    19    1
    39    18    16    1
    40    32    34    1
    41    32    33   ar
