@<TRIPOS>MOLECULE
mol_data/opt/b3lyp/geoms/mol2/5ha5ha-5ha5ha.out
 38 41 0 0 0
SMALL
GASTEIGER

@<TRIPOS>ATOM
      1 C          -1.6825   -1.8615   -1.3441 C.ar    1  LIG1       -0.0031
      2 C          -0.7924   -1.9571   -0.3030 C.ar    1  LIG1        0.0323
      3 C          -0.4182   -0.6732    0.2118 C.ar    1  LIG1       -0.0257
      4 C          -1.0205    0.3857   -0.4364 C.ar    1  LIG1        0.0295
      5 S          -2.0694   -0.2054   -1.7165 S.2     1  LIG1       -0.0942
      6 H          -2.1498   -2.6644   -1.8966 H       1  LIG1        0.0712
      7 N          -0.3478   -3.1518    0.2836 N.pl3   1  LIG1       -0.3575
      8 H          -0.4624   -3.9630   -0.3106 H       1  LIG1        0.1423
      9 H           0.6032   -3.1021    0.6271 H       1  LIG1        0.1423
     10 H           0.2095   -0.5450    1.0867 H       1  LIG1        0.0647
     11 C          -0.8492    1.8001   -0.1885 C.ar    1  LIG1        0.0471
     12 C           0.2979    2.4503    0.2453 C.ar    1  LIG1        0.0406
     13 C           0.1181    3.8576    0.3954 C.ar    1  LIG1       -0.0250
     14 C          -1.1500    4.3006    0.0735 C.ar    1  LIG1        0.0301
     15 S          -2.1585    2.9537   -0.4260 S.2     1  LIG1       -0.0853
     16 N           1.5028    1.8118    0.5552 N.pl3   1  LIG1       -0.3570
     17 H           1.6109    0.9187    0.0867 H       1  LIG1        0.1424
     18 H           2.3156    2.3982    0.4111 H       1  LIG1        0.1424
     19 H           0.8826    4.5106    0.8017 H       1  LIG1        0.0648
     20 C          -1.6551    5.6530    0.0979 C.ar    1  LIG1        0.0472
     21 C          -0.9474    6.8263   -0.1315 C.ar    1  LIG1        0.0406
     22 C          -1.7570    7.9954   -0.0187 C.ar    1  LIG1       -0.0250
     23 C          -3.0790    7.7375    0.2827 C.ar    1  LIG1        0.0301
     24 S          -3.3466    6.0109    0.4364 S.2     1  LIG1       -0.0853
     25 N           0.4220    6.8868   -0.4042 N.pl3   1  LIG1       -0.3570
     26 H           0.7840    6.0370   -0.8227 H       1  LIG1        0.1424
     27 H           0.6875    7.6999   -0.9460 H       1  LIG1        0.1424
     28 H          -1.3574    9.0010   -0.0920 H       1  LIG1        0.0648
     29 C          -4.1565    8.6880    0.4464 C.ar    1  LIG1        0.0465
     30 C          -4.3209    9.9005   -0.2109 C.ar    1  LIG1        0.0400
     31 C          -5.5114   10.5871    0.1912 C.ar    1  LIG1       -0.0334
     32 C          -6.2334    9.9060    1.1279 C.ar    1  LIG1       -0.0219
     33 S          -5.4830    8.4119    1.5708 S.2     1  LIG1       -0.0942
     34 H          -7.1635   10.2024    1.5920 H       1  LIG1        0.0694
     35 N          -3.4279   10.4277   -1.1481 N.pl3   1  LIG1       -0.3571
     36 H          -2.8675    9.7178   -1.6070 H       1  LIG1        0.1424
     37 H          -3.8726   11.0313   -1.8290 H       1  LIG1        0.1424
     38 H          -5.8053   11.5504   -0.2116 H       1  LIG1        0.0641
@<TRIPOS>BOND
     1     6     1    1
     2    37    35    1
     3     5     1   ar
     4     5     4   ar
     5    36    35    1
     6     1     2   ar
     7    35    30    1
     8    27    25    1
     9    26    25    1
    10     4    11    1
    11     4     3   ar
    12    15    11   ar
    13    15    14   ar
    14    25    21    1
    15     8     7    1
    16     2     3   ar
    17     2     7    1
    18    38    31    1
    19    30    31   ar
    20    30    29   ar
    21    11    12   ar
    22    21    22   ar
    23    21    20   ar
    24    28    22    1
    25    22    23   ar
    26    14    20    1
    27    14    13   ar
    28    17    16    1
    29    20    24   ar
    30    31    32   ar
    31     3    10    1
    32    12    13   ar
    33    12    16    1
    34    23    24   ar
    35    23    29    1
    36     7     9    1
    37    13    19    1
    38    18    16    1
    39    29    33   ar
    40    32    33   ar
    41    32    34    1
