@<TRIPOS>MOLECULE
mol_data/opt/b3lyp/geoms/mol2/5ha5ha5ha-.out
 29 31 0 0 0
SMALL
GASTEIGER

@<TRIPOS>ATOM
      1 C          -1.8976   -1.8536   -0.9052 C.ar    1  LIG1       -0.0031
      2 C          -0.7970   -1.8958   -0.0853 C.ar    1  LIG1        0.0323
      3 C          -0.3465   -0.5872    0.2869 C.ar    1  LIG1       -0.0257
      4 C          -1.1003    0.4364   -0.2493 C.ar    1  LIG1        0.0295
      5 S          -2.3933   -0.2191   -1.2422 S.2     1  LIG1       -0.0942
      6 H          -2.4576   -2.6840   -1.3115 H       1  LIG1        0.0712
      7 N          -0.2070   -3.0599    0.4301 N.pl3   1  LIG1       -0.3575
      8 H          -0.4347   -3.8959   -0.0929 H       1  LIG1        0.1423
      9 H           0.7956   -2.9845    0.5486 H       1  LIG1        0.1423
     10 H           0.4568   -0.4154    0.9948 H       1  LIG1        0.0647
     11 C          -0.9100    1.8622   -0.0957 C.ar    1  LIG1        0.0471
     12 C           0.2900    2.5451    0.0438 C.ar    1  LIG1        0.0406
     13 C           0.1148    3.9551    0.1825 C.ar    1  LIG1       -0.0250
     14 C          -1.2021    4.3646    0.1420 C.ar    1  LIG1        0.0301
     15 S          -2.2656    2.9857   -0.0689 S.2     1  LIG1       -0.0853
     16 N           1.5485    1.9380    0.0950 N.pl3   1  LIG1       -0.3570
     17 H           1.5691    1.0274   -0.3511 H       1  LIG1        0.1424
     18 H           2.2937    2.5295   -0.2514 H       1  LIG1        0.1424
     19 H           0.9354    4.6372    0.3762 H       1  LIG1        0.0648
     20 C          -1.7190    5.7125    0.2345 C.ar    1  LIG1        0.0465
     21 C          -1.1241    6.8793   -0.2266 C.ar    1  LIG1        0.0400
     22 C          -1.9217    8.0413    0.0275 C.ar    1  LIG1       -0.0334
     23 C          -3.0959    7.7579    0.6627 C.ar    1  LIG1       -0.0219
     24 S          -3.2674    6.0686    0.9931 S.2     1  LIG1       -0.0942
     25 H          -3.8696    8.4495    0.9650 H       1  LIG1        0.0694
     26 N           0.1251    6.9457   -0.8513 N.pl3   1  LIG1       -0.3571
     27 H           0.3964    6.0728   -1.2909 H       1  LIG1        0.1424
     28 H           0.2056    7.7169   -1.5028 H       1  LIG1        0.1424
     29 H          -1.6187    9.0428   -0.2584 H       1  LIG1        0.0641
@<TRIPOS>BOND
     1    28    26    1
     2     6     1    1
     3    27    26    1
     4     5     1   ar
     5     5     4   ar
     6     1     2   ar
     7    26    21    1
     8    17    16    1
     9    29    22    1
    10    18    16    1
    11     4    11    1
    12     4     3   ar
    13    21    22   ar
    14    21    20   ar
    15    11    15   ar
    16    11    12   ar
    17     8     7    1
    18     2     3   ar
    19     2     7    1
    20    15    14   ar
    21    22    23   ar
    22    12    16    1
    23    12    13   ar
    24    14    13   ar
    25    14    20    1
    26    13    19    1
    27    20    24   ar
    28     3    10    1
    29     7     9    1
    30    23    25    1
    31    23    24   ar
