@<TRIPOS>MOLECULE
mol_data/opt/b3lyp/geoms/mol2/5ha5ha5ha.out
 29 31 0 0 0
SMALL
GASTEIGER

@<TRIPOS>ATOM
      1 C          -1.9015   -1.8554   -0.8945 C.ar    1  LIG1       -0.0031
      2 C          -0.7966   -1.8958   -0.0802 C.ar    1  LIG1        0.0323
      3 C          -0.3443   -0.5864    0.2869 C.ar    1  LIG1       -0.0257
      4 C          -1.1011    0.4360   -0.2474 C.ar    1  LIG1        0.0295
      5 S          -2.3992   -0.2217   -1.2322 S.2     1  LIG1       -0.0942
      6 H          -2.4634   -2.6867   -1.2963 H       1  LIG1        0.0712
      7 N          -0.2036   -3.0587    0.4344 N.pl3   1  LIG1       -0.3575
      8 H          -0.4338   -3.8958   -0.0858 H       1  LIG1        0.1423
      9 H           0.7995   -2.9829    0.5477 H       1  LIG1        0.1423
     10 H           0.4626   -0.4130    0.9903 H       1  LIG1        0.0647
     11 C          -0.9103    1.8621   -0.0976 C.ar    1  LIG1        0.0471
     12 C           0.2902    2.5456    0.0345 C.ar    1  LIG1        0.0406
     13 C           0.1156    3.9557    0.1713 C.ar    1  LIG1       -0.0250
     14 C          -1.2017    4.3650    0.1365 C.ar    1  LIG1        0.0301
     15 S          -2.2660    2.9855   -0.0663 S.2     1  LIG1       -0.0853
     16 N           1.5491    1.9387    0.0806 N.pl3   1  LIG1       -0.3570
     17 H           1.5678    1.0274   -0.3640 H       1  LIG1        0.1424
     18 H           2.2926    2.5298   -0.2703 H       1  LIG1        0.1424
     19 H           0.9369    4.6385    0.3595 H       1  LIG1        0.0648
     20 C          -1.7183    5.7129    0.2288 C.ar    1  LIG1        0.0465
     21 C          -1.1261    6.8789   -0.2378 C.ar    1  LIG1        0.0400
     22 C          -1.9224    8.0413    0.0180 C.ar    1  LIG1       -0.0334
     23 C          -3.0933    7.7591    0.6600 C.ar    1  LIG1       -0.0219
     24 S          -3.2628    6.0704    0.9949 S.2     1  LIG1       -0.0942
     25 H          -3.8655    8.4512    0.9648 H       1  LIG1        0.0694
     26 N           0.1198    6.9442   -0.8692 N.pl3   1  LIG1       -0.3571
     27 H           0.3892    6.0703   -1.3080 H       1  LIG1        0.1424
     28 H           0.1966    7.7137   -1.5231 H       1  LIG1        0.1424
     29 H          -1.6211    9.0423   -0.2716 H       1  LIG1        0.0641
@<TRIPOS>BOND
     1    28    26    1
     2    27    26    1
     3     6     1    1
     4     5     1   ar
     5     5     4   ar
     6     1     2   ar
     7    26    21    1
     8    17    16    1
     9    29    22    1
    10    18    16    1
    11     4    11    1
    12     4     3   ar
    13    21    22   ar
    14    21    20   ar
    15    11    15   ar
    16    11    12   ar
    17     8     7    1
    18     2     3   ar
    19     2     7    1
    20    15    14   ar
    21    22    23   ar
    22    12    16    1
    23    12    13   ar
    24    14    13   ar
    25    14    20    1
    26    13    19    1
    27    20    24   ar
    28     3    10    1
    29     7     9    1
    30    23    25    1
    31    23    24   ar
