@<TRIPOS>MOLECULE
mol_data/opt/b3lyp/geoms/mol2/5ha5ha-5ha-5ha.out
 38 41 0 0 0
SMALL
GASTEIGER

@<TRIPOS>ATOM
      1 C          -1.6734   -1.8608   -1.3518 C.ar    1  LIG1       -0.0031
      2 C          -0.7907   -1.9571   -0.3044 C.ar    1  LIG1        0.0323
      3 C          -0.4203   -0.6735    0.2139 C.ar    1  LIG1       -0.0257
      4 C          -1.0181    0.3859   -0.4378 C.ar    1  LIG1        0.0295
      5 S          -2.0579   -0.2044   -1.7257 S.2     1  LIG1       -0.0942
      6 H          -2.1366   -2.6632   -1.9083 H       1  LIG1        0.0712
      7 N          -0.3503   -3.1521    0.2845 N.pl3   1  LIG1       -0.3575
      8 H          -0.4602   -3.9628   -0.3113 H       1  LIG1        0.1423
      9 H           0.5982   -3.1024    0.6350 H       1  LIG1        0.1423
     10 H           0.2009   -0.5458    1.0935 H       1  LIG1        0.0647
     11 C          -0.8485    1.8001   -0.1878 C.ar    1  LIG1        0.0471
     12 C           0.2955    2.4500    0.2546 C.ar    1  LIG1        0.0406
     13 C           0.1147    3.8572    0.4043 C.ar    1  LIG1       -0.0250
     14 C          -1.1510    4.3005    0.0733 C.ar    1  LIG1        0.0301
     15 S          -2.1559    2.9539   -0.4341 S.2     1  LIG1       -0.0853
     16 N           1.4982    1.8112    0.5728 N.pl3   1  LIG1       -0.3570
     17 H           1.6096    0.9184    0.1047 H       1  LIG1        0.1424
     18 H           2.3120    2.3977    0.4349 H       1  LIG1        0.1424
     19 H           0.8762    4.5099    0.8166 H       1  LIG1        0.0648
     20 C          -1.6561    5.6528    0.0949 C.ar    1  LIG1        0.0472
     21 C          -0.9466    6.8263   -0.1279 C.ar    1  LIG1        0.0406
     22 C          -1.7569    7.9954   -0.0207 C.ar    1  LIG1       -0.0250
     23 C          -3.0813    7.7373    0.2701 C.ar    1  LIG1        0.0301
     24 S          -3.3503    6.0106    0.4201 S.2     1  LIG1       -0.0853
     25 N           0.4250    6.8870   -0.3898 N.pl3   1  LIG1       -0.3570
     26 H           0.7901    6.0378   -0.8068 H       1  LIG1        0.1424
     27 H           0.6949    7.7009   -0.9280 H       1  LIG1        0.1424
     28 H          -1.3568    9.0010   -0.0897 H       1  LIG1        0.0648
     29 C          -4.1599    8.6878    0.4259 C.ar    1  LIG1        0.0465
     30 C          -4.3189    9.9008   -0.2316 C.ar    1  LIG1        0.0400
     31 C          -5.5125   10.5873    0.1614 C.ar    1  LIG1       -0.0334
     32 C          -6.2422    9.9055    1.0917 C.ar    1  LIG1       -0.0219
     33 S          -5.4954    8.4109    1.5395 S.2     1  LIG1       -0.0942
     34 H          -7.1759   10.2015    1.5487 H       1  LIG1        0.0694
     35 N          -3.4184   10.4288   -1.1611 N.pl3   1  LIG1       -0.3571
     36 H          -2.8541    9.7192   -1.6159 H       1  LIG1        0.1424
     37 H          -3.8576   11.0327   -1.8453 H       1  LIG1        0.1424
     38 H          -5.8031   11.5510   -0.2429 H       1  LIG1        0.0641
@<TRIPOS>BOND
     1     6     1    1
     2    37    35    1
     3     5     1   ar
     4     5     4   ar
     5    36    35    1
     6     1     2   ar
     7    35    30    1
     8    27    25    1
     9    26    25    1
    10     4    11    1
    11     4     3   ar
    12    15    11   ar
    13    15    14   ar
    14    25    21    1
    15     8     7    1
    16     2     3   ar
    17     2     7    1
    18    38    31    1
    19    30    31   ar
    20    30    29   ar
    21    11    12   ar
    22    21    22   ar
    23    21    20   ar
    24    28    22    1
    25    22    23   ar
    26    14    20    1
    27    14    13   ar
    28    20    24   ar
    29    17    16    1
    30    31    32   ar
    31     3    10    1
    32    12    13   ar
    33    12    16    1
    34    23    24   ar
    35    23    29    1
    36     7     9    1
    37    13    19    1
    38    29    33   ar
    39    18    16    1
    40    32    33   ar
    41    32    34    1
