@<TRIPOS>MOLECULE
mol_data/opt/b3lyp/geoms/mol2/5ha5ha5ha5ha.out
 38 41 0 0 0
SMALL
GASTEIGER

@<TRIPOS>ATOM
      1 C          -1.6720   -1.8654   -1.3427 C.ar    1  LIG1       -0.0031
      2 C          -0.7902   -1.9579   -0.2942 C.ar    1  LIG1        0.0323
      3 C          -0.4201   -0.6724    0.2196 C.ar    1  LIG1       -0.0257
      4 C          -1.0173    0.3845   -0.4365 C.ar    1  LIG1        0.0295
      5 S          -2.0560   -0.2104   -1.7231 S.2     1  LIG1       -0.0942
      6 H          -2.1349   -2.6700   -1.8964 H       1  LIG1        0.0712
      7 N          -0.3503   -3.1508    0.2994 N.pl3   1  LIG1       -0.3575
      8 H          -0.4604   -3.9637   -0.2931 H       1  LIG1        0.1423
      9 H           0.5981   -3.1001    0.6501 H       1  LIG1        0.1423
     10 H           0.2007   -0.5416    1.0991 H       1  LIG1        0.0647
     11 C          -0.8479    1.7997   -0.1915 C.ar    1  LIG1        0.0471
     12 C           0.2956    2.4512    0.2496 C.ar    1  LIG1        0.0406
     13 C           0.1146    3.8590    0.3940 C.ar    1  LIG1       -0.0250
     14 C          -1.1508    4.3010    0.0603 C.ar    1  LIG1        0.0301
     15 S          -2.1552    2.9526   -0.4433 S.2     1  LIG1       -0.0853
     16 N           1.4979    1.8136    0.5713 N.pl3   1  LIG1       -0.3570
     17 H           1.6100    0.9193    0.1062 H       1  LIG1        0.1424
     18 H           2.3119    2.3997    0.4325 H       1  LIG1        0.1424
     19 H           0.8758    4.5132    0.8045 H       1  LIG1        0.0648
     20 C          -1.6560    5.6534    0.0764 C.ar    1  LIG1        0.0472
     21 C          -0.9465    6.8260   -0.1511 C.ar    1  LIG1        0.0406
     22 C          -1.7569    7.9955   -0.0485 C.ar    1  LIG1       -0.0250
     23 C          -3.0813    7.7385    0.2434 C.ar    1  LIG1        0.0301
     24 S          -3.3502    6.0125    0.4005 S.2     1  LIG1       -0.0853
     25 N           0.4250    6.8857   -0.4132 N.pl3   1  LIG1       -0.3570
     26 H           0.7903    6.0343   -0.8257 H       1  LIG1        0.1424
     27 H           0.6947    7.6967   -0.9559 H       1  LIG1        0.1424
     28 H          -1.3567    9.0008   -0.1217 H       1  LIG1        0.0648
     29 C          -4.1599    8.6895    0.3955 C.ar    1  LIG1        0.0465
     30 C          -4.3192    9.9000   -0.2668 C.ar    1  LIG1        0.0400
     31 C          -5.5127   10.5879    0.1236 C.ar    1  LIG1       -0.0334
     32 C          -6.2422    9.9097    1.0567 C.ar    1  LIG1       -0.0219
     33 S          -5.4954    8.4170    1.5102 S.2     1  LIG1       -0.0942
     34 H          -7.1759   10.2076    1.5125 H       1  LIG1        0.0694
     35 N          -3.4187   10.4243   -1.1986 N.pl3   1  LIG1       -0.3571
     36 H          -2.8547    9.7129   -1.6508 H       1  LIG1        0.1424
     37 H          -3.8580   11.0257   -1.8848 H       1  LIG1        0.1424
     38 H          -5.8034   11.5499   -0.2845 H       1  LIG1        0.0641
@<TRIPOS>BOND
     1     6     1    1
     2    37    35    1
     3     5     1   ar
     4     5     4   ar
     5    36    35    1
     6     1     2   ar
     7    35    30    1
     8    27    25    1
     9    26    25    1
    10    15    11   ar
    11    15    14   ar
    12     4    11    1
    13     4     3   ar
    14    25    21    1
    15     2     3   ar
    16     2     7    1
    17     8     7    1
    18    38    31    1
    19    30    31   ar
    20    30    29   ar
    21    11    12   ar
    22    21    22   ar
    23    21    20   ar
    24    28    22    1
    25    22    23   ar
    26    14    20    1
    27    14    13   ar
    28    20    24   ar
    29    17    16    1
    30    31    32   ar
    31     3    10    1
    32    23    29    1
    33    23    24   ar
    34    12    13   ar
    35    12    16    1
    36     7     9    1
    37    13    19    1
    38    29    33   ar
    39    18    16    1
    40    32    33   ar
    41    32    34    1
