@<TRIPOS>MOLECULE
mol_data/opt/b3lyp/geoms/mol2/5hd.out
 12 12 0 0 0
SMALL
GASTEIGER

@<TRIPOS>ATOM
      1 C          -2.1343   -1.6974   -0.0436 C.ar    1  LIG1       -0.0024
      2 C          -0.7613   -1.6950   -0.0540 C.ar    1  LIG1        0.0492
      3 C          -0.2401   -0.3436   -0.0087 C.ar    1  LIG1        0.0793
      4 C          -1.2270    0.6155    0.0431 C.ar    1  LIG1       -0.0051
      5 S          -2.7916   -0.0885    0.0359 S.2     1  LIG1       -0.1019
      6 H          -2.7954   -2.5516   -0.0568 H       1  LIG1        0.0712
      7 H          -1.0942    1.6869    0.0776 H       1  LIG1        0.0707
      8 N           0.0707   -2.8059   -0.0389 N.pl3   1  LIG1       -0.3566
      9 H          -0.3324   -3.6555   -0.4072 H       1  LIG1        0.1424
     10 H           1.0081   -2.6433   -0.3831 H       1  LIG1        0.1424
     11 N           2.3070    0.1061   -0.0739 N.1     1  LIG1       -0.1908
     12 C           1.1554   -0.0646   -0.0357 C.1     1  LIG1        0.1015
@<TRIPOS>BOND
     1     9     8    1
     2    10     8    1
     3    11    12    3
     4     6     1    1
     5     2     1   ar
     6     2     8    1
     7     2     3   ar
     8     1     5   ar
     9    12     3    1
    10     3     4   ar
    11     5     4   ar
    12     4     7    1
