@<TRIPOS>MOLECULE
mol_data/opt/b3lyp/geoms/mol2/5hd5hd5hd-5hd.out
 42 45 0 0 0
SMALL
GASTEIGER

@<TRIPOS>ATOM
      1 C          -1.9862   -1.5583    1.4574 C.ar    1  LIG1       -0.0018
      2 C          -1.0680   -1.8796    0.4917 C.ar    1  LIG1        0.0499
      3 C          -0.4931   -0.6952   -0.1088 C.ar    1  LIG1        0.0876
      4 C          -0.9581    0.5038    0.4328 C.ar    1  LIG1        0.0469
      5 S          -2.1173    0.1589    1.6920 S.2     1  LIG1       -0.0929
      6 H          -2.5800   -2.2320    2.0578 H       1  LIG1        0.0712
      7 N          -0.6658   -3.1565    0.1263 N.pl3   1  LIG1       -0.3565
      8 H          -1.3184   -3.8945    0.3498 H       1  LIG1        0.1424
      9 H          -0.2969   -3.2421   -0.8120 H       1  LIG1        0.1424
     10 N           1.1525   -0.8774   -2.0922 N.1     1  LIG1       -0.1908
     11 C           0.4022   -0.7838   -1.2028 C.1     1  LIG1        0.1022
     12 C          -0.6190    1.8691    0.1046 C.ar    1  LIG1        0.0497
     13 C           0.6085    2.4472   -0.2087 C.ar    1  LIG1        0.0583
     14 C           0.4974    3.8782   -0.3873 C.ar    1  LIG1        0.0883
     15 C          -0.7776    4.4002   -0.1713 C.ar    1  LIG1        0.0475
     16 S          -1.8761    3.1054    0.2204 S.2     1  LIG1       -0.0839
     17 N           1.8306    1.8230   -0.2757 N.pl3   1  LIG1       -0.3561
     18 H           1.8585    0.8679   -0.6040 H       1  LIG1        0.1424
     19 H           2.5856    2.3850   -0.6455 H       1  LIG1        0.1424
     20 N           2.5437    5.2579   -1.1512 N.1     1  LIG1       -0.1908
     21 C           1.6092    4.6428   -0.8177 C.1     1  LIG1        0.1022
     22 C          -1.2576    5.7573   -0.2502 C.ar    1  LIG1        0.0497
     23 C          -0.6609    6.9577    0.1360 C.ar    1  LIG1        0.0583
     24 C          -1.5575    8.0799   -0.0359 C.ar    1  LIG1        0.0883
     25 C          -2.8285    7.7508   -0.5015 C.ar    1  LIG1        0.0475
     26 S          -2.9257    6.0329   -0.7700 S.2     1  LIG1       -0.0839
     27 N           0.5766    7.1328    0.6995 N.pl3   1  LIG1       -0.3561
     28 H           1.3237    6.5099    0.4269 H       1  LIG1        0.1424
     29 H           0.8789    8.0921    0.8041 H       1  LIG1        0.1424
     30 N          -0.7346   10.4856    0.4229 N.1     1  LIG1       -0.1908
     31 C          -1.1140    9.4046    0.2001 C.1     1  LIG1        0.1022
     32 C          -3.9652    8.5940   -0.7840 C.ar    1  LIG1        0.0491
     33 C          -4.4623    9.7050   -0.0970 C.ar    1  LIG1        0.0577
     34 C          -5.7131   10.1602   -0.6712 C.ar    1  LIG1        0.0800
     35 C          -6.1368    9.4088   -1.7402 C.ar    1  LIG1       -0.0045
     36 S          -5.0441    8.1460   -2.1128 S.2     1  LIG1       -0.0929
     37 H          -7.0255    9.5687   -2.3340 H       1  LIG1        0.0707
     38 N          -3.9639   10.2826    1.0407 N.pl3   1  LIG1       -0.3561
     39 H          -2.9639   10.2943    1.1832 H       1  LIG1        0.1424
     40 H          -4.4211   11.1361    1.3327 H       1  LIG1        0.1424
     41 N          -6.9404   12.2118    0.3176 N.1     1  LIG1       -0.1908
     42 C          -6.4136   11.2845   -0.1501 C.1     1  LIG1        0.1016
@<TRIPOS>BOND
     1    37    35    1
     2    36    35   ar
     3    36    32   ar
     4    10    11    3
     5    35    34   ar
     6    11     3    1
     7    20    21    3
     8    21    14    1
     9     9     7    1
    10    32    25    1
    11    32    33   ar
    12    26    25   ar
    13    26    22   ar
    14    34    42    1
    15    34    33   ar
    16    19    17    1
    17    18    17    1
    18    25    24   ar
    19    14    13   ar
    20    14    15   ar
    21    17    13    1
    22    22    15    1
    23    22    23   ar
    24    13    12   ar
    25    15    16   ar
    26    42    41    3
    27     3     4   ar
    28     3     2   ar
    29    33    38    1
    30    24    23   ar
    31    24    31    1
    32    12    16   ar
    33    12     4    1
    34     7     8    1
    35     7     2    1
    36    23    27    1
    37    31    30    3
    38    28    27    1
    39     4     5   ar
    40     2     1   ar
    41    27    29    1
    42    38    39    1
    43    38    40    1
    44     1     5   ar
    45     1     6    1
