@<TRIPOS>MOLECULE
mol_data/opt/b3lyp/geoms/mol2/5hd5hd-5hd.out
 32 34 0 0 0
SMALL
GASTEIGER

@<TRIPOS>ATOM
      1 C          -2.0188   -1.7277    0.9563 C.ar    1  LIG1       -0.0018
      2 C          -0.8897   -1.9437    0.2099 C.ar    1  LIG1        0.0499
      3 C          -0.3036   -0.6987   -0.2380 C.ar    1  LIG1        0.0876
      4 C          -0.9767    0.4414    0.2025 C.ar    1  LIG1        0.0469
      5 S          -2.3461   -0.0348    1.1752 S.2     1  LIG1       -0.0929
      6 H          -2.6676   -2.4653    1.4056 H       1  LIG1        0.0712
      7 N          -0.3089   -3.1715   -0.0741 N.pl3   1  LIG1       -0.3565
      8 H          -0.9273   -3.9673   -0.0062 H       1  LIG1        0.1424
      9 H           0.2594   -3.1979   -0.9108 H       1  LIG1        0.1424
     10 N           1.7426   -0.6856   -1.8154 N.1     1  LIG1       -0.1908
     11 C           0.8120   -0.6806   -1.1107 C.1     1  LIG1        0.1022
     12 C          -0.6942    1.8394   -0.0282 C.ar    1  LIG1        0.0497
     13 C           0.5171    2.5256   -0.0575 C.ar    1  LIG1        0.0583
     14 C           0.3223    3.9479   -0.2365 C.ar    1  LIG1        0.0883
     15 C          -1.0084    4.3545   -0.3007 C.ar    1  LIG1        0.0475
     16 S          -2.0490    2.9640   -0.1763 S.2     1  LIG1       -0.0839
     17 N           1.7744    2.0067    0.1369 N.pl3   1  LIG1       -0.3561
     18 H           1.9565    1.0683   -0.1903 H       1  LIG1        0.1424
     19 H           2.5395    2.6408   -0.0511 H       1  LIG1        0.1424
     20 N           2.3543    5.5230   -0.4935 N.1     1  LIG1       -0.1908
     21 C           1.4286    4.8195   -0.3916 C.1     1  LIG1        0.1022
     22 C          -1.5733    5.6736   -0.4646 C.ar    1  LIG1        0.0491
     23 C          -1.1885    6.8977    0.0869 C.ar    1  LIG1        0.0577
     24 C          -2.1295    7.9463   -0.2539 C.ar    1  LIG1        0.0800
     25 C          -3.1830    7.5154   -1.0232 C.ar    1  LIG1       -0.0045
     26 S          -3.0728    5.8469   -1.3866 S.2     1  LIG1       -0.0929
     27 H          -3.9936    8.1169   -1.4089 H       1  LIG1        0.0707
     28 N          -0.1423    7.1439    0.9383 N.pl3   1  LIG1       -0.3561
     29 H           0.7059    6.6064    0.8297 H       1  LIG1        0.1424
     30 H           0.0273    8.1188    1.1476 H       1  LIG1        0.1424
     31 N          -1.7518   10.3691    0.5711 N.1     1  LIG1       -0.1908
     32 C          -1.9509    9.2885    0.1855 C.1     1  LIG1        0.1016
@<TRIPOS>BOND
     1    10    11    3
     2    27    25    1
     3    26    25   ar
     4    26    22   ar
     5    11     3    1
     6    25    24   ar
     7     9     7    1
     8    20    21    3
     9    22    15    1
    10    22    23   ar
    11    21    14    1
    12    15    14   ar
    13    15    16   ar
    14    24    23   ar
    15    24    32    1
    16     3     4   ar
    17     3     2   ar
    18    14    13   ar
    19    18    17    1
    20    16    12   ar
    21     7     8    1
    22     7     2    1
    23    13    12   ar
    24    13    17    1
    25    19    17    1
    26    12     4    1
    27    23    28    1
    28    32    31    3
    29     4     5   ar
    30     2     1   ar
    31    29    28    1
    32    28    30    1
    33     1     5   ar
    34     1     6    1
