@<TRIPOS>MOLECULE
mol_data/opt/b3lyp/geoms/mol2/5hd5hd-.out
 22 23 0 0 0
SMALL
GASTEIGER

@<TRIPOS>ATOM
      1 C          -2.1465   -1.7621   -0.5132 C.ar    1  LIG1       -0.0018
      2 C          -0.8318   -1.8801   -0.1441 C.ar    1  LIG1        0.0499
      3 C          -0.2423   -0.5887    0.1377 C.ar    1  LIG1        0.0876
      4 C          -1.1123    0.4866   -0.0359 C.ar    1  LIG1        0.0469
      5 S          -2.6711   -0.1054   -0.5493 S.2     1  LIG1       -0.0929
      6 H          -2.8432   -2.5546   -0.7446 H       1  LIG1        0.0712
      7 N          -0.1300   -3.0624    0.0450 N.pl3   1  LIG1       -0.3565
      8 H          -0.4949   -3.8654   -0.4469 H       1  LIG1        0.1424
      9 H           0.8754   -2.9867   -0.0347 H       1  LIG1        0.1424
     10 N           2.2077   -0.3817    0.9315 N.1     1  LIG1       -0.1908
     11 C           1.0937   -0.4677    0.5940 C.1     1  LIG1        0.1022
     12 C          -0.8854    1.9065    0.1292 C.ar    1  LIG1        0.0491
     13 C           0.2063    2.6946   -0.2322 C.ar    1  LIG1        0.0577
     14 C          -0.0529    4.0987    0.0163 C.ar    1  LIG1        0.0800
     15 C          -1.3002    4.3476    0.5369 C.ar    1  LIG1       -0.0045
     16 S          -2.1930    2.9065    0.7719 S.2     1  LIG1       -0.0929
     17 H          -1.7092    5.3089    0.8129 H       1  LIG1        0.0707
     18 N           1.3665    2.2868   -0.8482 N.pl3   1  LIG1       -0.3561
     19 H           1.7494    1.3893   -0.5841 H       1  LIG1        0.1424
     20 H           2.0764    3.0024   -0.9345 H       1  LIG1        0.1424
     21 N           1.7443    5.8832   -0.5128 N.1     1  LIG1       -0.1908
     22 C           0.9145    5.1042   -0.2658 C.1     1  LIG1        0.1016
@<TRIPOS>BOND
     1    20    18    1
     2    18    19    1
     3    18    13    1
     4     6     1    1
     5     5     1   ar
     6     5     4   ar
     7     1     2   ar
     8    21    22    3
     9     8     7    1
    10    22    14    1
    11    13    14   ar
    12    13    12   ar
    13     2     7    1
    14     2     3   ar
    15     4    12    1
    16     4     3   ar
    17     9     7    1
    18    14    15   ar
    19    12    16   ar
    20     3    11    1
    21    15    16   ar
    22    15    17    1
    23    11    10    3
