@<TRIPOS>MOLECULE
mol_data/opt/b3lyp/geoms/mol2/5hd5hd5hd-5hd-.out
 42 45 0 0 0
SMALL
GASTEIGER

@<TRIPOS>ATOM
      1 C          -1.9881   -1.5562    1.4613 C.ar    1  LIG1       -0.0018
      2 C          -1.0688   -1.8790    0.4972 C.ar    1  LIG1        0.0499
      3 C          -0.4934   -0.6956   -0.1047 C.ar    1  LIG1        0.0876
      4 C          -0.9592    0.5043    0.4344 C.ar    1  LIG1        0.0469
      5 S          -2.1197    0.1613    1.6929 S.2     1  LIG1       -0.0929
      6 H          -2.5824   -2.2289    2.0624 H       1  LIG1        0.0712
      7 N          -0.6660   -3.1565    0.1344 N.pl3   1  LIG1       -0.3565
      8 H          -1.3189   -3.8941    0.3584 H       1  LIG1        0.1424
      9 H          -0.2967   -3.2436   -0.8036 H       1  LIG1        0.1424
     10 N           1.1537   -0.8812   -2.0866 N.1     1  LIG1       -0.1908
     11 C           0.4027   -0.7860   -1.1979 C.1     1  LIG1        0.1022
     12 C          -0.6198    1.8691    0.1043 C.ar    1  LIG1        0.0497
     13 C           0.6079    2.4466   -0.2092 C.ar    1  LIG1        0.0583
     14 C           0.4970    3.8774   -0.3900 C.ar    1  LIG1        0.0883
     15 C          -0.7781    4.3998   -0.1754 C.ar    1  LIG1        0.0475
     16 S          -1.8769    3.1056    0.2175 S.2     1  LIG1       -0.0839
     17 N           1.8301    1.8223   -0.2745 N.pl3   1  LIG1       -0.3561
     18 H           1.8583    0.8668   -0.6016 H       1  LIG1        0.1424
     19 H           2.5853    2.3839   -0.6447 H       1  LIG1        0.1424
     20 N           2.5436    5.2560   -1.1550 N.1     1  LIG1       -0.1908
     21 C           1.6091    4.6413   -0.8209 C.1     1  LIG1        0.1022
     22 C          -1.2578    5.7569   -0.2565 C.ar    1  LIG1        0.0497
     23 C          -0.6612    6.9576    0.1288 C.ar    1  LIG1        0.0583
     24 C          -1.5575    8.0797   -0.0448 C.ar    1  LIG1        0.0883
     25 C          -2.8283    7.7503   -0.5108 C.ar    1  LIG1        0.0475
     26 S          -2.9256    6.0321   -0.7776 S.2     1  LIG1       -0.0839
     27 N           0.5760    7.1332    0.6927 N.pl3   1  LIG1       -0.3561
     28 H           1.3234    6.5103    0.4207 H       1  LIG1        0.1424
     29 H           0.8781    8.0925    0.7972 H       1  LIG1        0.1424
     30 N          -0.7347   10.4859    0.4117 N.1     1  LIG1       -0.1908
     31 C          -1.1140    9.4047    0.1898 C.1     1  LIG1        0.1022
     32 C          -3.9648    8.5934   -0.7948 C.ar    1  LIG1        0.0491
     33 C          -4.4620    9.7050   -0.1089 C.ar    1  LIG1        0.0577
     34 C          -5.7125   10.1598   -0.6842 C.ar    1  LIG1        0.0800
     35 C          -6.1358    9.4076   -1.7527 C.ar    1  LIG1       -0.0045
     36 S          -5.0430    8.1444   -2.1236 S.2     1  LIG1       -0.0929
     37 H          -7.0241    9.5671   -2.3471 H       1  LIG1        0.0707
     38 N          -3.9641   10.2837    1.0284 N.pl3   1  LIG1       -0.3561
     39 H          -2.9643   10.2957    1.1713 H       1  LIG1        0.1424
     40 H          -4.4217   11.1372    1.3198 H       1  LIG1        0.1424
     41 N          -6.9402   12.2123    0.3023 N.1     1  LIG1       -0.1908
     42 C          -6.4132   11.2846   -0.1644 C.1     1  LIG1        0.1016
@<TRIPOS>BOND
     1    37    35    1
     2    36    35   ar
     3    36    32   ar
     4    10    11    3
     5    35    34   ar
     6    11     3    1
     7    20    21    3
     8    21    14    1
     9     9     7    1
    10    32    25    1
    11    32    33   ar
    12    26    25   ar
    13    26    22   ar
    14    34    42    1
    15    34    33   ar
    16    19    17    1
    17    18    17    1
    18    25    24   ar
    19    14    13   ar
    20    14    15   ar
    21    17    13    1
    22    22    15    1
    23    22    23   ar
    24    13    12   ar
    25    15    16   ar
    26    42    41    3
    27    33    38    1
    28     3     4   ar
    29     3     2   ar
    30    24    23   ar
    31    24    31    1
    32    12    16   ar
    33    12     4    1
    34    23    27    1
    35     7     8    1
    36     7     2    1
    37    31    30    3
    38    28    27    1
    39     4     5   ar
    40     2     1   ar
    41    27    29    1
    42    38    39    1
    43    38    40    1
    44     1     5   ar
    45     1     6    1
