@<TRIPOS>MOLECULE
mol_data/opt/b3lyp/geoms/mol2/5hd5hd-5hd5hd.out
 42 45 0 0 0
SMALL
GASTEIGER

@<TRIPOS>ATOM
      1 C          -1.9514   -1.5585    1.4878 C.ar    1  LIG1       -0.0018
      2 C          -1.0536   -1.8793    0.5031 C.ar    1  LIG1        0.0499
      3 C          -0.4920   -0.6946   -0.1094 C.ar    1  LIG1        0.0876
      4 C          -0.9462    0.5042    0.4420 C.ar    1  LIG1        0.0469
      5 S          -2.0786    0.1586    1.7252 S.2     1  LIG1       -0.0929
      6 H          -2.5322   -2.2324    2.1006 H       1  LIG1        0.0712
      7 N          -0.6585   -3.1560    0.1292 N.pl3   1  LIG1       -0.3565
      8 H          -1.3060   -3.8942    0.3661 H       1  LIG1        0.1424
      9 H          -0.3092   -3.2413   -0.8166 H       1  LIG1        0.1424
     10 N           1.1115   -0.8758   -2.1270 N.1     1  LIG1       -0.1908
     11 C           0.3801   -0.7827   -1.2220 C.1     1  LIG1        0.1022
     12 C          -0.6146    1.8696    0.1068 C.ar    1  LIG1        0.0497
     13 C           0.6058    2.4482   -0.2322 C.ar    1  LIG1        0.0583
     14 C           0.4904    3.8792   -0.4083 C.ar    1  LIG1        0.0883
     15 C          -0.7800    4.4007   -0.1655 C.ar    1  LIG1        0.0475
     16 S          -1.8695    3.1053    0.2490 S.2     1  LIG1       -0.0839
     17 N           1.8266    1.8244   -0.3247 N.pl3   1  LIG1       -0.3561
     18 H           1.8479    0.8695   -0.6541 H       1  LIG1        0.1424
     19 H           2.5733    2.3869   -0.7102 H       1  LIG1        0.1424
     20 N           2.5197    5.2596   -1.2149 N.1     1  LIG1       -0.1908
     21 C           1.5927    4.6442   -0.8618 C.1     1  LIG1        0.1022
     22 C          -1.2621    5.7575   -0.2342 C.ar    1  LIG1        0.0497
     23 C          -0.6579    6.9582    0.1391 C.ar    1  LIG1        0.0583
     24 C          -1.5584    8.0800   -0.0139 C.ar    1  LIG1        0.0883
     25 C          -2.8389    7.7503   -0.4524 C.ar    1  LIG1        0.0475
     26 S          -2.9410    6.0323   -0.7186 S.2     1  LIG1       -0.0839
     27 N           0.5911    7.1340    0.6764 N.pl3   1  LIG1       -0.3561
     28 H           1.3325    6.5112    0.3883 H       1  LIG1        0.1424
     29 H           0.8952    8.0935    0.7740 H       1  LIG1        0.1424
     30 N          -0.7274   10.4862    0.4273 N.1     1  LIG1       -0.1908
     31 C          -1.1107    9.4050    0.2126 C.1     1  LIG1        0.1022
     32 C          -3.9817    8.5930   -0.7110 C.ar    1  LIG1        0.0491
     33 C          -4.4647    9.7037   -0.0137 C.ar    1  LIG1        0.0577
     34 C          -5.7274   10.1584   -0.5616 C.ar    1  LIG1        0.0800
     35 C          -6.1731    9.4069   -1.6216 C.ar    1  LIG1       -0.0045
     36 S          -5.0879    8.1446   -2.0170 S.2     1  LIG1       -0.0929
     37 H          -7.0740    9.5665   -2.1966 H       1  LIG1        0.0707
     38 N          -3.9429   10.2814    1.1134 N.pl3   1  LIG1       -0.3561
     39 H          -2.9402   10.2936    1.2349 H       1  LIG1        0.1424
     40 H          -4.3944   11.1346    1.4151 H       1  LIG1        0.1424
     41 N          -6.9347   12.2094    0.4528 N.1     1  LIG1       -0.1908
     42 C          -6.4174   11.2824   -0.0259 C.1     1  LIG1        0.1016
@<TRIPOS>BOND
     1    37    35    1
     2    10    11    3
     3    36    35   ar
     4    36    32   ar
     5    35    34   ar
     6    11     3    1
     7    20    21    3
     8    21    14    1
     9     9     7    1
    10    26    25   ar
    11    26    22   ar
    12    32    25    1
    13    32    33   ar
    14    19    17    1
    15    18    17    1
    16    34    42    1
    17    34    33   ar
    18    25    24   ar
    19    14    13   ar
    20    14    15   ar
    21    17    13    1
    22    22    15    1
    23    22    23   ar
    24    13    12   ar
    25    15    16   ar
    26     3     4   ar
    27     3     2   ar
    28    42    41    3
    29    24    23   ar
    30    24    31    1
    31    33    38    1
    32    12    16   ar
    33    12     4    1
    34     7     8    1
    35     7     2    1
    36    23    27    1
    37    31    30    3
    38    28    27    1
    39     4     5   ar
    40     2     1   ar
    41    27    29    1
    42    38    39    1
    43    38    40    1
    44     1     5   ar
    45     1     6    1
