@<TRIPOS>MOLECULE
mol_data/opt/b3lyp/geoms/mol2/5hd5hd5hd5hd.out
 42 45 0 0 0
SMALL
GASTEIGER

@<TRIPOS>ATOM
      1 C          -1.9697   -1.5546    1.4796 C.ar    1  LIG1       -0.0018
      2 C          -1.0614   -1.8781    0.5054 C.ar    1  LIG1        0.0499
      3 C          -0.4932   -0.6951   -0.1042 C.ar    1  LIG1        0.0876
      4 C          -0.9530    0.5052    0.4390 C.ar    1  LIG1        0.0469
      5 S          -2.0990    0.1632    1.7110 S.2     1  LIG1       -0.0929
      6 H          -2.5570   -2.2267    2.0880 H       1  LIG1        0.0712
      7 N          -0.6626   -3.1558    0.1391 N.pl3   1  LIG1       -0.3565
      8 H          -1.3123   -3.8935    0.3717 H       1  LIG1        0.1424
      9 H          -0.3034   -3.2439   -0.8027 H       1  LIG1        0.1424
     10 N           1.1314   -0.8820   -2.1044 N.1     1  LIG1       -0.1908
     11 C           0.3904   -0.7863   -1.2075 C.1     1  LIG1        0.1022
     12 C          -0.6175    1.8695    0.1037 C.ar    1  LIG1        0.0497
     13 C           0.6067    2.4468   -0.2235 C.ar    1  LIG1        0.0583
     14 C           0.4939    3.8775   -0.4037 C.ar    1  LIG1        0.0883
     15 C          -0.7787    4.4002   -0.1754 C.ar    1  LIG1        0.0475
     16 S          -1.8732    3.1062    0.2302 S.2     1  LIG1       -0.0839
     17 N           1.8280    1.8224   -0.3018 N.pl3   1  LIG1       -0.3561
     18 H           1.8525    0.8668   -0.6290 H       1  LIG1        0.1424
     19 H           2.5794    2.3838   -0.6800 H       1  LIG1        0.1424
     20 N           2.5325    5.2553   -1.1914 N.1     1  LIG1       -0.1908
     21 C           1.6015    4.6411   -0.8470 C.1     1  LIG1        0.1022
     22 C          -1.2595    5.7571   -0.2521 C.ar    1  LIG1        0.0497
     23 C          -0.6589    6.9584    0.1249 C.ar    1  LIG1        0.0583
     24 C          -1.5575    8.0800   -0.0399 C.ar    1  LIG1        0.0883
     25 C          -2.8332    7.7498   -0.4912 C.ar    1  LIG1        0.0475
     26 S          -2.9331    6.0313   -0.7549 S.2     1  LIG1       -0.0839
     27 N           0.5845    7.1350    0.6749 N.pl3   1  LIG1       -0.3561
     28 H           1.3288    6.5117    0.3953 H       1  LIG1        0.1424
     29 H           0.8877    8.0946    0.7739 H       1  LIG1        0.1424
     30 N          -0.7307   10.4871    0.4051 N.1     1  LIG1       -0.1908
     31 C          -1.1119    9.4055    0.1886 C.1     1  LIG1        0.1022
     32 C          -3.9730    8.5924   -0.7635 C.ar    1  LIG1        0.0491
     33 C          -4.4631    9.7043   -0.0730 C.ar    1  LIG1        0.0577
     34 C          -5.7195   10.1588   -0.6353 C.ar    1  LIG1        0.0800
     35 C          -6.1539    9.4060   -1.6991 C.ar    1  LIG1       -0.0045
     36 S          -5.0649    8.1428   -2.0810 S.2     1  LIG1       -0.0929
     37 H          -7.0484    9.5653   -2.2842 H       1  LIG1        0.0707
     38 N          -3.9532   10.2831    1.0591 N.pl3   1  LIG1       -0.3561
     39 H          -2.9517   10.2965    1.1901 H       1  LIG1        0.1424
     40 H          -4.4080   11.1365    1.3550 H       1  LIG1        0.1424
     41 N          -6.9370   12.2117    0.3629 N.1     1  LIG1       -0.1908
     42 C          -6.4149   11.2838   -0.1087 C.1     1  LIG1        0.1016
@<TRIPOS>BOND
     1    37    35    1
     2    10    11    3
     3    36    35   ar
     4    36    32   ar
     5    35    34   ar
     6    11     3    1
     7    20    21    3
     8    21    14    1
     9     9     7    1
    10    32    25    1
    11    32    33   ar
    12    26    25   ar
    13    26    22   ar
    14    19    17    1
    15    34    42    1
    16    34    33   ar
    17    18    17    1
    18    25    24   ar
    19    14    13   ar
    20    14    15   ar
    21    17    13    1
    22    22    15    1
    23    22    23   ar
    24    13    12   ar
    25    15    16   ar
    26    42    41    3
    27     3     4   ar
    28     3     2   ar
    29    33    38    1
    30    24    23   ar
    31    24    31    1
    32    12    16   ar
    33    12     4    1
    34    23    27    1
    35     7     8    1
    36     7     2    1
    37    31    30    3
    38    28    27    1
    39     4     5   ar
    40     2     1   ar
    41    27    29    1
    42    38    39    1
    43    38    40    1
    44     1     5   ar
    45     1     6    1
