@<TRIPOS>MOLECULE
mol_data/opt/b3lyp/geoms/mol2/5hd5hd.out
 22 23 0 0 0
SMALL
GASTEIGER

@<TRIPOS>ATOM
      1 C          -2.1432   -1.7615   -0.5237 C.ar    1  LIG1       -0.0018
      2 C          -0.8315   -1.8802   -0.1443 C.ar    1  LIG1        0.0499
      3 C          -0.2439   -0.5892    0.1435 C.ar    1  LIG1        0.0876
      4 C          -1.1122    0.4864   -0.0359 C.ar    1  LIG1        0.0469
      5 S          -2.6670   -0.1046   -0.5622 S.2     1  LIG1       -0.0929
      6 H          -2.8383   -2.5536   -0.7613 H       1  LIG1        0.0712
      7 N          -0.1316   -3.0629    0.0492 N.pl3   1  LIG1       -0.3565
      8 H          -0.4928   -3.8653   -0.4464 H       1  LIG1        0.1424
      9 H           0.8745   -2.9874   -0.0225 H       1  LIG1        0.1424
     10 N           2.1997   -0.3837    0.9573 N.1     1  LIG1       -0.1908
     11 C           1.0884   -0.4692    0.6107 C.1     1  LIG1        0.1022
     12 C          -0.8863    1.9061    0.1324 C.ar    1  LIG1        0.0491
     13 C           0.2086    2.6944   -0.2190 C.ar    1  LIG1        0.0577
     14 C          -0.0524    4.0983    0.0289 C.ar    1  LIG1        0.0800
     15 C          -1.3040    4.3469    0.5393 C.ar    1  LIG1       -0.0045
     16 S          -2.1990    2.9057    0.7653 S.2     1  LIG1       -0.0929
     17 H          -1.7150    5.3080    0.8129 H       1  LIG1        0.0707
     18 N           1.3737    2.2870   -0.8259 N.pl3   1  LIG1       -0.3561
     19 H           1.7543    1.3892   -0.5596 H       1  LIG1        0.1424
     20 H           2.0844    3.0026   -0.9056 H       1  LIG1        0.1424
     21 N           1.7495    5.8829   -0.4835 N.1     1  LIG1       -0.1908
     22 C           0.9175    5.1039   -0.2441 C.1     1  LIG1        0.1016
@<TRIPOS>BOND
     1    20    18    1
     2    18    19    1
     3    18    13    1
     4     6     1    1
     5     5     1   ar
     6     5     4   ar
     7     1     2   ar
     8    21    22    3
     9     8     7    1
    10    22    14    1
    11    13    14   ar
    12    13    12   ar
    13     2     7    1
    14     2     3   ar
    15     4    12    1
    16     4     3   ar
    17     9     7    1
    18    14    15   ar
    19    12    16   ar
    20     3    11    1
    21    15    16   ar
    22    15    17    1
    23    11    10    3
