@<TRIPOS>MOLECULE
mol_data/opt/b3lyp/geoms/mol2/5hd5hd-5hd-.out
 32 34 0 0 0
SMALL
GASTEIGER

@<TRIPOS>ATOM
      1 C          -2.0213   -1.7309    0.9425 C.ar    1  LIG1       -0.0018
      2 C          -0.8907   -1.9446    0.1978 C.ar    1  LIG1        0.0499
      3 C          -0.3033   -0.6982   -0.2447 C.ar    1  LIG1        0.0876
      4 C          -0.9773    0.4405    0.1982 C.ar    1  LIG1        0.0469
      5 S          -2.3488   -0.0387    1.1663 S.2     1  LIG1       -0.0929
      6 H          -2.6712   -2.4699    1.3879 H       1  LIG1        0.0712
      7 N          -0.3093   -3.1716   -0.0891 N.pl3   1  LIG1       -0.3565
      8 H          -0.9280   -3.9675   -0.0253 H       1  LIG1        0.1424
      9 H           0.2609   -3.1951   -0.9245 H       1  LIG1        0.1424
     10 N           1.7463   -0.6804   -1.8175 N.1     1  LIG1       -0.1908
     11 C           0.8141   -0.6774   -1.1149 C.1     1  LIG1        0.1022
     12 C          -0.6942    1.8392   -0.0274 C.ar    1  LIG1        0.0497
     13 C           0.5172    2.5254   -0.0518 C.ar    1  LIG1        0.0583
     14 C           0.3229    3.9483   -0.2264 C.ar    1  LIG1        0.0883
     15 C          -1.0076    4.3553   -0.2918 C.ar    1  LIG1        0.0475
     16 S          -2.0486    2.9645   -0.1742 S.2     1  LIG1       -0.0839
     17 N           1.7741    2.0058    0.1433 N.pl3   1  LIG1       -0.3561
     18 H           1.9566    1.0681   -0.1857 H       1  LIG1        0.1424
     19 H           2.5397    2.6402   -0.0416 H       1  LIG1        0.1424
     20 N           2.3553    5.5244   -0.4744 N.1     1  LIG1       -0.1908
     21 C           1.4295    4.8205   -0.3765 C.1     1  LIG1        0.1022
     22 C          -1.5717    5.6750   -0.4524 C.ar    1  LIG1        0.0491
     23 C          -1.1878    6.8970    0.1045 C.ar    1  LIG1        0.0577
     24 C          -2.1277    7.9471   -0.2344 C.ar    1  LIG1        0.0800
     25 C          -3.1798    7.5193   -1.0074 C.ar    1  LIG1       -0.0045
     26 S          -3.0692    5.8522   -1.3769 S.2     1  LIG1       -0.0929
     27 H          -3.9894    8.1225   -1.3925 H       1  LIG1        0.0707
     28 N          -0.1433    7.1396    0.9592 N.pl3   1  LIG1       -0.3561
     29 H           0.7054    6.6029    0.8495 H       1  LIG1        0.1424
     30 H           0.0257    8.1136    1.1729 H       1  LIG1        0.1424
     31 N          -1.7512   10.3668    0.6006 N.1     1  LIG1       -0.1908
     32 C          -1.9496    9.2876    0.2103 C.1     1  LIG1        0.1016
@<TRIPOS>BOND
     1    10    11    3
     2    27    25    1
     3    26    25   ar
     4    26    22   ar
     5    11     3    1
     6    25    24   ar
     7     9     7    1
     8    20    21    3
     9    22    15    1
    10    22    23   ar
    11    21    14    1
    12    15    14   ar
    13    15    16   ar
    14     3     2   ar
    15     3     4   ar
    16    24    23   ar
    17    24    32    1
    18    14    13   ar
    19    18    17    1
    20    16    12   ar
    21     7     8    1
    22     7     2    1
    23    13    12   ar
    24    13    17    1
    25    19    17    1
    26    12     4    1
    27    23    28    1
    28     2     1   ar
    29     4     5   ar
    30    32    31    3
    31    29    28    1
    32     1     5   ar
    33     1     6    1
    34    28    30    1
