@<TRIPOS>MOLECULE
mol_data/opt/b3lyp/geoms/mol2/5hd5hd5hd-.out
 32 34 0 0 0
SMALL
GASTEIGER

@<TRIPOS>ATOM
      1 C          -2.0331   -1.7279    0.9340 C.ar    1  LIG1       -0.0018
      2 C          -0.8948   -1.9439    0.2018 C.ar    1  LIG1        0.0499
      3 C          -0.3024   -0.6988   -0.2377 C.ar    1  LIG1        0.0876
      4 C          -0.9805    0.4412    0.1951 C.ar    1  LIG1        0.0469
      5 S          -2.3624   -0.0350    1.1500 S.2     1  LIG1       -0.0929
      6 H          -2.6879   -2.4656    1.3745 H       1  LIG1        0.0712
      7 N          -0.3109   -3.1719   -0.0757 N.pl3   1  LIG1       -0.3565
      8 H          -0.9305   -3.9674   -0.0162 H       1  LIG1        0.1424
      9 H           0.2680   -3.1978   -0.9052 H       1  LIG1        0.1424
     10 N           1.7639   -0.6858   -1.7886 N.1     1  LIG1       -0.1908
     11 C           0.8243   -0.6809   -1.0959 C.1     1  LIG1        0.1022
     12 C          -0.6945    1.8392   -0.0310 C.ar    1  LIG1        0.0497
     13 C           0.5173    2.5249   -0.0442 C.ar    1  LIG1        0.0583
     14 C           0.3254    3.9475   -0.2243 C.ar    1  LIG1        0.0883
     15 C          -1.0043    4.3547   -0.3050 C.ar    1  LIG1        0.0475
     16 S          -2.0468    2.9645   -0.1952 S.2     1  LIG1       -0.0839
     17 N           1.7719    2.0054    0.1656 N.pl3   1  LIG1       -0.3561
     18 H           1.9576    1.0670   -0.1595 H       1  LIG1        0.1424
     19 H           2.5395    2.6392   -0.0124 H       1  LIG1        0.1424
     20 N           2.3611    5.5221   -0.4542 N.1     1  LIG1       -0.1908
     21 C           1.4339    4.8188   -0.3646 C.1     1  LIG1        0.1022
     22 C          -1.5663    5.6742   -0.4749 C.ar    1  LIG1        0.0491
     23 C          -1.1879    6.8975    0.0829 C.ar    1  LIG1        0.0577
     24 C          -2.1240    7.9470   -0.2687 C.ar    1  LIG1        0.0800
     25 C          -3.1679    7.5174   -1.0517 C.ar    1  LIG1       -0.0045
     26 S          -3.0540    5.8492   -1.4155 S.2     1  LIG1       -0.0929
     27 H          -3.9733    8.1198   -1.4470 H       1  LIG1        0.0707
     28 N          -0.1525    7.1423    0.9477 N.pl3   1  LIG1       -0.3561
     29 H           0.6969    6.6045    0.8492 H       1  LIG1        0.1424
     30 H           0.0150    8.1169    1.1600 H       1  LIG1        0.1424
     31 N          -1.7557   10.3687    0.5638 N.1     1  LIG1       -0.1908
     32 C          -1.9503    9.2886    0.1744 C.1     1  LIG1        0.1016
@<TRIPOS>BOND
     1    10    11    3
     2    27    25    1
     3    26    25   ar
     4    26    22   ar
     5    11     3    1
     6    25    24   ar
     7     9     7    1
     8    22    15    1
     9    22    23   ar
    10    20    21    3
    11    21    14    1
    12    15    14   ar
    13    15    16   ar
    14    24    23   ar
    15    24    32    1
    16     3     4   ar
    17     3     2   ar
    18    14    13   ar
    19    16    12   ar
    20    18    17    1
    21     7     8    1
    22     7     2    1
    23    13    12   ar
    24    13    17    1
    25    12     4    1
    26    19    17    1
    27    23    28    1
    28    32    31    3
    29     4     5   ar
    30     2     1   ar
    31    29    28    1
    32     1     5   ar
    33     1     6    1
    34    28    30    1
