@<TRIPOS>MOLECULE
mol_data/opt/b3lyp/geoms/mol2/5hd5hd-5hd-5hd.out
 42 45 0 0 0
SMALL
GASTEIGER

@<TRIPOS>ATOM
      1 C          -1.9665   -1.5608    1.4704 C.ar    1  LIG1       -0.0018
      2 C          -1.0598   -1.8802    0.4934 C.ar    1  LIG1        0.0499
      3 C          -0.4925   -0.6946   -0.1120 C.ar    1  LIG1        0.0876
      4 C          -0.9514    0.5034    0.4370 C.ar    1  LIG1        0.0469
      5 S          -2.0955    0.1560    1.7093 S.2     1  LIG1       -0.0929
      6 H          -2.5530   -2.2355    2.0768 H       1  LIG1        0.0712
      7 N          -0.6617   -3.1564    0.1211 N.pl3   1  LIG1       -0.3565
      8 H          -1.3115   -3.8948    0.3510 H       1  LIG1        0.1424
      9 H          -0.3039   -3.2403   -0.8216 H       1  LIG1        0.1424
     10 N           1.1293   -0.8730   -2.1153 N.1     1  LIG1       -0.1908
     11 C           0.3895   -0.7811   -1.2169 C.1     1  LIG1        0.1022
     12 C          -0.6165    1.8693    0.1070 C.ar    1  LIG1        0.0497
     13 C           0.6071    2.4480   -0.2200 C.ar    1  LIG1        0.0583
     14 C           0.4936    3.8793   -0.3951 C.ar    1  LIG1        0.0883
     15 C          -0.7788    4.4008   -0.1632 C.ar    1  LIG1        0.0475
     16 S          -1.8724    3.1051    0.2395 S.2     1  LIG1       -0.0839
     17 N           1.8285    1.8241   -0.3023 N.pl3   1  LIG1       -0.3561
     18 H           1.8525    0.8696   -0.6326 H       1  LIG1        0.1424
     19 H           2.5789    2.3869   -0.6803 H       1  LIG1        0.1424
     20 N           2.5306    5.2609   -1.1802 N.1     1  LIG1       -0.1908
     21 C           1.6003    4.6449   -0.8369 C.1     1  LIG1        0.1022
     22 C          -1.2599    5.7579   -0.2345 C.ar    1  LIG1        0.0497
     23 C          -0.6592    6.9577    0.1472 C.ar    1  LIG1        0.0583
     24 C          -1.5581    8.0799   -0.0121 C.ar    1  LIG1        0.0883
     25 C          -2.8343    7.7513   -0.4637 C.ar    1  LIG1        0.0475
     26 S          -2.9340    6.0339   -0.7346 S.2     1  LIG1       -0.0839
     27 N           0.5847    7.1321    0.6965 N.pl3   1  LIG1       -0.3561
     28 H           1.3290    6.5104    0.4133 H       1  LIG1        0.1424
     29 H           0.8876    8.0913    0.8004 H       1  LIG1        0.1424
     30 N          -0.7307   10.4850    0.4418 N.1     1  LIG1       -0.1908
     31 C          -1.1123    9.4043    0.2214 C.1     1  LIG1        0.1022
     32 C          -3.9745    8.5946   -0.7313 C.ar    1  LIG1        0.0491
     33 C          -4.4638    9.7041   -0.0363 C.ar    1  LIG1        0.0577
     34 C          -5.7212   10.1602   -0.5951 C.ar    1  LIG1        0.0800
     35 C          -6.1571    9.4109   -1.6607 C.ar    1  LIG1       -0.0045
     36 S          -5.0686    8.1491   -2.0484 S.2     1  LIG1       -0.0929
     37 H          -7.0526    9.5718   -2.2439 H       1  LIG1        0.0707
     38 N          -3.9525   10.2795    1.0968 N.pl3   1  LIG1       -0.3561
     39 H          -2.9511   10.2906    1.2281 H       1  LIG1        0.1424
     40 H          -4.4061   11.1327    1.3954 H       1  LIG1        0.1424
     41 N          -6.9375   12.2095    0.4119 N.1     1  LIG1       -0.1908
     42 C          -6.4159   11.2833   -0.0637 C.1     1  LIG1        0.1016
@<TRIPOS>BOND
     1    37    35    1
     2    10    11    3
     3    36    35   ar
     4    36    32   ar
     5    35    34   ar
     6    11     3    1
     7    20    21    3
     8    21    14    1
     9     9     7    1
    10    26    25   ar
    11    26    22   ar
    12    32    25    1
    13    32    33   ar
    14    19    17    1
    15    18    17    1
    16    34    42    1
    17    34    33   ar
    18    25    24   ar
    19    14    13   ar
    20    14    15   ar
    21    17    13    1
    22    22    15    1
    23    22    23   ar
    24    13    12   ar
    25    15    16   ar
    26     3     4   ar
    27     3     2   ar
    28    42    41    3
    29    33    38    1
    30    24    23   ar
    31    24    31    1
    32    12    16   ar
    33    12     4    1
    34     7     8    1
    35     7     2    1
    36    23    27    1
    37    31    30    3
    38    28    27    1
    39     4     5   ar
    40     2     1   ar
    41    27    29    1
    42    38    39    1
    43    38    40    1
    44     1     5   ar
    45     1     6    1
