@<TRIPOS>MOLECULE
mol_data/opt/b3lyp/geoms/mol2/5hd5hd5hd5hd-.out
 42 45 0 0 0
SMALL
GASTEIGER

@<TRIPOS>ATOM
      1 C          -1.9702   -1.5531    1.4828 C.ar    1  LIG1       -0.0018
      2 C          -1.0607   -1.8776    0.5100 C.ar    1  LIG1        0.0499
      3 C          -0.4920   -0.6951   -0.1003 C.ar    1  LIG1        0.0876
      4 C          -0.9526    0.5057    0.4411 C.ar    1  LIG1        0.0469
      5 S          -2.1000    0.1649    1.7122 S.2     1  LIG1       -0.0929
      6 H          -2.5580   -2.2247    2.0913 H       1  LIG1        0.0712
      7 N          -0.6613   -3.1556    0.1456 N.pl3   1  LIG1       -0.3565
      8 H          -1.3114   -3.8930    0.3780 H       1  LIG1        0.1424
      9 H          -0.3012   -3.2446   -0.7957 H       1  LIG1        0.1424
     10 N           1.1348   -0.8841   -2.0984 N.1     1  LIG1       -0.1908
     11 C           0.3928   -0.7874   -1.2024 C.1     1  LIG1        0.1022
     12 C          -0.6171    1.8699    0.1047 C.ar    1  LIG1        0.0497
     13 C           0.6072    2.4471   -0.2223 C.ar    1  LIG1        0.0583
     14 C           0.4940    3.8775   -0.4047 C.ar    1  LIG1        0.0883
     15 C          -0.7790    4.4000   -0.1783 C.ar    1  LIG1        0.0475
     16 S          -1.8734    3.1063    0.2282 S.2     1  LIG1       -0.0839
     17 N           1.8288    1.8230   -0.2988 N.pl3   1  LIG1       -0.3561
     18 H           1.8539    0.8669   -0.6245 H       1  LIG1        0.1424
     19 H           2.5802    2.3841   -0.6772 H       1  LIG1        0.1424
     20 N           2.5327    5.2549   -1.1928 N.1     1  LIG1       -0.1908
     21 C           1.6015    4.6409   -0.8482 C.1     1  LIG1        0.1022
     22 C          -1.2601    5.7567   -0.2574 C.ar    1  LIG1        0.0497
     23 C          -0.6600    6.9586    0.1190 C.ar    1  LIG1        0.0583
     24 C          -1.5586    8.0799   -0.0482 C.ar    1  LIG1        0.0883
     25 C          -2.8339    7.7489   -0.5004 C.ar    1  LIG1        0.0475
     26 S          -2.9332    6.0301   -0.7621 S.2     1  LIG1       -0.0839
     27 N           0.5828    7.1360    0.6700 N.pl3   1  LIG1       -0.3561
     28 H           1.3275    6.5125    0.3920 H       1  LIG1        0.1424
     29 H           0.8857    8.0957    0.7684 H       1  LIG1        0.1424
     30 N          -0.7321   10.4876    0.3939 N.1     1  LIG1       -0.1908
     31 C          -1.1132    9.4056    0.1788 C.1     1  LIG1        0.1022
     32 C          -3.9735    8.5910   -0.7749 C.ar    1  LIG1        0.0491
     33 C          -4.4642    9.7039   -0.0866 C.ar    1  LIG1        0.0577
     34 C          -5.7207   10.1569   -0.6501 C.ar    1  LIG1        0.0800
     35 C          -6.1545    9.4020   -1.7125 C.ar    1  LIG1       -0.0045
     36 S          -5.0651    8.1383   -2.0916 S.2     1  LIG1       -0.0929
     37 H          -7.0489    9.5598   -2.2982 H       1  LIG1        0.0707
     38 N          -3.9550   10.2854    1.0443 N.pl3   1  LIG1       -0.3561
     39 H          -2.9538   10.2978    1.1772 H       1  LIG1        0.1424
     40 H          -4.4098   11.1395    1.3383 H       1  LIG1        0.1424
     41 N          -6.9392   12.2113    0.3439 N.1     1  LIG1       -0.1908
     42 C          -6.4165   11.2827   -0.1259 C.1     1  LIG1        0.1016
@<TRIPOS>BOND
     1    37    35    1
     2    10    11    3
     3    36    35   ar
     4    36    32   ar
     5    35    34   ar
     6    11     3    1
     7    20    21    3
     8    21    14    1
     9     9     7    1
    10    32    25    1
    11    32    33   ar
    12    26    25   ar
    13    26    22   ar
    14    19    17    1
    15    34    42    1
    16    34    33   ar
    17    18    17    1
    18    25    24   ar
    19    14    13   ar
    20    14    15   ar
    21    17    13    1
    22    22    15    1
    23    22    23   ar
    24    13    12   ar
    25    15    16   ar
    26    42    41    3
    27     3     4   ar
    28     3     2   ar
    29    33    38    1
    30    24    23   ar
    31    24    31    1
    32    12    16   ar
    33    12     4    1
    34    23    27    1
    35     7     8    1
    36     7     2    1
    37    31    30    3
    38    28    27    1
    39     4     5   ar
    40     2     1   ar
    41    27    29    1
    42    38    39    1
    43    38    40    1
    44     1     5   ar
    45     1     6    1
