@<TRIPOS>MOLECULE
mol_data/opt/b3lyp/geoms/mol2/5hd5hd5hd.out
 32 34 0 0 0
SMALL
GASTEIGER

@<TRIPOS>ATOM
      1 C          -2.0311   -1.7259    0.9422 C.ar    1  LIG1       -0.0018
      2 C          -0.8945   -1.9435    0.2078 C.ar    1  LIG1        0.0499
      3 C          -0.3031   -0.6993   -0.2355 C.ar    1  LIG1        0.0876
      4 C          -0.9802    0.4416    0.1965 C.ar    1  LIG1        0.0469
      5 S          -2.3598   -0.0326    1.1555 S.2     1  LIG1       -0.0929
      6 H          -2.6850   -2.4627    1.3856 H       1  LIG1        0.0712
      7 N          -0.3112   -3.1719   -0.0686 N.pl3   1  LIG1       -0.3565
      8 H          -0.9304   -3.9675   -0.0055 H       1  LIG1        0.1424
      9 H           0.2658   -3.1997   -0.8992 H       1  LIG1        0.1424
     10 N           1.7600   -0.6891   -1.7908 N.1     1  LIG1       -0.1908
     11 C           0.8218   -0.6829   -1.0963 C.1     1  LIG1        0.1022
     12 C          -0.6946    1.8392   -0.0332 C.ar    1  LIG1        0.0497
     13 C           0.5171    2.5249   -0.0500 C.ar    1  LIG1        0.0583
     14 C           0.3249    3.9471   -0.2329 C.ar    1  LIG1        0.0883
     15 C          -1.0049    4.3542   -0.3121 C.ar    1  LIG1        0.0475
     16 S          -2.0473    2.9642   -0.1972 S.2     1  LIG1       -0.0839
     17 N           1.7720    2.0058    0.1584 N.pl3   1  LIG1       -0.3561
     18 H           1.9572    1.0667   -0.1651 H       1  LIG1        0.1424
     19 H           2.5395    2.6392   -0.0220 H       1  LIG1        0.1424
     20 N           2.3604    5.5208   -0.4698 N.1     1  LIG1       -0.1908
     21 C           1.4333    4.8180   -0.3769 C.1     1  LIG1        0.1022
     22 C          -1.5676    5.6732   -0.4838 C.ar    1  LIG1        0.0491
     23 C          -1.1882    6.8982    0.0696 C.ar    1  LIG1        0.0577
     24 C          -2.1252    7.9464   -0.2829 C.ar    1  LIG1        0.0800
     25 C          -3.1707    7.5146   -1.0625 C.ar    1  LIG1       -0.0045
     26 S          -3.0572    5.8455   -1.4219 S.2     1  LIG1       -0.0929
     27 H          -3.9771    8.1157   -1.4575 H       1  LIG1        0.0707
     28 N          -0.1510    7.1455    0.9318 N.pl3   1  LIG1       -0.3561
     29 H           0.6984    6.6080    0.8323 H       1  LIG1        0.1424
     30 H           0.0166    8.1207    1.1408 H       1  LIG1        0.1424
     31 N          -1.7555   10.3706    0.5420 N.1     1  LIG1       -0.1908
     32 C          -1.9508    9.2893    0.1561 C.1     1  LIG1        0.1016
@<TRIPOS>BOND
     1    10    11    3
     2    27    25    1
     3    26    25   ar
     4    26    22   ar
     5    11     3    1
     6    25    24   ar
     7     9     7    1
     8    22    15    1
     9    22    23   ar
    10    20    21    3
    11    21    14    1
    12    15    14   ar
    13    15    16   ar
    14    24    23   ar
    15    24    32    1
    16     3     4   ar
    17     3     2   ar
    18    14    13   ar
    19    16    12   ar
    20    18    17    1
    21     7     8    1
    22     7     2    1
    23    13    12   ar
    24    13    17    1
    25    12     4    1
    26    19    17    1
    27    23    28    1
    28    32    31    3
    29     4     5   ar
    30     2     1   ar
    31    29    28    1
    32    28    30    1
    33     1     5   ar
    34     1     6    1
