@<TRIPOS>MOLECULE
mol_data/opt/b3lyp/geoms/mol2/5hd5hd-5hd-5hd-.out
 42 45 0 0 0
SMALL
GASTEIGER

@<TRIPOS>ATOM
      1 C          -1.9688   -1.5595    1.4718 C.ar    1  LIG1       -0.0018
      2 C          -1.0621   -1.8803    0.4953 C.ar    1  LIG1        0.0499
      3 C          -0.4945   -0.6955   -0.1115 C.ar    1  LIG1        0.0876
      4 C          -0.9533    0.5032    0.4361 C.ar    1  LIG1        0.0469
      5 S          -2.0974    0.1576    1.7088 S.2     1  LIG1       -0.0929
      6 H          -2.5553   -2.2334    2.0792 H       1  LIG1        0.0712
      7 N          -0.6641   -3.1569    0.1246 N.pl3   1  LIG1       -0.3565
      8 H          -1.3139   -3.8950    0.3554 H       1  LIG1        0.1424
      9 H          -0.3066   -3.2421   -0.8181 H       1  LIG1        0.1424
     10 N           1.1271   -0.8766   -2.1147 N.1     1  LIG1       -0.1908
     11 C           0.3875   -0.7835   -1.2163 C.1     1  LIG1        0.1022
     12 C          -0.6181    1.8687    0.1045 C.ar    1  LIG1        0.0497
     13 C           0.6056    2.4468   -0.2231 C.ar    1  LIG1        0.0583
     14 C           0.4925    3.8780   -0.3991 C.ar    1  LIG1        0.0883
     15 C          -0.7797    4.4000   -0.1673 C.ar    1  LIG1        0.0475
     16 S          -1.8736    3.1049    0.2364 S.2     1  LIG1       -0.0839
     17 N           1.8268    1.8225   -0.3052 N.pl3   1  LIG1       -0.3561
     18 H           1.8507    0.8679   -0.6351 H       1  LIG1        0.1424
     19 H           2.5774    2.3850   -0.6832 H       1  LIG1        0.1424
     20 N           2.5295    5.2583   -1.1864 N.1     1  LIG1       -0.1908
     21 C           1.5992    4.6430   -0.8420 C.1     1  LIG1        0.1022
     22 C          -1.2603    5.7573   -0.2394 C.ar    1  LIG1        0.0497
     23 C          -0.6589    6.9571    0.1410 C.ar    1  LIG1        0.0583
     24 C          -1.5573    8.0796   -0.0191 C.ar    1  LIG1        0.0883
     25 C          -2.8338    7.7512   -0.4700 C.ar    1  LIG1        0.0475
     26 S          -2.9344    6.0336   -0.7392 S.2     1  LIG1       -0.0839
     27 N           0.5852    7.1315    0.6900 N.pl3   1  LIG1       -0.3561
     28 H           1.3290    6.5088    0.4077 H       1  LIG1        0.1424
     29 H           0.8887    8.0905    0.7925 H       1  LIG1        0.1424
     30 N          -0.7286   10.4848    0.4322 N.1     1  LIG1       -0.1908
     31 C          -1.1108    9.4041    0.2129 C.1     1  LIG1        0.1022
     32 C          -3.9736    8.5950   -0.7382 C.ar    1  LIG1        0.0491
     33 C          -4.4621    9.7054   -0.0442 C.ar    1  LIG1        0.0577
     34 C          -5.7194   10.1617   -0.6033 C.ar    1  LIG1        0.0800
     35 C          -6.1559    9.4115   -1.6680 C.ar    1  LIG1       -0.0045
     36 S          -5.0682    8.1486   -2.0546 S.2     1  LIG1       -0.0929
     37 H          -7.0514    9.5723   -2.2511 H       1  LIG1        0.0707
     38 N          -3.9502   10.2817    1.0882 N.pl3   1  LIG1       -0.3561
     39 H          -2.9487   10.2927    1.2190 H       1  LIG1        0.1424
     40 H          -4.4035   11.1352    1.3862 H       1  LIG1        0.1424
     41 N          -6.9343   12.2127    0.4018 N.1     1  LIG1       -0.1908
     42 C          -6.4133   11.2857   -0.0729 C.1     1  LIG1        0.1016
@<TRIPOS>BOND
     1    37    35    1
     2    10    11    3
     3    36    35   ar
     4    36    32   ar
     5    35    34   ar
     6    11     3    1
     7    20    21    3
     8    21    14    1
     9     9     7    1
    10    26    25   ar
    11    26    22   ar
    12    32    25    1
    13    32    33   ar
    14    19    17    1
    15    18    17    1
    16    34    42    1
    17    34    33   ar
    18    25    24   ar
    19    14    13   ar
    20    14    15   ar
    21    17    13    1
    22    22    15    1
    23    22    23   ar
    24    13    12   ar
    25    15    16   ar
    26     3     4   ar
    27     3     2   ar
    28    42    41    3
    29    33    38    1
    30    24    23   ar
    31    24    31    1
    32    12    16   ar
    33    12     4    1
    34     7     8    1
    35     7     2    1
    36    23    27    1
    37    31    30    3
    38    28    27    1
    39     4     5   ar
    40     2     1   ar
    41    27    29    1
    42    38    39    1
    43    38    40    1
    44     1     5   ar
    45     1     6    1
