@<TRIPOS>MOLECULE
mol_data/opt/b3lyp/geoms/mol2/5hd5hd-5hd5hd-.out
 42 45 0 0 0
SMALL
GASTEIGER

@<TRIPOS>ATOM
      1 C          -1.9568   -1.5564    1.4905 C.ar    1  LIG1       -0.0018
      2 C          -1.0565   -1.8788    0.5085 C.ar    1  LIG1        0.0499
      3 C          -0.4933   -0.6951   -0.1044 C.ar    1  LIG1        0.0876
      4 C          -0.9487    0.5046    0.4440 C.ar    1  LIG1        0.0469
      5 S          -2.0843    0.1611    1.7249 S.2     1  LIG1       -0.0929
      6 H          -2.5391   -2.2292    2.1030 H       1  LIG1        0.0712
      7 N          -0.6608   -3.1561    0.1376 N.pl3   1  LIG1       -0.3565
      8 H          -1.3086   -3.8940    0.3746 H       1  LIG1        0.1424
      9 H          -0.3093   -3.2431   -0.8072 H       1  LIG1        0.1424
     10 N           1.1151   -0.8799   -2.1177 N.1     1  LIG1       -0.1908
     11 C           0.3815   -0.7852   -1.2147 C.1     1  LIG1        0.1022
     12 C          -0.6161    1.8695    0.1076 C.ar    1  LIG1        0.0497
     13 C           0.6053    2.4474   -0.2292 C.ar    1  LIG1        0.0583
     14 C           0.4906    3.8782   -0.4072 C.ar    1  LIG1        0.0883
     15 C          -0.7802    4.4003   -0.1679 C.ar    1  LIG1        0.0475
     16 S          -1.8710    3.1056    0.2454 S.2     1  LIG1       -0.0839
     17 N           1.8260    1.8232   -0.3183 N.pl3   1  LIG1       -0.3561
     18 H           1.8480    0.8681   -0.6472 H       1  LIG1        0.1424
     19 H           2.5741    2.3853   -0.7019 H       1  LIG1        0.1424
     20 N           2.5223    5.2571   -1.2104 N.1     1  LIG1       -0.1908
     21 C           1.5942    4.6425   -0.8589 C.1     1  LIG1        0.1022
     22 C          -1.2619    5.7572   -0.2394 C.ar    1  LIG1        0.0497
     23 C          -0.6584    6.9581    0.1343 C.ar    1  LIG1        0.0583
     24 C          -1.5583    8.0799   -0.0221 C.ar    1  LIG1        0.0883
     25 C          -2.8377    7.7500   -0.4635 C.ar    1  LIG1        0.0475
     26 S          -2.9395    6.0318   -0.7282 S.2     1  LIG1       -0.0839
     27 N           0.5893    7.1343    0.6743 N.pl3   1  LIG1       -0.3561
     28 H           1.3313    6.5107    0.3891 H       1  LIG1        0.1424
     29 H           0.8935    8.0936    0.7719 H       1  LIG1        0.1424
     30 N          -0.7280   10.4865    0.4189 N.1     1  LIG1       -0.1908
     31 C          -1.1110    9.4051    0.2042 C.1     1  LIG1        0.1022
     32 C          -3.9797    8.5928   -0.7256 C.ar    1  LIG1        0.0491
     33 C          -4.4642    9.7040   -0.0302 C.ar    1  LIG1        0.0577
     34 C          -5.7253   10.1589   -0.5817 C.ar    1  LIG1        0.0800
     35 C          -6.1684    9.4069   -1.6424 C.ar    1  LIG1       -0.0045
     36 S          -5.0825    8.1441   -2.0343 S.2     1  LIG1       -0.0929
     37 H          -7.0677    9.5664   -2.2200 H       1  LIG1        0.0707
     38 N          -3.9451   10.2821    1.0981 N.pl3   1  LIG1       -0.3561
     39 H          -2.9426   10.2947    1.2214 H       1  LIG1        0.1424
     40 H          -4.3970   11.1357    1.3979 H       1  LIG1        0.1424
     41 N          -6.9347   12.2108    0.4282 N.1     1  LIG1       -0.1908
     42 C          -6.4163   11.2834   -0.0485 C.1     1  LIG1        0.1016
@<TRIPOS>BOND
     1    37    35    1
     2    10    11    3
     3    36    35   ar
     4    36    32   ar
     5    35    34   ar
     6    11     3    1
     7    20    21    3
     8    21    14    1
     9     9     7    1
    10    26    25   ar
    11    26    22   ar
    12    32    25    1
    13    32    33   ar
    14    19    17    1
    15    18    17    1
    16    34    42    1
    17    34    33   ar
    18    25    24   ar
    19    14    13   ar
    20    14    15   ar
    21    17    13    1
    22    22    15    1
    23    22    23   ar
    24    13    12   ar
    25    15    16   ar
    26     3     4   ar
    27     3     2   ar
    28    42    41    3
    29    33    38    1
    30    24    23   ar
    31    24    31    1
    32    12    16   ar
    33    12     4    1
    34    23    27    1
    35     7     8    1
    36     7     2    1
    37    31    30    3
    38    28    27    1
    39     4     5   ar
    40     2     1   ar
    41    27    29    1
    42    38    39    1
    43    38    40    1
    44     1     5   ar
    45     1     6    1
