@<TRIPOS>MOLECULE
mol_data/opt/b3lyp/geoms/mol2/5he.out
 13 13 0 0 0
SMALL
GASTEIGER

@<TRIPOS>ATOM
      1 C          -2.1424   -1.7040   -0.0464 C.ar    1  LIG1       -0.0024
      2 C          -0.7712   -1.6916   -0.0460 C.ar    1  LIG1        0.0472
      3 C          -0.2430   -0.3399    0.0007 C.ar    1  LIG1        0.0523
      4 C          -1.2386    0.6101    0.0449 C.ar    1  LIG1       -0.0071
      5 S          -2.8084   -0.0965    0.0256 S.2     1  LIG1       -0.1020
      6 H          -2.7987   -2.5620   -0.0628 H       1  LIG1        0.0712
      7 H          -1.1127    1.6823    0.0788 H       1  LIG1        0.0706
      8 N           0.0697   -2.8010   -0.0276 N.pl3   1  LIG1       -0.3566
      9 H          -0.3165   -3.6364   -0.4448 H       1  LIG1        0.1424
     10 H           1.0052   -2.6058   -0.3618 H       1  LIG1        0.1424
     11 C           1.1510   -0.0636   -0.0141 C.1     1  LIG1       -0.0673
     12 C           2.3485    0.1187   -0.0423 C.1     1  LIG1       -0.1138
     13 H           3.3972    0.3060   -0.0515 H       1  LIG1        0.1232
@<TRIPOS>BOND
     1     9     8    1
     2    10     8    1
     3     6     1    1
     4    13    12    1
     5     1     2   ar
     6     1     5   ar
     7     2     8    1
     8     2     3   ar
     9    12    11    3
    10    11     3    1
    11     3     4   ar
    12     5     4   ar
    13     4     7    1
