@<TRIPOS>MOLECULE
mol_data/opt/b3lyp/geoms/mol2/5he5he-5he.out
 35 37 0 0 0
SMALL
GASTEIGER

@<TRIPOS>ATOM
      1 C          -2.0108   -1.6843    1.0685 C.ar    1  LIG1       -0.0018
      2 C          -0.8468   -1.8945    0.3787 C.ar    1  LIG1        0.0479
      3 C          -0.2487   -0.6547   -0.0756 C.ar    1  LIG1        0.0606
      4 C          -0.9620    0.4784    0.3128 C.ar    1  LIG1        0.0449
      5 S          -2.3747    0.0085    1.2322 S.2     1  LIG1       -0.0930
      6 H          -2.6674   -2.4244    1.5026 H       1  LIG1        0.0712
      7 N          -0.2374   -3.1243    0.1413 N.pl3   1  LIG1       -0.3566
      8 H          -0.8689   -3.9135    0.1340 H       1  LIG1        0.1424
      9 H           0.3766   -3.1245   -0.6639 H       1  LIG1        0.1424
     10 C           0.8974   -0.6545   -0.9098 C.1     1  LIG1       -0.0667
     11 C           1.8849   -0.7050   -1.6143 C.1     1  LIG1       -0.1138
     12 H           2.7242   -0.7318   -2.2702 H       1  LIG1        0.1232
     13 C          -0.6828    1.8765    0.0710 C.ar    1  LIG1        0.0496
     14 C           0.5195    2.5673    0.1401 C.ar    1  LIG1        0.0563
     15 C           0.3604    3.9844   -0.1139 C.ar    1  LIG1        0.0612
     16 C          -0.9594    4.3746   -0.3262 C.ar    1  LIG1        0.0455
     17 S          -2.0163    2.9879   -0.2518 S.2     1  LIG1       -0.0840
     18 N           1.7485    2.0455    0.4868 N.pl3   1  LIG1       -0.3561
     19 H           1.9285    1.0918    0.2016 H       1  LIG1        0.1424
     20 H           2.5250    2.6679    0.3041 H       1  LIG1        0.1424
     21 C           1.4875    4.8399   -0.2014 C.1     1  LIG1       -0.0666
     22 C           2.4816    5.5351   -0.2539 C.1     1  LIG1       -0.1138
     23 H           3.3453    6.1510   -0.3547 H       1  LIG1        0.1232
     24 C          -1.5023    5.6891   -0.5871 C.ar    1  LIG1        0.0490
     25 C          -1.1988    6.9091    0.0084 C.ar    1  LIG1        0.0556
     26 C          -2.0499    7.9804   -0.4753 C.ar    1  LIG1        0.0529
     27 C          -2.9761    7.5507   -1.3960 C.ar    1  LIG1       -0.0065
     28 S          -2.8406    5.8708   -1.7279 S.2     1  LIG1       -0.0930
     29 H          -3.7109    8.1573   -1.9054 H       1  LIG1        0.0706
     30 N          -0.2916    7.1328    1.0204 N.pl3   1  LIG1       -0.3561
     31 H           0.5438    6.5629    1.0187 H       1  LIG1        0.1424
     32 H          -0.1145    8.1114    1.2060 H       1  LIG1        0.1424
     33 C          -1.9145    9.3197   -0.0193 C.1     1  LIG1       -0.0673
     34 C          -1.7547   10.4463    0.3966 C.1     1  LIG1       -0.1138
     35 H          -1.6409   11.4447    0.7509 H       1  LIG1        0.1232
@<TRIPOS>BOND
     1    12    11    1
     2    29    27    1
     3    28    27   ar
     4    28    24   ar
     5    11    10    3
     6    27    26   ar
     7    10     3    1
     8     9     7    1
     9    24    16    1
    10    24    25   ar
    11    26    33    1
    12    26    25   ar
    13    23    22    1
    14    16    17   ar
    15    16    15   ar
    16    22    21    3
    17    17    13   ar
    18    21    15    1
    19    15    14   ar
    20     3     4   ar
    21     3     2   ar
    22    33    34    3
    23    25    30    1
    24    13    14   ar
    25    13     4    1
    26     8     7    1
    27    14    18    1
    28     7     2    1
    29    19    18    1
    30    20    18    1
    31     4     5   ar
    32     2     1   ar
    33    34    35    1
    34    31    30    1
    35    30    32    1
    36     1     5   ar
    37     1     6    1
