@<TRIPOS>MOLECULE
mol_data/opt/b3lyp/geoms/mol2/5he5he-5he-.out
 35 37 0 0 0
SMALL
GASTEIGER

@<TRIPOS>ATOM
      1 C          -2.0110   -1.6891    1.0529 C.ar    1  LIG1       -0.0018
      2 C          -0.8460   -1.8963    0.3641 C.ar    1  LIG1        0.0479
      3 C          -0.2474   -0.6547   -0.0846 C.ar    1  LIG1        0.0606
      4 C          -0.9617    0.4768    0.3070 C.ar    1  LIG1        0.0449
      5 S          -2.3757    0.0030    1.2223 S.2     1  LIG1       -0.0930
      6 H          -2.6680   -2.4310    1.4833 H       1  LIG1        0.0712
      7 N          -0.2358   -3.1251    0.1230 N.pl3   1  LIG1       -0.3566
      8 H          -0.8672   -3.9143    0.1115 H       1  LIG1        0.1424
      9 H           0.3792   -3.1221   -0.6814 H       1  LIG1        0.1424
     10 C           0.8997   -0.6512   -0.9173 C.1     1  LIG1       -0.0667
     11 C           1.8881   -0.6991   -1.6207 C.1     1  LIG1       -0.1138
     12 H           2.7282   -0.7234   -2.2757 H       1  LIG1        0.1232
     13 C          -0.6824    1.8759    0.0713 C.ar    1  LIG1        0.0496
     14 C           0.5197    2.5666    0.1438 C.ar    1  LIG1        0.0563
     15 C           0.3605    3.9846   -0.1047 C.ar    1  LIG1        0.0612
     16 C          -0.9592    4.3754   -0.3163 C.ar    1  LIG1        0.0455
     17 S          -2.0159    2.9883   -0.2481 S.2     1  LIG1       -0.0840
     18 N           1.7487    2.0438    0.4893 N.pl3   1  LIG1       -0.3561
     19 H           1.9293    1.0914    0.2003 H       1  LIG1        0.1424
     20 H           2.5249    2.6673    0.3098 H       1  LIG1        0.1424
     21 C           1.4872    4.8410   -0.1879 C.1     1  LIG1       -0.0666
     22 C           2.4809    5.5369   -0.2368 C.1     1  LIG1       -0.1138
     23 H           3.3443    6.1538   -0.3348 H       1  LIG1        0.1232
     24 C          -1.5020    5.6910   -0.5720 C.ar    1  LIG1        0.0490
     25 C          -1.1992    6.9084    0.0293 C.ar    1  LIG1        0.0556
     26 C          -2.0497    7.9818   -0.4506 C.ar    1  LIG1        0.0529
     27 C          -2.9749    7.5562   -1.3742 C.ar    1  LIG1       -0.0065
     28 S          -2.8390    5.8779   -1.7136 S.2     1  LIG1       -0.0930
     29 H          -3.7092    8.1650   -1.8817 H       1  LIG1        0.0706
     30 N          -0.2931    7.1274    1.0434 N.pl3   1  LIG1       -0.3561
     31 H           0.5426    6.5579    1.0393 H       1  LIG1        0.1424
     32 H          -0.1163    8.1052    1.2334 H       1  LIG1        0.1424
     33 C          -1.9149    9.3190    0.0116 C.1     1  LIG1       -0.0673
     34 C          -1.7556   10.4438    0.4327 C.1     1  LIG1       -0.1138
     35 H          -1.6423   11.4406    0.7916 H       1  LIG1        0.1232
@<TRIPOS>BOND
     1    12    11    1
     2    29    27    1
     3    28    27   ar
     4    28    24   ar
     5    11    10    3
     6    27    26   ar
     7    10     3    1
     8     9     7    1
     9    24    16    1
    10    24    25   ar
    11    26    33    1
    12    26    25   ar
    13    23    22    1
    14    16    17   ar
    15    16    15   ar
    16    17    13   ar
    17    22    21    3
    18    21    15    1
    19    15    14   ar
    20     3     4   ar
    21     3     2   ar
    22    33    34    3
    23    25    30    1
    24    13    14   ar
    25    13     4    1
    26     8     7    1
    27     7     2    1
    28    14    18    1
    29    19    18    1
    30     4     5   ar
    31    20    18    1
    32     2     1   ar
    33    34    35    1
    34    31    30    1
    35    30    32    1
    36     1     5   ar
    37     1     6    1
