@<TRIPOS>MOLECULE
mol_data/opt/b3lyp/geoms/mol2/5he5he-5he5he.out
 46 49 0 0 0
SMALL
GASTEIGER

@<TRIPOS>ATOM
      1 C          -1.8378   -1.5173    1.7346 C.ar    1  LIG1       -0.0018
      2 C          -0.9496   -1.8186    0.7371 C.ar    1  LIG1        0.0479
      3 C          -0.4134   -0.6298    0.1045 C.ar    1  LIG1        0.0606
      4 C          -0.8863    0.5561    0.6650 C.ar    1  LIG1        0.0449
      5 S          -1.9989    0.1987    1.9675 S.2     1  LIG1       -0.0930
      6 H          -2.3956   -2.2033    2.3557 H       1  LIG1        0.0712
      7 N          -0.5390   -3.0933    0.3536 N.pl3   1  LIG1       -0.3566
      8 H          -1.2078   -3.8267    0.5449 H       1  LIG1        0.1424
      9 H          -0.1904   -3.1389   -0.5960 H       1  LIG1        0.1424
     10 C           0.4305   -0.7190   -1.0308 C.1     1  LIG1       -0.0667
     11 C           1.1580   -0.8456   -1.9946 C.1     1  LIG1       -0.1138
     12 H           1.7599   -0.9364   -2.8690 H       1  LIG1        0.1232
     13 C          -0.5782    1.9274    0.3257 C.ar    1  LIG1        0.0496
     14 C           0.6429    2.5146    0.0232 C.ar    1  LIG1        0.0563
     15 C           0.5326    3.9407   -0.2029 C.ar    1  LIG1        0.0612
     16 C          -0.7552    4.4429   -0.0234 C.ar    1  LIG1        0.0455
     17 S          -1.8521    3.1481    0.3886 S.2     1  LIG1       -0.0840
     18 N           1.8725    1.8893    0.0034 N.pl3   1  LIG1       -0.3561
     19 H           1.8812    0.9255   -0.3037 H       1  LIG1        0.1424
     20 H           2.6085    2.4451   -0.4126 H       1  LIG1        0.1424
     21 C           1.6487    4.6935   -0.6463 C.1     1  LIG1       -0.0666
     22 C           2.6366    5.2970   -1.0129 C.1     1  LIG1       -0.1138
     23 H           3.4783    5.8328   -1.3871 H       1  LIG1        0.1232
     24 C          -1.2456    5.7961   -0.1406 C.ar    1  LIG1        0.0496
     25 C          -0.6790    6.9897    0.2907 C.ar    1  LIG1        0.0563
     26 C          -1.5354    8.1311    0.0435 C.ar    1  LIG1        0.0612
     27 C          -2.7633    7.8025   -0.5255 C.ar    1  LIG1        0.0455
     28 S          -2.8619    6.0811   -0.7949 S.2     1  LIG1       -0.0840
     29 N           0.5148    7.1389    0.9620 N.pl3   1  LIG1       -0.3561
     30 H           1.2531    6.4894    0.7250 H       1  LIG1        0.1424
     31 H           0.8308    8.0970    1.0350 H       1  LIG1        0.1424
     32 C          -1.0844    9.4493    0.3057 C.1     1  LIG1       -0.0666
     33 C          -0.6588   10.5578    0.5590 C.1     1  LIG1       -0.1138
     34 H          -0.2836   11.5411    0.7264 H       1  LIG1        0.1232
     35 C          -3.8676    8.6589   -0.8951 C.ar    1  LIG1        0.0490
     36 C          -4.4307    9.7289   -0.2066 C.ar    1  LIG1        0.0556
     37 C          -5.6006   10.2587   -0.8824 C.ar    1  LIG1        0.0529
     38 C          -5.9033    9.5766   -2.0371 C.ar    1  LIG1       -0.0065
     39 S          -4.7918    8.3079   -2.3609 S.2     1  LIG1       -0.0930
     40 H          -6.7166    9.7856   -2.7169 H       1  LIG1        0.0706
     41 N          -4.0509   10.2124    1.0252 N.pl3   1  LIG1       -0.3561
     42 H          -3.0650   10.1765    1.2475 H       1  LIG1        0.1424
     43 H          -4.4945   11.0848    1.2811 H       1  LIG1        0.1424
     44 C          -6.3342   11.3640   -0.3725 C.1     1  LIG1       -0.0673
     45 C          -6.9215   12.3121    0.1005 C.1     1  LIG1       -0.1138
     46 H          -7.4616   13.1400    0.4983 H       1  LIG1        0.1232
@<TRIPOS>BOND
     1    12    11    1
     2    40    38    1
     3    39    38   ar
     4    39    35   ar
     5    38    37   ar
     6    11    10    3
     7    23    22    1
     8    10     3    1
     9    22    21    3
    10    35    27    1
    11    35    36   ar
    12    37    44    1
    13    37    36   ar
    14    28    27   ar
    15    28    24   ar
    16    21    15    1
    17     9     7    1
    18    27    26   ar
    19    20    18    1
    20    44    45    3
    21    19    18    1
    22    36    41    1
    23    15    16   ar
    24    15    14   ar
    25    24    16    1
    26    24    25   ar
    27    16    17   ar
    28    18    14    1
    29    14    13   ar
    30    26    25   ar
    31    26    32    1
    32    45    46    1
    33     3     4   ar
    34     3     2   ar
    35    25    29    1
    36    32    33    3
    37    13    17   ar
    38    13     4    1
    39     7     8    1
    40     7     2    1
    41    33    34    1
    42     4     5   ar
    43    30    29    1
    44     2     1   ar
    45    29    31    1
    46    41    42    1
    47    41    43    1
    48     1     5   ar
    49     1     6    1
