@<TRIPOS>MOLECULE
mol_data/opt/b3lyp/geoms/mol2/5he5he5he.out
 35 37 0 0 0
SMALL
GASTEIGER

@<TRIPOS>ATOM
      1 C          -2.0267   -1.6815    1.0541 C.ar    1  LIG1       -0.0018
      2 C          -0.8545   -1.8935    0.3789 C.ar    1  LIG1        0.0479
      3 C          -0.2503   -0.6550   -0.0706 C.ar    1  LIG1        0.0606
      4 C          -0.9678    0.4793    0.3069 C.ar    1  LIG1        0.0449
      5 S          -2.3918    0.0118    1.2099 S.2     1  LIG1       -0.0930
      6 H          -2.6890   -2.4205    1.4814 H       1  LIG1        0.0712
      7 N          -0.2428   -3.1240    0.1512 N.pl3   1  LIG1       -0.3566
      8 H          -0.8744   -3.9130    0.1378 H       1  LIG1        0.1424
      9 H           0.3812   -3.1261   -0.6461 H       1  LIG1        0.1424
     10 C           0.9060   -0.6567   -0.8905 C.1     1  LIG1       -0.0667
     11 C           1.9020   -0.7090   -1.5828 C.1     1  LIG1       -0.1138
     12 H           2.7493   -0.7372   -2.2282 H       1  LIG1        0.1232
     13 C          -0.6849    1.8768    0.0656 C.ar    1  LIG1        0.0496
     14 C           0.5167    2.5671    0.1483 C.ar    1  LIG1        0.0563
     15 C           0.3615    3.9836   -0.1110 C.ar    1  LIG1        0.0612
     16 C          -0.9552    4.3739   -0.3411 C.ar    1  LIG1        0.0455
     17 S          -2.0137    2.9880   -0.2768 S.2     1  LIG1       -0.0840
     18 N           1.7410    2.0455    0.5119 N.pl3   1  LIG1       -0.3561
     19 H           1.9239    1.0911    0.2311 H       1  LIG1        0.1424
     20 H           2.5199    2.6670    0.3372 H       1  LIG1        0.1424
     21 C           1.4901    4.8385   -0.1863 C.1     1  LIG1       -0.0666
     22 C           2.4850    5.5331   -0.2276 C.1     1  LIG1       -0.1138
     23 H           3.3500    6.1487   -0.3192 H       1  LIG1        0.1232
     24 C          -1.4942    5.6882   -0.6114 C.ar    1  LIG1        0.0490
     25 C          -1.1974    6.9094   -0.0150 C.ar    1  LIG1        0.0556
     26 C          -2.0417    7.9800   -0.5118 C.ar    1  LIG1        0.0529
     27 C          -2.9566    7.5486   -1.4431 C.ar    1  LIG1       -0.0065
     28 S          -2.8179    5.8680   -1.7693 S.2     1  LIG1       -0.0930
     29 H          -3.6847    8.1545   -1.9630 H       1  LIG1        0.0706
     30 N          -0.3029    7.1350    1.0079 N.pl3   1  LIG1       -0.3561
     31 H           0.5320    6.5644    1.0179 H       1  LIG1        0.1424
     32 H          -0.1271    8.1140    1.1927 H       1  LIG1        0.1424
     33 C          -1.9113    9.3203   -0.0573 C.1     1  LIG1       -0.0673
     34 C          -1.7562   10.4478    0.3579 C.1     1  LIG1       -0.1138
     35 H          -1.6462   11.4469    0.7115 H       1  LIG1        0.1232
@<TRIPOS>BOND
     1    12    11    1
     2    29    27    1
     3    28    27   ar
     4    28    24   ar
     5    11    10    3
     6    27    26   ar
     7    10     3    1
     8     9     7    1
     9    24    16    1
    10    24    25   ar
    11    26    33    1
    12    26    25   ar
    13    16    17   ar
    14    16    15   ar
    15    23    22    1
    16    17    13   ar
    17    22    21    3
    18    21    15    1
    19    15    14   ar
    20     3     4   ar
    21     3     2   ar
    22    33    34    3
    23    25    30    1
    24    13    14   ar
    25    13     4    1
    26     8     7    1
    27    14    18    1
    28     7     2    1
    29    19    18    1
    30     4     5   ar
    31    20    18    1
    32    34    35    1
    33     2     1   ar
    34    30    31    1
    35    30    32    1
    36     1     5   ar
    37     1     6    1
