@<TRIPOS>MOLECULE
mol_data/opt/b3lyp/geoms/mol2/5he5he5he-5he.out
 46 49 0 0 0
SMALL
GASTEIGER

@<TRIPOS>ATOM
      1 C          -1.8732   -1.5166    1.7085 C.ar    1  LIG1       -0.0018
      2 C          -0.9684   -1.8188    0.7263 C.ar    1  LIG1        0.0479
      3 C          -0.4205   -0.6306    0.1029 C.ar    1  LIG1        0.0606
      4 C          -0.9019    0.5558    0.6550 C.ar    1  LIG1        0.0449
      5 S          -2.0368    0.1996    1.9383 S.2     1  LIG1       -0.0930
      6 H          -2.4420   -2.2020    2.3202 H       1  LIG1        0.0712
      7 N          -0.5523   -3.0940    0.3502 N.pl3   1  LIG1       -0.3566
      8 H          -1.2250   -3.8266    0.5302 H       1  LIG1        0.1424
      9 H          -0.1881   -3.1401   -0.5935 H       1  LIG1        0.1424
     10 C           0.4431   -0.7204   -1.0175 C.1     1  LIG1       -0.0667
     11 C           1.1869   -0.8477   -1.9687 C.1     1  LIG1       -0.1138
     12 H           1.8045   -0.9394   -2.8321 H       1  LIG1        0.1232
     13 C          -0.5870    1.9268    0.3206 C.ar    1  LIG1        0.0496
     14 C           0.6398    2.5129    0.0402 C.ar    1  LIG1        0.0563
     15 C           0.5347    3.9390   -0.1884 C.ar    1  LIG1        0.0612
     16 C          -0.7557    4.4423   -0.0323 C.ar    1  LIG1        0.0455
     17 S          -1.8609    3.1484    0.3600 S.2     1  LIG1       -0.0840
     18 N           1.8691    1.8865    0.0428 N.pl3   1  LIG1       -0.3561
     19 H           1.8822    0.9228   -0.2648 H       1  LIG1        0.1424
     20 H           2.6128    2.4416   -0.3602 H       1  LIG1        0.1424
     21 C           1.6592    4.6909   -0.6117 C.1     1  LIG1       -0.0666
     22 C           2.6542    5.2933   -0.9604 C.1     1  LIG1       -0.1138
     23 H           3.5030    5.8284   -1.3191 H       1  LIG1        0.1232
     24 C          -1.2430    5.7958   -0.1592 C.ar    1  LIG1        0.0496
     25 C          -0.6834    6.9892    0.2815 C.ar    1  LIG1        0.0563
     26 C          -1.5343    8.1311    0.0181 C.ar    1  LIG1        0.0612
     27 C          -2.7520    7.8031   -0.5727 C.ar    1  LIG1        0.0455
     28 S          -2.8470    6.0816   -0.8428 S.2     1  LIG1       -0.0840
     29 N           0.4982    7.1379    0.9743 N.pl3   1  LIG1       -0.3561
     30 H           1.2401    6.4877    0.7511 H       1  LIG1        0.1424
     31 H           0.8134    8.0959    1.0524 H       1  LIG1        0.1424
     32 C          -1.0867    9.4491    0.2874 C.1     1  LIG1       -0.0666
     33 C          -0.6643   10.5572    0.5475 C.1     1  LIG1       -0.1138
     34 H          -0.2908   11.5401    0.7211 H       1  LIG1        0.1232
     35 C          -3.8489    8.6600   -0.9628 C.ar    1  LIG1        0.0490
     36 C          -4.4232    9.7314   -0.2858 C.ar    1  LIG1        0.0556
     37 C          -5.5806   10.2611   -0.9828 C.ar    1  LIG1        0.0529
     38 C          -5.8635    9.5775   -2.1417 C.ar    1  LIG1       -0.0065
     39 S          -4.7476    8.3075   -2.4441 S.2     1  LIG1       -0.0930
     40 H          -6.6646    9.7862   -2.8360 H       1  LIG1        0.0706
     41 N          -4.0649   10.2165    0.9517 N.pl3   1  LIG1       -0.3561
     42 H          -3.0833   10.1794    1.1920 H       1  LIG1        0.1424
     43 H          -4.5122   11.0895    1.1986 H       1  LIG1        0.1424
     44 C          -6.3222   11.3676   -0.4875 C.1     1  LIG1       -0.0673
     45 C          -6.9170   12.3169   -0.0262 C.1     1  LIG1       -0.1138
     46 H          -7.4632   13.1458    0.3608 H       1  LIG1        0.1232
@<TRIPOS>BOND
     1    40    38    1
     2    12    11    1
     3    39    38   ar
     4    39    35   ar
     5    38    37   ar
     6    11    10    3
     7    23    22    1
     8    10     3    1
     9    37    44    1
    10    37    36   ar
    11    35    27    1
    12    35    36   ar
    13    22    21    3
    14    28    27   ar
    15    28    24   ar
    16    21    15    1
    17     9     7    1
    18    27    26   ar
    19    44    45    3
    20    20    18    1
    21    36    41    1
    22    19    18    1
    23    15    16   ar
    24    15    14   ar
    25    24    16    1
    26    24    25   ar
    27    16    17   ar
    28    45    46    1
    29    26    25   ar
    30    26    32    1
    31    14    18    1
    32    14    13   ar
    33     3     4   ar
    34     3     2   ar
    35    25    29    1
    36    32    33    3
    37    13    17   ar
    38    13     4    1
    39     7     8    1
    40     7     2    1
    41    33    34    1
    42     4     5   ar
    43     2     1   ar
    44    30    29    1
    45    41    42    1
    46    41    43    1
    47    29    31    1
    48     1     5   ar
    49     1     6    1
