@<TRIPOS>MOLECULE
mol_data/opt/b3lyp/geoms/mol2/5he5he5he-.out
 35 37 0 0 0
SMALL
GASTEIGER

@<TRIPOS>ATOM
      1 C          -2.0302   -1.6850    1.0377 C.ar    1  LIG1       -0.0018
      2 C          -0.8571   -1.8950    0.3636 C.ar    1  LIG1        0.0479
      3 C          -0.2516   -0.6550   -0.0801 C.ar    1  LIG1        0.0606
      4 C          -0.9691    0.4781    0.3006 C.ar    1  LIG1        0.0449
      5 S          -2.3947    0.0078    1.1997 S.2     1  LIG1       -0.0930
      6 H          -2.6934   -2.4253    1.4614 H       1  LIG1        0.0712
      7 N          -0.2456   -3.1250    0.1323 N.pl3   1  LIG1       -0.3566
      8 H          -0.8777   -3.9136    0.1150 H       1  LIG1        0.1424
      9 H           0.3792   -3.1244   -0.6645 H       1  LIG1        0.1424
     10 C           0.9058   -0.6544   -0.8985 C.1     1  LIG1       -0.0667
     11 C           1.9028   -0.7047   -1.5895 C.1     1  LIG1       -0.1138
     12 H           2.7510   -0.7311   -2.2338 H       1  LIG1        0.1232
     13 C          -0.6853    1.8763    0.0653 C.ar    1  LIG1        0.0496
     14 C           0.5165    2.5658    0.1523 C.ar    1  LIG1        0.0563
     15 C           0.3622    3.9836   -0.1009 C.ar    1  LIG1        0.0612
     16 C          -0.9542    4.3754   -0.3306 C.ar    1  LIG1        0.0455
     17 S          -2.0132    2.9896   -0.2735 S.2     1  LIG1       -0.0840
     18 N           1.7402    2.0421    0.5149 N.pl3   1  LIG1       -0.3561
     19 H           1.9233    1.0890    0.2298 H       1  LIG1        0.1424
     20 H           2.5195    2.6643    0.3445 H       1  LIG1        0.1424
     21 C           1.4912    4.8383   -0.1714 C.1     1  LIG1       -0.0666
     22 C           2.4865    5.5326   -0.2089 C.1     1  LIG1       -0.1138
     23 H           3.3521    6.1479   -0.2969 H       1  LIG1        0.1232
     24 C          -1.4922    5.6910   -0.5962 C.ar    1  LIG1        0.0490
     25 C          -1.1955    6.9096    0.0057 C.ar    1  LIG1        0.0556
     26 C          -2.0389    7.9827   -0.4873 C.ar    1  LIG1        0.0529
     27 C          -2.9531    7.5557   -1.4212 C.ar    1  LIG1       -0.0065
     28 S          -2.8148    5.8764   -1.7546 S.2     1  LIG1       -0.0930
     29 H          -3.6803    8.1640   -1.9393 H       1  LIG1        0.0706
     30 N          -0.3019    7.1303    1.0305 N.pl3   1  LIG1       -0.3561
     31 H           0.5329    6.5595    1.0389 H       1  LIG1        0.1424
     32 H          -0.1263    8.1084    1.2201 H       1  LIG1        0.1424
     33 C          -1.9083    9.3209   -0.0269 C.1     1  LIG1       -0.0673
     34 C          -1.7529   10.4466    0.3932 C.1     1  LIG1       -0.1138
     35 H          -1.6429   11.4441    0.7510 H       1  LIG1        0.1232
@<TRIPOS>BOND
     1    12    11    1
     2    29    27    1
     3    28    27   ar
     4    28    24   ar
     5    11    10    3
     6    27    26   ar
     7    10     3    1
     8     9     7    1
     9    24    16    1
    10    24    25   ar
    11    26    33    1
    12    26    25   ar
    13    16    17   ar
    14    16    15   ar
    15    23    22    1
    16    17    13   ar
    17    22    21    3
    18    21    15    1
    19    15    14   ar
    20     3     4   ar
    21     3     2   ar
    22    33    34    3
    23    25    30    1
    24    13    14   ar
    25    13     4    1
    26     8     7    1
    27     7     2    1
    28    14    18    1
    29    19    18    1
    30     4     5   ar
    31    20    18    1
    32     2     1   ar
    33    34    35    1
    34    30    31    1
    35    30    32    1
    36     1     5   ar
    37     1     6    1
