@<TRIPOS>MOLECULE
mol_data/opt/b3lyp/geoms/mol2/5he5he-.out
 24 25 0 0 0
SMALL
GASTEIGER

@<TRIPOS>ATOM
      1 C          -2.1053   -1.7124   -0.6288 C.ar    1  LIG1       -0.0018
      2 C          -0.7940   -1.8421   -0.2554 C.ar    1  LIG1        0.0479
      3 C          -0.1964   -0.5700    0.1036 C.ar    1  LIG1        0.0606
      4 C          -1.0770    0.5030   -0.0133 C.ar    1  LIG1        0.0449
      5 S          -2.6378   -0.0578   -0.5738 S.2     1  LIG1       -0.0930
      6 H          -2.7976   -2.4968   -0.8989 H       1  LIG1        0.0712
      7 N          -0.0865   -3.0340   -0.1283 N.pl3   1  LIG1       -0.3566
      8 H          -0.3905   -3.7804   -0.7375 H       1  LIG1        0.1424
      9 H           0.9185   -2.9152   -0.1351 H       1  LIG1        0.1424
     10 C           1.1368   -0.4954    0.5837 C.1     1  LIG1       -0.0667
     11 C           2.2880   -0.4906    0.9638 C.1     1  LIG1       -0.1138
     12 H           3.2836   -0.4489    1.3405 H       1  LIG1        0.1232
     13 C          -0.8534    1.9148    0.2229 C.ar    1  LIG1        0.0489
     14 C           0.2078    2.7174   -0.1731 C.ar    1  LIG1        0.0556
     15 C           0.0058    4.1110    0.1737 C.ar    1  LIG1        0.0529
     16 C          -1.1901    4.3279    0.8173 C.ar    1  LIG1       -0.0065
     17 S          -2.0884    2.8798    1.0388 S.2     1  LIG1       -0.0930
     18 H          -1.5673    5.2741    1.1775 H       1  LIG1        0.0706
     19 N           1.3550    2.3149   -0.8177 N.pl3   1  LIG1       -0.3561
     20 H           1.3667    1.3822   -1.2007 H       1  LIG1        0.1424
     21 H           1.8103    3.0201   -1.3800 H       1  LIG1        0.1424
     22 C           0.9491    5.1212   -0.1566 C.1     1  LIG1       -0.0673
     23 C           1.7741    5.9506   -0.4715 C.1     1  LIG1       -0.1138
     24 H           2.4920    6.6961   -0.7240 H       1  LIG1        0.1232
@<TRIPOS>BOND
     1    21    19    1
     2    20    19    1
     3     6     1    1
     4    19    14    1
     5     8     7    1
     6    24    23    1
     7     1     5   ar
     8     1     2   ar
     9     5     4   ar
    10    23    22    3
    11     2     7    1
    12     2     3   ar
    13    14    15   ar
    14    14    13   ar
    15    22    15    1
    16     9     7    1
    17     4     3   ar
    18     4    13    1
    19     3    10    1
    20    15    16   ar
    21    13    17   ar
    22    10    11    3
    23    16    17   ar
    24    16    18    1
    25    11    12    1
