@<TRIPOS>MOLECULE
mol_data/opt/b3lyp/geoms/mol2/5he5he5he5he-.out
 46 49 0 0 0
SMALL
GASTEIGER

@<TRIPOS>ATOM
      1 C          -1.8581   -1.5101    1.7352 C.ar    1  LIG1       -0.0018
      2 C          -0.9599   -1.8156    0.7479 C.ar    1  LIG1        0.0479
      3 C          -0.4171   -0.6296    0.1159 C.ar    1  LIG1        0.0606
      4 C          -0.8954    0.5587    0.6667 C.ar    1  LIG1        0.0449
      5 S          -2.0210    0.2069    1.9594 S.2     1  LIG1       -0.0930
      6 H          -2.4221   -2.1934    2.3536 H       1  LIG1        0.0712
      7 N          -0.5457   -3.0921    0.3740 N.pl3   1  LIG1       -0.3566
      8 H          -1.2167   -3.8244    0.5617 H       1  LIG1        0.1424
      9 H          -0.1883   -3.1418   -0.5721 H       1  LIG1        0.1424
     10 C           0.4383   -0.7235   -1.0104 C.1     1  LIG1       -0.0667
     11 C           1.1752   -0.8544   -1.9664 C.1     1  LIG1       -0.1138
     12 H           1.7862   -0.9489   -2.8342 H       1  LIG1        0.1232
     13 C          -0.5836    1.9285    0.3246 C.ar    1  LIG1        0.0496
     14 C           0.6409    2.5141    0.0328 C.ar    1  LIG1        0.0563
     15 C           0.5334    3.9393   -0.2005 C.ar    1  LIG1        0.0612
     16 C          -0.7560    4.4426   -0.0367 C.ar    1  LIG1        0.0455
     17 S          -1.8576    3.1498    0.3688 S.2     1  LIG1       -0.0840
     18 N           1.8704    1.8882    0.0287 N.pl3   1  LIG1       -0.3561
     19 H           1.8819    0.9232   -0.2746 H       1  LIG1        0.1424
     20 H           2.6110    2.4419   -0.3819 H       1  LIG1        0.1424
     21 C           1.6545    4.6900   -0.6350 C.1     1  LIG1       -0.0666
     22 C           2.6466    5.2917   -0.9931 C.1     1  LIG1       -0.1138
     23 H           3.4924    5.8256   -1.3605 H       1  LIG1        0.1232
     24 C          -1.2447    5.7954   -0.1653 C.ar    1  LIG1        0.0496
     25 C          -0.6823    6.9905    0.2673 C.ar    1  LIG1        0.0563
     26 C          -1.5354    8.1313    0.0057 C.ar    1  LIG1        0.0612
     27 C          -2.7571    7.8008   -0.5753 C.ar    1  LIG1        0.0455
     28 S          -2.8535    6.0783   -0.8385 S.2     1  LIG1       -0.0840
     29 N           0.5041    7.1419    0.9511 N.pl3   1  LIG1       -0.3561
     30 H           1.2446    6.4911    0.7251 H       1  LIG1        0.1424
     31 H           0.8197    8.1003    1.0238 H       1  LIG1        0.1424
     32 C          -1.0862    9.4503    0.2672 C.1     1  LIG1       -0.0666
     33 C          -0.6623   10.5595    0.5206 C.1     1  LIG1       -0.1138
     34 H          -0.2878   11.5430    0.6878 H       1  LIG1        0.1232
     35 C          -3.8570    8.6559   -0.9607 C.ar    1  LIG1        0.0490
     36 C          -4.4269    9.7296   -0.2834 C.ar    1  LIG1        0.0556
     37 C          -5.5896   10.2563   -0.9739 C.ar    1  LIG1        0.0529
     38 C          -5.8806    9.5685   -2.1282 C.ar    1  LIG1       -0.0065
     39 S          -4.7662    8.2979   -2.4342 S.2     1  LIG1       -0.0930
     40 H          -6.6867    9.7743   -2.8176 H       1  LIG1        0.0706
     41 N          -4.0598   10.2193    0.9497 N.pl3   1  LIG1       -0.3561
     42 H          -3.0766   10.1833    1.1834 H       1  LIG1        0.1424
     43 H          -4.5060   11.0927    1.1972 H       1  LIG1        0.1424
     44 C          -6.3280   11.3642   -0.4771 C.1     1  LIG1       -0.0673
     45 C          -6.9200   12.3148   -0.0148 C.1     1  LIG1       -0.1138
     46 H          -7.4636   13.1450    0.3732 H       1  LIG1        0.1232
@<TRIPOS>BOND
     1    12    11    1
     2    40    38    1
     3    39    38   ar
     4    39    35   ar
     5    38    37   ar
     6    11    10    3
     7    23    22    1
     8    10     3    1
     9    22    21    3
    10    37    44    1
    11    37    36   ar
    12    35    27    1
    13    35    36   ar
    14    28    27   ar
    15    28    24   ar
    16    21    15    1
    17    27    26   ar
    18     9     7    1
    19    44    45    3
    20    20    18    1
    21    36    41    1
    22    19    18    1
    23    15    16   ar
    24    15    14   ar
    25    24    16    1
    26    24    25   ar
    27    16    17   ar
    28    45    46    1
    29    26    32    1
    30    26    25   ar
    31    18    14    1
    32    14    13   ar
    33     3     4   ar
    34     3     2   ar
    35    32    33    3
    36    25    29    1
    37    13    17   ar
    38    13     4    1
    39     7     8    1
    40     7     2    1
    41    33    34    1
    42     4     5   ar
    43    30    29    1
    44     2     1   ar
    45    41    42    1
    46    41    43    1
    47    29    31    1
    48     1     5   ar
    49     1     6    1
