@<TRIPOS>MOLECULE
mol_data/opt/b3lyp/geoms/mol2/5he5he5he5he.out
 46 49 0 0 0
SMALL
GASTEIGER

@<TRIPOS>ATOM
      1 C          -1.8554   -1.5117    1.7329 C.ar    1  LIG1       -0.0018
      2 C          -0.9593   -1.8164    0.7435 C.ar    1  LIG1        0.0479
      3 C          -0.4175   -0.6298    0.1117 C.ar    1  LIG1        0.0606
      4 C          -0.8942    0.5580    0.6647 C.ar    1  LIG1        0.0449
      5 S          -2.0174    0.2051    1.9593 S.2     1  LIG1       -0.0930
      6 H          -2.4182   -2.1955    2.3518 H       1  LIG1        0.0712
      7 N          -0.5462   -3.0926    0.3673 N.pl3   1  LIG1       -0.3566
      8 H          -1.2171   -3.8249    0.5553 H       1  LIG1        0.1424
      9 H          -0.1906   -3.1413   -0.5796 H       1  LIG1        0.1424
     10 C           0.4356   -0.7229   -1.0165 C.1     1  LIG1       -0.0667
     11 C           1.1707   -0.8530   -1.9741 C.1     1  LIG1       -0.1138
     12 H           1.7797   -0.9470   -2.8433 H       1  LIG1        0.1232
     13 C          -0.5827    1.9282    0.3237 C.ar    1  LIG1        0.0496
     14 C           0.6411    2.5138    0.0296 C.ar    1  LIG1        0.0563
     15 C           0.5334    3.9393   -0.2017 C.ar    1  LIG1        0.0612
     16 C          -0.7555    4.4427   -0.0343 C.ar    1  LIG1        0.0455
     17 S          -1.8564    3.1497    0.3724 S.2     1  LIG1       -0.0840
     18 N           1.8706    1.8877    0.0218 N.pl3   1  LIG1       -0.3561
     19 H           1.8811    0.9230   -0.2822 H       1  LIG1        0.1424
     20 H           2.6102    2.4417   -0.3901 H       1  LIG1        0.1424
     21 C           1.6536    4.6903   -0.6380 C.1     1  LIG1       -0.0666
     22 C           2.6451    5.2921   -0.9977 C.1     1  LIG1       -0.1138
     23 H           3.4903    5.8262   -1.3663 H       1  LIG1        0.1232
     24 C          -1.2443    5.7958   -0.1602 C.ar    1  LIG1        0.0496
     25 C          -0.6806    6.9903    0.2723 C.ar    1  LIG1        0.0563
     26 C          -1.5343    8.1315    0.0142 C.ar    1  LIG1        0.0612
     27 C          -2.7574    7.8017   -0.5642 C.ar    1  LIG1        0.0455
     28 S          -2.8547    6.0796   -0.8291 S.2     1  LIG1       -0.0840
     29 N           0.5075    7.1408    0.9533 N.pl3   1  LIG1       -0.3561
     30 H           1.2473    6.4901    0.7248 H       1  LIG1        0.1424
     31 H           0.8234    8.0990    1.0262 H       1  LIG1        0.1424
     32 C          -1.0844    9.4502    0.2759 C.1     1  LIG1       -0.0666
     33 C          -0.6600   10.5591    0.5295 C.1     1  LIG1       -0.1138
     34 H          -0.2851   11.5425    0.6968 H       1  LIG1        0.1232
     35 C          -3.8581    8.6577   -0.9458 C.ar    1  LIG1        0.0490
     36 C          -4.4263    9.7301   -0.2652 C.ar    1  LIG1        0.0556
     37 C          -5.5906   10.2582   -0.9522 C.ar    1  LIG1        0.0529
     38 C          -5.8843    9.5724   -2.1070 C.ar    1  LIG1       -0.0065
     39 S          -4.7707    8.3022   -2.4178 S.2     1  LIG1       -0.0930
     40 H          -6.6919    9.7795   -2.7941 H       1  LIG1        0.0706
     41 N          -4.0562   10.2175    0.9679 N.pl3   1  LIG1       -0.3561
     42 H          -3.0724   10.1815    1.1988 H       1  LIG1        0.1424
     43 H          -4.5019   11.0906    1.2179 H       1  LIG1        0.1424
     44 C          -6.3277   11.3653   -0.4517 C.1     1  LIG1       -0.0673
     45 C          -6.9186   12.3151    0.0137 C.1     1  LIG1       -0.1138
     46 H          -7.4613   13.1446    0.4044 H       1  LIG1        0.1232
@<TRIPOS>BOND
     1    12    11    1
     2    40    38    1
     3    39    38   ar
     4    39    35   ar
     5    38    37   ar
     6    11    10    3
     7    23    22    1
     8    10     3    1
     9    22    21    3
    10    37    44    1
    11    37    36   ar
    12    35    27    1
    13    35    36   ar
    14    28    27   ar
    15    28    24   ar
    16    21    15    1
    17     9     7    1
    18    27    26   ar
    19    44    45    3
    20    20    18    1
    21    19    18    1
    22    36    41    1
    23    15    16   ar
    24    15    14   ar
    25    24    16    1
    26    24    25   ar
    27    16    17   ar
    28    45    46    1
    29    26    25   ar
    30    26    32    1
    31    18    14    1
    32    14    13   ar
    33     3     4   ar
    34     3     2   ar
    35    25    29    1
    36    32    33    3
    37    13    17   ar
    38    13     4    1
    39     7     8    1
    40     7     2    1
    41    33    34    1
    42     4     5   ar
    43    30    29    1
    44     2     1   ar
    45    29    31    1
    46    41    42    1
    47    41    43    1
    48     1     5   ar
    49     1     6    1
