@<TRIPOS>MOLECULE
mol_data/opt/b3lyp/geoms/mol2/5he5he5he-5he-.out
 46 49 0 0 0
SMALL
GASTEIGER

@<TRIPOS>ATOM
      1 C          -1.8696   -1.5119    1.7215 C.ar    1  LIG1       -0.0018
      2 C          -0.9660   -1.8165    0.7389 C.ar    1  LIG1        0.0479
      3 C          -0.4193   -0.6298    0.1115 C.ar    1  LIG1        0.0606
      4 C          -0.9003    0.5579    0.6612 C.ar    1  LIG1        0.0449
      5 S          -2.0334    0.2048    1.9470 S.2     1  LIG1       -0.0930
      6 H          -2.4375   -2.1959    2.3356 H       1  LIG1        0.0712
      7 N          -0.5501   -3.0926    0.3655 N.pl3   1  LIG1       -0.3566
      8 H          -1.2222   -3.8250    0.5486 H       1  LIG1        0.1424
      9 H          -0.1872   -3.1411   -0.5785 H       1  LIG1        0.1424
     10 C           0.4426   -0.7224   -1.0100 C.1     1  LIG1       -0.0667
     11 C           1.1853   -0.8520   -1.9617 C.1     1  LIG1       -0.1138
     12 H           1.8013   -0.9454   -2.8260 H       1  LIG1        0.1232
     13 C          -0.5861    1.9281    0.3226 C.ar    1  LIG1        0.0496
     14 C           0.6403    2.5135    0.0388 C.ar    1  LIG1        0.0563
     15 C           0.5347    3.9390   -0.1935 C.ar    1  LIG1        0.0612
     16 C          -0.7555    4.4426   -0.0370 C.ar    1  LIG1        0.0455
     17 S          -1.8600    3.1497    0.3604 S.2     1  LIG1       -0.0840
     18 N           1.8696    1.8872    0.0414 N.pl3   1  LIG1       -0.3561
     19 H           1.8825    0.9226   -0.2632 H       1  LIG1        0.1424
     20 H           2.6129    2.4412   -0.3638 H       1  LIG1        0.1424
     21 C           1.6587    4.6898   -0.6203 C.1     1  LIG1       -0.0666
     22 C           2.6533    5.2914   -0.9717 C.1     1  LIG1       -0.1138
     23 H           3.5017    5.8254   -1.3329 H       1  LIG1        0.1232
     24 C          -1.2432    5.7956   -0.1671 C.ar    1  LIG1        0.0496
     25 C          -0.6833    6.9903    0.2700 C.ar    1  LIG1        0.0563
     26 C          -1.5349    8.1313    0.0049 C.ar    1  LIG1        0.0612
     27 C          -2.7532    7.8015   -0.5836 C.ar    1  LIG1        0.0455
     28 S          -2.8481    6.0794   -0.8493 S.2     1  LIG1       -0.0840
     29 N           0.4992    7.1409    0.9607 N.pl3   1  LIG1       -0.3561
     30 H           1.2409    6.4902    0.7384 H       1  LIG1        0.1424
     31 H           0.8144    8.0992    1.0363 H       1  LIG1        0.1424
     32 C          -1.0872    9.4500    0.2704 C.1     1  LIG1       -0.0666
     33 C          -0.6649   10.5589    0.5277 C.1     1  LIG1       -0.1138
     34 H          -0.2913   11.5422    0.6982 H       1  LIG1        0.1232
     35 C          -3.8510    8.6570   -0.9743 C.ar    1  LIG1        0.0490
     36 C          -4.4248    9.7300   -0.2992 C.ar    1  LIG1        0.0556
     37 C          -5.5832   10.2576   -0.9961 C.ar    1  LIG1        0.0529
     38 C          -5.8673    9.5712   -2.1529 C.ar    1  LIG1       -0.0065
     39 S          -4.7512    8.3008   -2.4537 S.2     1  LIG1       -0.0930
     40 H          -6.6693    9.7779   -2.8468 H       1  LIG1        0.0706
     41 N          -4.0651   10.2182    0.9368 N.pl3   1  LIG1       -0.3561
     42 H          -3.0832   10.1820    1.1759 H       1  LIG1        0.1424
     43 H          -4.5122   11.0919    1.1819 H       1  LIG1        0.1424
     44 C          -6.3245   11.3651   -0.5025 C.1     1  LIG1       -0.0673
     45 C          -6.9194   12.3152   -0.0428 C.1     1  LIG1       -0.1138
     46 H          -7.4655   13.1448    0.3427 H       1  LIG1        0.1232
@<TRIPOS>BOND
     1    40    38    1
     2    12    11    1
     3    39    38   ar
     4    39    35   ar
     5    38    37   ar
     6    11    10    3
     7    23    22    1
     8    10     3    1
     9    37    44    1
    10    37    36   ar
    11    35    27    1
    12    35    36   ar
    13    22    21    3
    14    28    27   ar
    15    28    24   ar
    16    21    15    1
    17    27    26   ar
    18     9     7    1
    19    44    45    3
    20    20    18    1
    21    36    41    1
    22    19    18    1
    23    15    16   ar
    24    15    14   ar
    25    24    16    1
    26    24    25   ar
    27    45    46    1
    28    16    17   ar
    29    26    25   ar
    30    26    32    1
    31    14    18    1
    32    14    13   ar
    33     3     4   ar
    34     3     2   ar
    35    25    29    1
    36    32    33    3
    37    13    17   ar
    38    13     4    1
    39     7     8    1
    40     7     2    1
    41    33    34    1
    42     4     5   ar
    43    30    29    1
    44     2     1   ar
    45    41    42    1
    46    41    43    1
    47    29    31    1
    48     1     5   ar
    49     1     6    1
