@<TRIPOS>MOLECULE
mol_data/opt/b3lyp/geoms/mol2/5he5he-5he-5he-.out
 46 49 0 0 0
SMALL
GASTEIGER

@<TRIPOS>ATOM
      1 C          -1.8504   -1.5158    1.7304 C.ar    1  LIG1       -0.0018
      2 C          -0.9566   -1.8181    0.7381 C.ar    1  LIG1        0.0479
      3 C          -0.4165   -0.6300    0.1078 C.ar    1  LIG1        0.0606
      4 C          -0.8921    0.5565    0.6647 C.ar    1  LIG1        0.0449
      5 S          -2.0121    0.2005    1.9611 S.2     1  LIG1       -0.0930
      6 H          -2.4119   -2.2011    2.3488 H       1  LIG1        0.0712
      7 N          -0.5443   -3.0933    0.3580 N.pl3   1  LIG1       -0.3566
      8 H          -1.2146   -3.8262    0.5461 H       1  LIG1        0.1424
      9 H          -0.1906   -3.1398   -0.5896 H       1  LIG1        0.1424
     10 C           0.4342   -0.7203   -1.0225 C.1     1  LIG1       -0.0667
     11 C           1.1674   -0.8480   -1.9818 C.1     1  LIG1       -0.1138
     12 H           1.7747   -0.9394   -2.8524 H       1  LIG1        0.1232
     13 C          -0.5816    1.9274    0.3261 C.ar    1  LIG1        0.0496
     14 C           0.6416    2.5140    0.0308 C.ar    1  LIG1        0.0563
     15 C           0.5331    3.9399   -0.1971 C.ar    1  LIG1        0.0612
     16 C          -0.7556    4.4426   -0.0262 C.ar    1  LIG1        0.0455
     17 S          -1.8555    3.1485    0.3797 S.2     1  LIG1       -0.0840
     18 N           1.8711    1.8881    0.0192 N.pl3   1  LIG1       -0.3561
     19 H           1.8812    0.9243   -0.2879 H       1  LIG1        0.1424
     20 H           2.6099    2.4434   -0.3923 H       1  LIG1        0.1424
     21 C           1.6522    4.6923   -0.6337 C.1     1  LIG1       -0.0666
     22 C           2.6428    5.2953   -0.9939 C.1     1  LIG1       -0.1138
     23 H           3.4871    5.8307   -1.3625 H       1  LIG1        0.1232
     24 C          -1.2449    5.7959   -0.1483 C.ar    1  LIG1        0.0496
     25 C          -0.6809    6.9895    0.2862 C.ar    1  LIG1        0.0563
     26 C          -1.5351    8.1311    0.0319 C.ar    1  LIG1        0.0612
     27 C          -2.7589    7.8025   -0.5457 C.ar    1  LIG1        0.0455
     28 S          -2.8563    6.0810   -0.8145 S.2     1  LIG1       -0.0840
     29 N           0.5081    7.1386    0.9660 N.pl3   1  LIG1       -0.3561
     30 H           1.2478    6.4886    0.7345 H       1  LIG1        0.1424
     31 H           0.8241    8.0967    1.0404 H       1  LIG1        0.1424
     32 C          -1.0850    9.4493    0.2961 C.1     1  LIG1       -0.0666
     33 C          -0.6604   10.5576    0.5519 C.1     1  LIG1       -0.1138
     34 H          -0.2852   11.5406    0.7210 H       1  LIG1        0.1232
     35 C          -3.8604    8.6589   -0.9237 C.ar    1  LIG1        0.0490
     36 C          -4.4280    9.7300   -0.2405 C.ar    1  LIG1        0.0556
     37 C          -5.5932   10.2590   -0.9249 C.ar    1  LIG1        0.0529
     38 C          -5.8881    9.5755   -2.0808 C.ar    1  LIG1       -0.0065
     39 S          -4.7747    8.3061   -2.3953 S.2     1  LIG1       -0.0930
     40 H          -6.6968    9.7838   -2.7665 H       1  LIG1        0.0706
     41 N          -4.0566   10.2151    0.9932 N.pl3   1  LIG1       -0.3561
     42 H          -3.0725   10.1782    1.2230 H       1  LIG1        0.1424
     43 H          -4.5014   11.0881    1.2448 H       1  LIG1        0.1424
     44 C          -6.3300   11.3650   -0.4215 C.1     1  LIG1       -0.0673
     45 C          -6.9206   12.3138    0.0463 C.1     1  LIG1       -0.1138
     46 H          -7.4632   13.1423    0.4392 H       1  LIG1        0.1232
@<TRIPOS>BOND
     1    12    11    1
     2    40    38    1
     3    39    38   ar
     4    39    35   ar
     5    38    37   ar
     6    11    10    3
     7    23    22    1
     8    10     3    1
     9    22    21    3
    10    37    44    1
    11    37    36   ar
    12    35    27    1
    13    35    36   ar
    14    28    27   ar
    15    28    24   ar
    16    21    15    1
    17     9     7    1
    18    27    26   ar
    19    44    45    3
    20    20    18    1
    21    19    18    1
    22    36    41    1
    23    15    16   ar
    24    15    14   ar
    25    24    16    1
    26    24    25   ar
    27    16    17   ar
    28    18    14    1
    29    14    13   ar
    30    26    25   ar
    31    26    32    1
    32    45    46    1
    33     3     4   ar
    34     3     2   ar
    35    25    29    1
    36    32    33    3
    37    13    17   ar
    38    13     4    1
    39     7     8    1
    40     7     2    1
    41    33    34    1
    42     4     5   ar
    43    30    29    1
    44     2     1   ar
    45    29    31    1
    46    41    42    1
    47    41    43    1
    48     1     5   ar
    49     1     6    1
