@<TRIPOS>MOLECULE
mol_data/opt/b3lyp/geoms/mol2/5he5he-5he-5he.out
 46 49 0 0 0
SMALL
GASTEIGER

@<TRIPOS>ATOM
      1 C          -1.8510   -1.5196    1.7203 C.ar    1  LIG1       -0.0018
      2 C          -0.9568   -1.8198    0.7277 C.ar    1  LIG1        0.0479
      3 C          -0.4164   -0.6303    0.1002 C.ar    1  LIG1        0.0606
      4 C          -0.8923    0.5550    0.6595 C.ar    1  LIG1        0.0449
      5 S          -2.0128    0.1961    1.9546 S.2     1  LIG1       -0.0930
      6 H          -2.4127   -2.2063    2.3371 H       1  LIG1        0.0712
      7 N          -0.5444   -3.0942    0.3450 N.pl3   1  LIG1       -0.3566
      8 H          -1.2148   -3.8275    0.5312 H       1  LIG1        0.1424
      9 H          -0.1906   -3.1386   -0.6028 H       1  LIG1        0.1424
     10 C           0.4346   -0.7182   -1.0300 C.1     1  LIG1       -0.0667
     11 C           1.1678   -0.8439   -1.9896 C.1     1  LIG1       -0.1138
     12 H           1.7753   -0.9338   -2.8603 H       1  LIG1        0.1232
     13 C          -0.5816    1.9266    0.3240 C.ar    1  LIG1        0.0496
     14 C           0.6416    2.5138    0.0302 C.ar    1  LIG1        0.0563
     15 C           0.5333    3.9402   -0.1948 C.ar    1  LIG1        0.0612
     16 C          -0.7554    4.4426   -0.0229 C.ar    1  LIG1        0.0455
     17 S          -1.8555    3.1477    0.3801 S.2     1  LIG1       -0.0840
     18 N           1.8712    1.8879    0.0176 N.pl3   1  LIG1       -0.3561
     19 H           1.8813    0.9247   -0.2913 H       1  LIG1        0.1424
     20 H           2.6100    2.4439   -0.3930 H       1  LIG1        0.1424
     21 C           1.6525    4.6932   -0.6299 C.1     1  LIG1       -0.0666
     22 C           2.6432    5.2968   -0.9890 C.1     1  LIG1       -0.1138
     23 H           3.4875    5.8327   -1.3569 H       1  LIG1        0.1232
     24 C          -1.2446    5.7962   -0.1420 C.ar    1  LIG1        0.0496
     25 C          -0.6804    6.9889    0.2948 C.ar    1  LIG1        0.0563
     26 C          -1.5348    8.1310    0.0433 C.ar    1  LIG1        0.0612
     27 C          -2.7589    7.8037   -0.5342 C.ar    1  LIG1        0.0455
     28 S          -2.8564    6.0827   -0.8066 S.2     1  LIG1       -0.0840
     29 N           0.5089    7.1366    0.9743 N.pl3   1  LIG1       -0.3561
     30 H           1.2485    6.4871    0.7415 H       1  LIG1        0.1424
     31 H           0.8248    8.0945    1.0509 H       1  LIG1        0.1424
     32 C          -1.0845    9.4486    0.3102 C.1     1  LIG1       -0.0666
     33 C          -0.6597   10.5564    0.5680 C.1     1  LIG1       -0.1138
     34 H          -0.2846   11.5391    0.7391 H       1  LIG1        0.1232
     35 C          -3.8605    8.6609   -0.9102 C.ar    1  LIG1        0.0490
     36 C          -4.4276    9.7307   -0.2244 C.ar    1  LIG1        0.0556
     37 C          -5.5930   10.2614   -0.9072 C.ar    1  LIG1        0.0529
     38 C          -5.8886    9.5804   -2.0643 C.ar    1  LIG1       -0.0065
     39 S          -4.7756    8.3115   -2.3821 S.2     1  LIG1       -0.0930
     40 H          -6.6975    9.7902   -2.7492 H       1  LIG1        0.0706
     41 N          -4.0555   10.2131    1.0101 N.pl3   1  LIG1       -0.3561
     42 H          -3.0713   10.1756    1.2395 H       1  LIG1        0.1424
     43 H          -4.5003   11.0854    1.2641 H       1  LIG1        0.1424
     44 C          -6.3293   11.3665   -0.4010 C.1     1  LIG1       -0.0673
     45 C          -6.9194   12.3144    0.0692 C.1     1  LIG1       -0.1138
     46 H          -7.4615   13.1422    0.4642 H       1  LIG1        0.1232
@<TRIPOS>BOND
     1    12    11    1
     2    40    38    1
     3    39    38   ar
     4    39    35   ar
     5    38    37   ar
     6    11    10    3
     7    23    22    1
     8    10     3    1
     9    22    21    3
    10    35    27    1
    11    35    36   ar
    12    37    44    1
    13    37    36   ar
    14    28    27   ar
    15    28    24   ar
    16    21    15    1
    17     9     7    1
    18    27    26   ar
    19    44    45    3
    20    20    18    1
    21    19    18    1
    22    36    41    1
    23    15    16   ar
    24    15    14   ar
    25    24    16    1
    26    24    25   ar
    27    16    17   ar
    28    18    14    1
    29    14    13   ar
    30    26    25   ar
    31    26    32    1
    32    45    46    1
    33     3     4   ar
    34     3     2   ar
    35    25    29    1
    36    32    33    3
    37    13    17   ar
    38    13     4    1
    39     7     8    1
    40     7     2    1
    41    33    34    1
    42     4     5   ar
    43     2     1   ar
    44    30    29    1
    45    29    31    1
    46    41    42    1
    47    41    43    1
    48     1     5   ar
    49     1     6    1
