@<TRIPOS>MOLECULE
mol_data/opt/b3lyp/geoms/mol2/5he5he.out
 24 25 0 0 0
SMALL
GASTEIGER

@<TRIPOS>ATOM
      1 C          -2.1014   -1.7115   -0.6396 C.ar    1  LIG1       -0.0018
      2 C          -0.7925   -1.8420   -0.2580 C.ar    1  LIG1        0.0479
      3 C          -0.1972   -0.5706    0.1074 C.ar    1  LIG1        0.0606
      4 C          -1.0770    0.5027   -0.0130 C.ar    1  LIG1        0.0449
      5 S          -2.6342   -0.0570   -0.5847 S.2     1  LIG1       -0.0930
      6 H          -2.7918   -2.4953   -0.9160 H       1  LIG1        0.0712
      7 N          -0.0858   -3.0341   -0.1288 N.pl3   1  LIG1       -0.3566
      8 H          -0.3859   -3.7792   -0.7415 H       1  LIG1        0.1424
      9 H           0.9193   -2.9154   -0.1290 H       1  LIG1        0.1424
     10 C           1.1329   -0.4970    0.5962 C.1     1  LIG1       -0.0667
     11 C           2.2817   -0.4929    0.9837 C.1     1  LIG1       -0.1138
     12 H           3.2748   -0.4519    1.3670 H       1  LIG1        0.1232
     13 C          -0.8550    1.9139    0.2278 C.ar    1  LIG1        0.0489
     14 C           0.2088    2.7172   -0.1594 C.ar    1  LIG1        0.0556
     15 C           0.0047    4.1101    0.1894 C.ar    1  LIG1        0.0529
     16 C          -1.1952    4.3256    0.8258 C.ar    1  LIG1       -0.0065
     17 S          -2.0951    2.8771    1.0380 S.2     1  LIG1       -0.0930
     18 H          -1.5747    5.2710    1.1858 H       1  LIG1        0.0706
     19 N           1.3602    2.3162   -0.7976 N.pl3   1  LIG1       -0.3561
     20 H           1.3746    1.3843   -1.1822 H       1  LIG1        0.1424
     21 H           1.8191    3.0226   -1.3553 H       1  LIG1        0.1424
     22 C           0.9503    5.1210   -0.1323 C.1     1  LIG1       -0.0673
     23 C           1.7775    5.9510   -0.4397 C.1     1  LIG1       -0.1138
     24 H           2.4972    6.6969   -0.6858 H       1  LIG1        0.1232
@<TRIPOS>BOND
     1    21    19    1
     2    20    19    1
     3     6     1    1
     4    19    14    1
     5     8     7    1
     6    24    23    1
     7     1     5   ar
     8     1     2   ar
     9     5     4   ar
    10    23    22    3
    11     2     7    1
    12     2     3   ar
    13    14    15   ar
    14    14    13   ar
    15    22    15    1
    16     9     7    1
    17     4     3   ar
    18     4    13    1
    19     3    10    1
    20    15    16   ar
    21    13    17   ar
    22    10    11    3
    23    16    17   ar
    24    16    18    1
    25    11    12    1
