@<TRIPOS>MOLECULE
mol_data/opt/b3lyp/geoms/mol2/5he5he-5he5he-.out
 46 49 0 0 0
SMALL
GASTEIGER

@<TRIPOS>ATOM
      1 C          -1.8433   -1.5141    1.7417 C.ar    1  LIG1       -0.0018
      2 C          -0.9547   -1.8176    0.7451 C.ar    1  LIG1        0.0479
      3 C          -0.4175   -0.6302    0.1109 C.ar    1  LIG1        0.0606
      4 C          -0.8899    0.5569    0.6693 C.ar    1  LIG1        0.0449
      5 S          -2.0033    0.2023    1.9718 S.2     1  LIG1       -0.0930
      6 H          -2.4016   -2.1987    2.3638 H       1  LIG1        0.0712
      7 N          -0.5448   -3.0933    0.3640 N.pl3   1  LIG1       -0.3566
      8 H          -1.2144   -3.8258    0.5562 H       1  LIG1        0.1424
      9 H          -0.1964   -3.1407   -0.5856 H       1  LIG1        0.1424
     10 C           0.4271   -0.7217   -1.0237 C.1     1  LIG1       -0.0667
     11 C           1.1550   -0.8506   -1.9869 C.1     1  LIG1       -0.1138
     12 H           1.7576   -0.9434   -2.8607 H       1  LIG1        0.1232
     13 C          -0.5808    1.9275    0.3278 C.ar    1  LIG1        0.0496
     14 C           0.6410    2.5134    0.0256 C.ar    1  LIG1        0.0563
     15 C           0.5318    3.9392   -0.2033 C.ar    1  LIG1        0.0612
     16 C          -0.7559    4.4425   -0.0260 C.ar    1  LIG1        0.0455
     17 S          -1.8540    3.1490    0.3869 S.2     1  LIG1       -0.0840
     18 N           1.8703    1.8871    0.0082 N.pl3   1  LIG1       -0.3561
     19 H           1.8784    0.9230   -0.2978 H       1  LIG1        0.1424
     20 H           2.6070    2.4417   -0.4081 H       1  LIG1        0.1424
     21 C           1.6489    4.6905   -0.6467 C.1     1  LIG1       -0.0666
     22 C           2.6377    5.2927   -1.0129 C.1     1  LIG1       -0.1138
     23 H           3.4803    5.8272   -1.3870 H       1  LIG1        0.1232
     24 C          -1.2454    5.7957   -0.1466 C.ar    1  LIG1        0.0496
     25 C          -0.6785    6.9897    0.2831 C.ar    1  LIG1        0.0563
     26 C          -1.5340    8.1313    0.0327 C.ar    1  LIG1        0.0612
     27 C          -2.7614    7.8023   -0.5370 C.ar    1  LIG1        0.0455
     28 S          -2.8608    6.0805   -0.8032 S.2     1  LIG1       -0.0840
     29 N           0.5146    7.1394    0.9556 N.pl3   1  LIG1       -0.3561
     30 H           1.2526    6.4889    0.7209 H       1  LIG1        0.1424
     31 H           0.8311    8.0975    1.0272 H       1  LIG1        0.1424
     32 C          -1.0820    9.4496    0.2926 C.1     1  LIG1       -0.0666
     33 C          -0.6555   10.5582    0.5443 C.1     1  LIG1       -0.1138
     34 H          -0.2793   11.5413    0.7100 H       1  LIG1        0.1232
     35 C          -3.8648    8.6587   -0.9096 C.ar    1  LIG1        0.0490
     36 C          -4.4278    9.7307   -0.2239 C.ar    1  LIG1        0.0556
     37 C          -5.5970   10.2595   -0.9018 C.ar    1  LIG1        0.0529
     38 C          -5.8993    9.5748   -2.0550 C.ar    1  LIG1       -0.0065
     39 S          -4.7884    8.3047   -2.3751 S.2     1  LIG1       -0.0930
     40 H          -6.7121    9.7826   -2.7359 H       1  LIG1        0.0706
     41 N          -4.0486   10.2170    1.0068 N.pl3   1  LIG1       -0.3561
     42 H          -3.0631   10.1802    1.2307 H       1  LIG1        0.1424
     43 H          -4.4919   11.0901    1.2607 H       1  LIG1        0.1424
     44 C          -6.3302   11.3663   -0.3949 C.1     1  LIG1       -0.0673
     45 C          -6.9175   12.3158    0.0756 C.1     1  LIG1       -0.1138
     46 H          -7.4573   13.1450    0.4709 H       1  LIG1        0.1232
@<TRIPOS>BOND
     1    12    11    1
     2    40    38    1
     3    39    38   ar
     4    39    35   ar
     5    38    37   ar
     6    11    10    3
     7    23    22    1
     8    10     3    1
     9    22    21    3
    10    35    27    1
    11    35    36   ar
    12    37    44    1
    13    37    36   ar
    14    28    27   ar
    15    28    24   ar
    16    21    15    1
    17     9     7    1
    18    27    26   ar
    19    20    18    1
    20    44    45    3
    21    19    18    1
    22    36    41    1
    23    15    16   ar
    24    15    14   ar
    25    24    16    1
    26    24    25   ar
    27    16    17   ar
    28    18    14    1
    29    14    13   ar
    30    26    25   ar
    31    26    32    1
    32    45    46    1
    33     3     4   ar
    34     3     2   ar
    35    25    29    1
    36    32    33    3
    37    13    17   ar
    38    13     4    1
    39     7     8    1
    40     7     2    1
    41    33    34    1
    42     4     5   ar
    43    30    29    1
    44     2     1   ar
    45    29    31    1
    46    41    42    1
    47    41    43    1
    48     1     5   ar
    49     1     6    1
