@<TRIPOS>MOLECULE
mol_data/opt/b3lyp/geoms/mol2/5hf.out
 12 12 0 0 0
SMALL
GASTEIGER

@<TRIPOS>ATOM
      1 C          -2.1392   -1.6954   -0.0228 C.ar    1  LIG1        0.0000
      2 C          -0.7699   -1.6848   -0.0426 C.ar    1  LIG1        0.0737
      3 C          -0.2538   -0.3396   -0.0142 C.ar    1  LIG1        0.1444
      4 C          -1.2200    0.6231    0.0328 C.ar    1  LIG1        0.0190
      5 S          -2.8088   -0.0867    0.0428 S.2     1  LIG1       -0.0995
      6 H          -2.7946   -2.5541   -0.0238 H       1  LIG1        0.0713
      7 H          -1.0941    1.6964    0.0545 H       1  LIG1        0.0731
      8 N           0.0958   -2.7820   -0.0247 N.pl3   1  LIG1       -0.3547
      9 H          -0.2811   -3.6159   -0.4550 H       1  LIG1        0.1424
     10 H           1.0133   -2.5594   -0.3904 H       1  LIG1        0.1424
     11 O           1.1071   -0.1799   -0.0531 O.3     1  LIG1       -0.5044
     12 H           1.3190    0.7619   -0.0484 H       1  LIG1        0.2922
@<TRIPOS>BOND
     1     9     8    1
     2    10     8    1
     3    11    12    1
     4    11     3    1
     5     2     8    1
     6     2     1   ar
     7     2     3   ar
     8     6     1    1
     9     1     5   ar
    10     3     4   ar
    11     4     5   ar
    12     4     7    1
