@<TRIPOS>MOLECULE
mol_data/opt/b3lyp/geoms/mol2/5hf5hf-5hf5hf-.out
 42 45 0 0 0
SMALL
GASTEIGER

@<TRIPOS>ATOM
      1 C          -1.8474   -2.0094   -1.1744 C.ar    1  LIG1        0.0006
      2 C          -0.8713   -2.0512   -0.2160 C.ar    1  LIG1        0.0744
      3 C          -0.4050   -0.7358    0.1426 C.ar    1  LIG1        0.1527
      4 C          -1.0344    0.2863   -0.5498 C.ar    1  LIG1        0.0710
      5 S          -2.2122   -0.3807   -1.6792 S.2     1  LIG1       -0.0905
      6 H          -2.3796   -2.8397   -1.6160 H       1  LIG1        0.0713
      7 N          -0.3719   -3.1711    0.4503 N.pl3   1  LIG1       -0.3547
      8 H          -0.3497   -4.0173   -0.1023 H       1  LIG1        0.1424
      9 H           0.5193   -2.9809    0.8924 H       1  LIG1        0.1424
     10 O           0.5458   -0.6317    1.0960 O.3     1  LIG1       -0.5038
     11 H           1.0100    0.2482    1.0015 H       1  LIG1        0.2923
     12 C          -0.8416    1.7093   -0.3963 C.ar    1  LIG1        0.0544
     13 C           0.2947    2.3806    0.0051 C.ar    1  LIG1        0.0828
     14 C           0.1285    3.7938    0.1274 C.ar    1  LIG1        0.1533
     15 C          -1.1416    4.2321   -0.2206 C.ar    1  LIG1        0.0716
     16 S          -2.1423    2.8553   -0.6931 S.2     1  LIG1       -0.0814
     17 N           1.5402    1.7412    0.2973 N.pl3   1  LIG1       -0.3542
     18 H           2.0094    1.4467   -0.5586 H       1  LIG1        0.1425
     19 H           2.1494    2.4077    0.7678 H       1  LIG1        0.1425
     20 O           1.1684    4.5283    0.5733 O.3     1  LIG1       -0.5037
     21 H           1.0384    5.4843    0.2993 H       1  LIG1        0.2923
     22 C          -1.6624    5.5757   -0.1822 C.ar    1  LIG1        0.0544
     23 C          -0.9728    6.7676   -0.2871 C.ar    1  LIG1        0.0828
     24 C          -1.7850    7.9308   -0.1271 C.ar    1  LIG1        0.1533
     25 C          -3.1281    7.6449    0.0652 C.ar    1  LIG1        0.0716
     26 S          -3.3756    5.8963    0.0565 S.2     1  LIG1       -0.0814
     27 N           0.4361    6.8587   -0.5251 N.pl3   1  LIG1       -0.3542
     28 H           0.6518    6.6772   -1.5054 H       1  LIG1        0.1425
     29 H           0.7427    7.8076   -0.3189 H       1  LIG1        0.1425
     30 O          -1.1896    9.1417   -0.1566 O.3     1  LIG1       -0.5037
     31 H          -1.8764    9.8376   -0.3743 H       1  LIG1        0.2923
     32 C          -4.2175    8.5650    0.2931 C.ar    1  LIG1        0.0538
     33 C          -4.3235    9.8870   -0.0944 C.ar    1  LIG1        0.0822
     34 C          -5.5235   10.5168    0.3625 C.ar    1  LIG1        0.1450
     35 C          -6.3414    9.6883    1.0761 C.ar    1  LIG1        0.0197
     36 S          -5.6375    8.1007    1.2219 S.2     1  LIG1       -0.0904
     37 H          -7.3111    9.8990    1.5038 H       1  LIG1        0.0731
     38 N          -3.3444   10.5688   -0.8874 N.pl3   1  LIG1       -0.3542
     39 H          -3.4401   10.3291   -1.8741 H       1  LIG1        0.1425
     40 H          -3.4800   11.5741   -0.8072 H       1  LIG1        0.1425
     41 O          -5.7203   11.8309    0.0309 O.3     1  LIG1       -0.5044
     42 H          -6.5371   12.1465    0.4378 H       1  LIG1        0.2922
@<TRIPOS>BOND
     1    39    38    1
     2     5     1   ar
     3     5     4   ar
     4     6     1    1
     5    28    27    1
     6     1     2   ar
     7    38    40    1
     8    38    33    1
     9    16    12   ar
    10    16    15   ar
    11    18    17    1
    12     4    12    1
    13     4     3   ar
    14    27    29    1
    15    27    23    1
    16    12    13   ar
    17    31    30    1
    18    23    22   ar
    19    23    24   ar
    20    15    22    1
    21    15    14   ar
    22     2     3   ar
    23     2     7    1
    24    22    26   ar
    25    30    24    1
    26    24    25   ar
    27     8     7    1
    28    33    32   ar
    29    33    34   ar
    30    13    14   ar
    31    13    17    1
    32    41    34    1
    33    41    42    1
    34    26    25   ar
    35    25    32    1
    36    14    20    1
    37     3    10    1
    38    32    36   ar
    39    17    19    1
    40    21    20    1
    41    34    35   ar
    42     7     9    1
    43    11    10    1
    44    35    36   ar
    45    35    37    1
