@<TRIPOS>MOLECULE
mol_data/opt/b3lyp/geoms/mol2/5hf5hf-.out
 22 23 0 0 0
SMALL
GASTEIGER

@<TRIPOS>ATOM
      1 C          -2.1577   -1.8364   -0.3340 C.ar    1  LIG1        0.0006
      2 C          -0.8352   -1.8454    0.0176 C.ar    1  LIG1        0.0744
      3 C          -0.2982   -0.5138    0.1437 C.ar    1  LIG1        0.1527
      4 C          -1.2210    0.4853   -0.1123 C.ar    1  LIG1        0.0710
      5 S          -2.7782   -0.2199   -0.5391 S.2     1  LIG1       -0.0905
      6 H          -2.8102   -2.6845   -0.4842 H       1  LIG1        0.0713
      7 N          -0.0336   -2.9485    0.3128 N.pl3   1  LIG1       -0.3547
      8 H          -0.2619   -3.7883   -0.2016 H       1  LIG1        0.1424
      9 H           0.9527   -2.7243    0.2594 H       1  LIG1        0.1424
     10 O           0.9977   -0.3750    0.5015 O.3     1  LIG1       -0.5038
     11 H           1.3217    0.5198    0.2018 H       1  LIG1        0.2923
     12 C          -1.0276    1.9166   -0.0260 C.ar    1  LIG1        0.0537
     13 C           0.1322    2.6384   -0.2200 C.ar    1  LIG1        0.0822
     14 C          -0.0283    4.0414    0.0123 C.ar    1  LIG1        0.1450
     15 C          -1.2989    4.3979    0.3621 C.ar    1  LIG1        0.0197
     16 S          -2.3356    2.9982    0.4342 S.2     1  LIG1       -0.0904
     17 H          -1.6935    5.3842    0.5605 H       1  LIG1        0.0731
     18 N           1.3770    2.0570   -0.6200 N.pl3   1  LIG1       -0.3542
     19 H           1.3726    1.8231   -1.6122 H       1  LIG1        0.1425
     20 H           2.1316    2.7213   -0.4652 H       1  LIG1        0.1425
     21 O           1.0685    4.8456   -0.1528 O.3     1  LIG1       -0.5044
     22 H           0.8417    5.7518    0.0912 H       1  LIG1        0.2922
@<TRIPOS>BOND
     1    19    18    1
     2    18    20    1
     3    18    13    1
     4     5     1   ar
     5     5     4   ar
     6     6     1    1
     7     1     2   ar
     8    13    12   ar
     9    13    14   ar
    10     8     7    1
    11    21    14    1
    12    21    22    1
    13     4    12    1
    14     4     3   ar
    15    12    16   ar
    16    14    15   ar
    17     2     3   ar
    18     2     7    1
    19     3    10    1
    20    11    10    1
    21     9     7    1
    22    15    16   ar
    23    15    17    1
