@<TRIPOS>MOLECULE
mol_data/opt/b3lyp/geoms/mol2/5hf5hf-5hf.out
 32 34 0 0 0
SMALL
GASTEIGER

@<TRIPOS>ATOM
      1 C          -2.0570   -1.9506   -0.7493 C.ar    1  LIG1        0.0006
      2 C          -0.8734   -1.9673   -0.0625 C.ar    1  LIG1        0.0744
      3 C          -0.3569   -0.6408    0.1619 C.ar    1  LIG1        0.1527
      4 C          -1.1569    0.3637   -0.3583 C.ar    1  LIG1        0.0710
      5 S          -2.5654   -0.3332   -1.1565 S.2     1  LIG1       -0.0905
      6 H          -2.6666   -2.7938   -1.0408 H       1  LIG1        0.0713
      7 N          -0.2041   -3.0719    0.4654 N.pl3   1  LIG1       -0.3547
      8 H          -0.3067   -3.9244   -0.0681 H       1  LIG1        0.1424
      9 H           0.7658   -2.8640    0.6701 H       1  LIG1        0.1424
     10 O           0.7988   -0.5111    0.8488 O.3     1  LIG1       -0.5038
     11 H           1.2107    0.3733    0.6338 H       1  LIG1        0.2923
     12 C          -0.9573    1.7912   -0.2649 C.ar    1  LIG1        0.0544
     13 C           0.2312    2.4840   -0.1666 C.ar    1  LIG1        0.0828
     14 C           0.0750    3.8959   -0.0137 C.ar    1  LIG1        0.1533
     15 C          -1.2480    4.3097   -0.0312 C.ar    1  LIG1        0.0716
     16 S          -2.3106    2.9134   -0.2306 S.2     1  LIG1       -0.0814
     17 N           1.5207    1.8669   -0.1976 N.pl3   1  LIG1       -0.3542
     18 H           1.7586    1.5642   -1.1416 H       1  LIG1        0.1425
     19 H           2.2198    2.5474    0.0930 H       1  LIG1        0.1425
     20 O           1.1805    4.6541    0.1455 O.3     1  LIG1       -0.5037
     21 H           0.9656    5.5994   -0.1046 H       1  LIG1        0.2923
     22 C          -1.7708    5.6466    0.1280 C.ar    1  LIG1        0.0538
     23 C          -1.1571    6.8507   -0.1582 C.ar    1  LIG1        0.0822
     24 C          -1.9525    7.9883    0.1868 C.ar    1  LIG1        0.1450
     25 C          -3.1706    7.6676    0.7139 C.ar    1  LIG1        0.0197
     26 S          -3.3621    5.9383    0.8191 S.2     1  LIG1       -0.0904
     27 H          -3.9679    8.3273    1.0251 H       1  LIG1        0.0731
     28 N           0.1404    6.9645   -0.7544 N.pl3   1  LIG1       -0.3542
     29 H           0.0972    6.8030   -1.7605 H       1  LIG1        0.1425
     30 H           0.4991    7.9064   -0.6150 H       1  LIG1        0.1425
     31 O          -1.4294    9.2304   -0.0572 O.3     1  LIG1       -0.5044
     32 H          -2.0385    9.9051    0.2686 H       1  LIG1        0.2922
@<TRIPOS>BOND
     1    29    28    1
     2     5     1   ar
     3     5     4   ar
     4    18    17    1
     5     6     1    1
     6    28    30    1
     7    28    23    1
     8     1     2   ar
     9     4    12    1
    10     4     3   ar
    11    12    16   ar
    12    12    13   ar
    13    16    15   ar
    14    17    13    1
    15    17    19    1
    16    13    14   ar
    17    23    22   ar
    18    23    24   ar
    19    21    20    1
    20     8     7    1
    21     2     3   ar
    22     2     7    1
    23    31    24    1
    24    31    32    1
    25    15    14   ar
    26    15    22    1
    27    14    20    1
    28    22    26   ar
    29     3    10    1
    30    24    25   ar
    31     7     9    1
    32    11    10    1
    33    25    26   ar
    34    25    27    1
