@<TRIPOS>MOLECULE
mol_data/opt/b3lyp/geoms/mol2/5hg.out
 12 12 0 0 0
SMALL
GASTEIGER

@<TRIPOS>ATOM
      1 C          -2.1660   -1.7016   -0.1359 C.ar    1  LIG1       -0.0026
      2 C          -0.7982   -1.6414   -0.0248 C.ar    1  LIG1        0.0450
      3 C          -0.3440   -0.2830    0.1802 C.ar    1  LIG1        0.0324
      4 C          -1.3694    0.6221    0.2470 C.ar    1  LIG1       -0.0093
      5 S          -2.9049   -0.1342    0.0308 S.2     1  LIG1       -0.1021
      6 H          -2.7823   -2.5778   -0.2767 H       1  LIG1        0.0712
      7 H          -1.2925    1.6885    0.4017 H       1  LIG1        0.0705
      8 N           0.0726   -2.7265   -0.0333 N.pl3   1  LIG1       -0.3567
      9 H          -0.2340   -3.5195   -0.5788 H       1  LIG1        0.1424
     10 H           1.0350   -2.4735   -0.2195 H       1  LIG1        0.1424
     11 S           1.3808    0.1540    0.3712 S.3     1  LIG1       -0.1403
     12 H           1.6246    0.5229   -0.9069 H       1  LIG1        0.1072
@<TRIPOS>BOND
     1    12    11    1
     2     9     8    1
     3     6     1    1
     4    10     8    1
     5     1     2   ar
     6     1     5   ar
     7     8     2    1
     8     2     3   ar
     9     5     4   ar
    10     3     4   ar
    11     3    11    1
    12     4     7    1
