@<TRIPOS>MOLECULE
mol_data/opt/b3lyp/geoms/mol2/5hh.out
 13 13 0 0 0
SMALL
GASTEIGER

@<TRIPOS>ATOM
      1 C          -2.1246   -1.7116   -0.0310 C.ar    1  LIG1       -0.0018
      2 C          -0.7558   -1.6951   -0.0662 C.ar    1  LIG1        0.0526
      3 C          -0.2248   -0.3483   -0.0661 C.ar    1  LIG1        0.0526
      4 C          -1.2140    0.5980   -0.0308 C.ar    1  LIG1       -0.0018
      5 S          -2.8000   -0.1110    0.0414 S.2     1  LIG1       -0.1013
      6 H          -2.7717   -2.5774   -0.0166 H       1  LIG1        0.0712
      7 H          -1.0960    1.6724   -0.0162 H       1  LIG1        0.0712
      8 N           0.0825   -2.8248   -0.0170 N.pl3   1  LIG1       -0.3561
      9 H          -0.4206   -3.6880   -0.1841 H       1  LIG1        0.1424
     10 H           0.8723   -2.7775   -0.6514 H       1  LIG1        0.1424
     11 N           1.1589   -0.0947   -0.0165 N.pl3   1  LIG1       -0.3561
     12 H           1.7044   -0.6692   -0.6497 H       1  LIG1        0.1424
     13 H           1.3805    0.8794   -0.1846 H       1  LIG1        0.1424
@<TRIPOS>BOND
     1    10     8    1
     2    12    11    1
     3    13    11    1
     4     9     8    1
     5     2     3   ar
     6     2     1   ar
     7     2     8    1
     8     3     4   ar
     9     3    11    1
    10     1     6    1
    11     1     5   ar
    12     4     7    1
    13     4     5   ar
