@<TRIPOS>MOLECULE
mol_data/opt/b3lyp/geoms/mol2/5hi.out
 14 14 0 0 0
SMALL
GASTEIGER

@<TRIPOS>ATOM
      1 C          -2.1599   -1.7253   -0.0548 C.ar    1  LIG1       -0.0034
      2 C          -0.7893   -1.6927   -0.0781 C.ar    1  LIG1        0.0346
      3 C          -0.2612   -0.3502    0.0087 C.ar    1  LIG1       -0.0228
      4 C          -1.2578    0.5810    0.0964 C.ar    1  LIG1       -0.0196
      5 S          -2.8394   -0.1297    0.0904 S.2     1  LIG1       -0.1029
      6 H          -2.8060   -2.5906   -0.1016 H       1  LIG1        0.0712
      7 H          -1.1471    1.6538    0.1756 H       1  LIG1        0.0696
      8 N           0.0602   -2.8122   -0.1004 N.pl3   1  LIG1       -0.3573
      9 H          -0.4138   -3.6683   -0.3604 H       1  LIG1        0.1423
     10 H           0.8775   -2.6825   -0.6856 H       1  LIG1        0.1423
     11 C           1.2111   -0.0490    0.0152 C.3     1  LIG1       -0.0375
     12 H           1.3960    1.0182    0.1604 H       1  LIG1        0.0278
     13 H           1.6925   -0.3373   -0.9294 H       1  LIG1        0.0278
     14 H           1.7220   -0.5958    0.8164 H       1  LIG1        0.0278
@<TRIPOS>BOND
     1    13    11    1
     2    10     8    1
     3     9     8    1
     4     6     1    1
     5     8     2    1
     6     2     1   ar
     7     2     3   ar
     8     1     5   ar
     9     3    11    1
    10     3     4   ar
    11    11    12    1
    12    11    14    1
    13     5     4   ar
    14     4     7    1
