@<TRIPOS>MOLECULE
mol_data/opt/b3lyp/geoms/mol2/5hi5hi-5hi.out
 38 40 0 0 0
SMALL
GASTEIGER

@<TRIPOS>ATOM
      1 C          -1.7383   -1.7005   -1.5320 C.ar    1  LIG1       -0.0028
      2 C          -0.8149   -1.8715   -0.5330 C.ar    1  LIG1        0.0352
      3 C          -0.3624   -0.6259    0.0369 C.ar    1  LIG1       -0.0145
      4 C          -0.9490    0.4718   -0.5622 C.ar    1  LIG1        0.0324
      5 S          -2.0799   -0.0215   -1.8156 S.2     1  LIG1       -0.0939
      6 H          -2.2499   -2.4658   -2.0993 H       1  LIG1        0.0712
      7 N          -0.3968   -3.1059   -0.0083 N.pl3   1  LIG1       -0.3573
      8 H          -0.6410   -3.8945   -0.5942 H       1  LIG1        0.1423
      9 H           0.5907   -3.1346    0.2168 H       1  LIG1        0.1423
     10 C           0.5733   -0.5732    1.2125 C.3     1  LIG1       -0.0369
     11 H           0.5648    0.4149    1.6757 H       1  LIG1        0.0278
     12 H           1.6141   -0.7879    0.9335 H       1  LIG1        0.0278
     13 H           0.2773   -1.3151    1.9626 H       1  LIG1        0.0278
     14 C          -0.7236    1.8827   -0.2840 C.ar    1  LIG1        0.0477
     15 C           0.4826    2.5592   -0.2881 C.ar    1  LIG1        0.0436
     16 C           0.3669    3.9554    0.0371 C.ar    1  LIG1       -0.0139
     17 C          -0.9423    4.3406    0.2532 C.ar    1  LIG1        0.0330
     18 S          -2.0417    2.9813    0.0940 S.2     1  LIG1       -0.0850
     19 N           1.7267    1.9599   -0.5262 N.pl3   1  LIG1       -0.3568
     20 H           1.6408    1.0589   -0.9830 H       1  LIG1        0.1424
     21 H           2.3697    2.5567   -1.0327 H       1  LIG1        0.1424
     22 C           1.5668    4.8496    0.1840 C.3     1  LIG1       -0.0368
     23 H           1.3043    5.7714    0.7060 H       1  LIG1        0.0278
     24 H           1.9972    5.1415   -0.7839 H       1  LIG1        0.0278
     25 H           2.3535    4.3386    0.7504 H       1  LIG1        0.0278
     26 C          -1.4500    5.6690    0.5629 C.ar    1  LIG1        0.0471
     27 C          -1.2578    6.8339   -0.1579 C.ar    1  LIG1        0.0430
     28 C          -1.9173    7.9795    0.4162 C.ar    1  LIG1       -0.0222
     29 C          -2.6052    7.6516    1.5513 C.ar    1  LIG1       -0.0190
     30 S          -2.4625    5.9784    1.9697 S.2     1  LIG1       -0.0940
     31 H          -3.1875    8.3165    2.1749 H       1  LIG1        0.0697
     32 N          -0.4801    6.9318   -1.3187 N.pl3   1  LIG1       -0.3569
     33 H          -0.3261    6.0319   -1.7596 H       1  LIG1        0.1424
     34 H          -0.8432    7.5980   -1.9903 H       1  LIG1        0.1424
     35 C          -1.8454    9.3544   -0.1865 C.3     1  LIG1       -0.0374
     36 H          -2.3707   10.0846    0.4339 H       1  LIG1        0.0278
     37 H          -2.3025    9.3877   -1.1850 H       1  LIG1        0.0278
     38 H          -0.8064    9.6868   -0.2961 H       1  LIG1        0.0278
@<TRIPOS>BOND
     1     6     1    1
     2    34    32    1
     3     5     1   ar
     4     5     4   ar
     5    33    32    1
     6     1     2   ar
     7    32    27    1
     8    37    35    1
     9    21    19    1
    10    20    19    1
    11    24    22    1
    12     8     7    1
    13     4    14    1
    14     4     3   ar
    15     2     7    1
    16     2     3   ar
    17    19    15    1
    18    38    35    1
    19    15    14   ar
    20    15    16   ar
    21    14    18   ar
    22    35    28    1
    23    35    36    1
    24    27    28   ar
    25    27    26   ar
    26     7     9    1
    27     3    10    1
    28    16    22    1
    29    16    17   ar
    30    18    17   ar
    31    22    23    1
    32    22    25    1
    33    17    26    1
    34    28    29   ar
    35    26    30   ar
    36    12    10    1
    37    10    11    1
    38    10    13    1
    39    29    30   ar
    40    29    31    1
