@<TRIPOS>MOLECULE
mol_data/opt/b3lyp/geoms/mol2/5hi5hi-5hi5hi-.out
 50 53 0 0 0
SMALL
GASTEIGER

@<TRIPOS>ATOM
      1 C          -1.1558   -1.5673   -2.2878 C.ar    1  LIG1       -0.0028
      2 C          -0.7703   -1.8130   -0.9952 C.ar    1  LIG1        0.0352
      3 C          -0.5349   -0.6083   -0.2373 C.ar    1  LIG1       -0.0145
      4 C          -0.7360    0.5341   -0.9871 C.ar    1  LIG1        0.0324
      5 S          -1.2381    0.1344   -2.6249 S.2     1  LIG1       -0.0939
      6 H          -1.4168   -2.2887   -3.0498 H       1  LIG1        0.0712
      7 N          -0.6974   -3.0785   -0.3897 N.pl3   1  LIG1       -0.3573
      8 H          -0.7065   -3.8430   -1.0532 H       1  LIG1        0.1423
      9 H           0.0870   -3.1781    0.2437 H       1  LIG1        0.1423
     10 C          -0.2003   -0.6348    1.2282 C.3     1  LIG1       -0.0369
     11 H          -0.3345    0.3499    1.6788 H       1  LIG1        0.0278
     12 H           0.8393   -0.9359    1.4178 H       1  LIG1        0.0278
     13 H          -0.8466   -1.3503    1.7489 H       1  LIG1        0.0278
     14 C          -0.5671    1.9226   -0.5839 C.ar    1  LIG1        0.0477
     15 C           0.5605    2.5088   -0.0386 C.ar    1  LIG1        0.0436
     16 C           0.4032    3.9073    0.2577 C.ar    1  LIG1       -0.0139
     17 C          -0.8424    4.3864   -0.1008 C.ar    1  LIG1        0.0330
     18 S          -1.8468    3.1118   -0.7716 S.2     1  LIG1       -0.0850
     19 N           1.7436    1.8216    0.2628 N.pl3   1  LIG1       -0.3568
     20 H           1.8104    0.9343   -0.2228 H       1  LIG1        0.1424
     21 H           2.5791    2.3747    0.1138 H       1  LIG1        0.1424
     22 C           1.4730    4.7081    0.9469 C.3     1  LIG1       -0.0368
     23 H           1.0748    5.6535    1.3188 H       1  LIG1        0.0278
     24 H           2.3119    4.9534    0.2809 H       1  LIG1        0.0278
     25 H           1.8829    4.1443    1.7927 H       1  LIG1        0.0278
     26 C          -1.3505    5.7461    0.0061 C.ar    1  LIG1        0.0477
     27 C          -0.7827    6.8993   -0.5047 C.ar    1  LIG1        0.0436
     28 C          -1.5350    8.0918   -0.2211 C.ar    1  LIG1       -0.0139
     29 C          -2.6976    7.8293    0.4778 C.ar    1  LIG1        0.0330
     30 S          -2.8619    6.1161    0.8230 S.2     1  LIG1       -0.0850
     31 N           0.4374    6.9460   -1.1913 N.pl3   1  LIG1       -0.3568
     32 H           0.7169    6.0399   -1.5498 H       1  LIG1        0.1424
     33 H           0.4592    7.6428   -1.9262 H       1  LIG1        0.1424
     34 C          -1.0435    9.4614   -0.5998 C.3     1  LIG1       -0.0368
     35 H          -1.6045   10.2362   -0.0745 H       1  LIG1        0.0278
     36 H          -1.1465    9.6644   -1.6747 H       1  LIG1        0.0278
     37 H           0.0180    9.5665   -0.3486 H       1  LIG1        0.0278
     38 C          -3.7232    8.7699    0.9043 C.ar    1  LIG1        0.0471
     39 C          -4.4298    9.6612    0.1168 C.ar    1  LIG1        0.0430
     40 C          -5.3958   10.4367    0.8532 C.ar    1  LIG1       -0.0222
     41 C          -5.4078   10.1036    2.1791 C.ar    1  LIG1       -0.0190
     42 S          -4.2547    8.8769    2.5794 S.2     1  LIG1       -0.0940
     43 H          -6.0354   10.5274    2.9515 H       1  LIG1        0.0697
     44 N          -4.2308    9.8398   -1.2580 N.pl3   1  LIG1       -0.3569
     45 H          -3.7512    9.0560   -1.6863 H       1  LIG1        0.1424
     46 H          -5.0832   10.0525   -1.7627 H       1  LIG1        0.1424
     47 C          -6.2746   11.4740    0.2126 C.3     1  LIG1       -0.0374
     48 H          -6.8987   11.9755    0.9562 H       1  LIG1        0.0278
     49 H          -6.9493   11.0335   -0.5343 H       1  LIG1        0.0278
     50 H          -5.6791   12.2376   -0.3016 H       1  LIG1        0.0278
@<TRIPOS>BOND
     1     6     1    1
     2     5     1   ar
     3     5     4   ar
     4     1     2   ar
     5    33    31    1
     6    46    44    1
     7    45    44    1
     8    36    34    1
     9    32    31    1
    10    44    39    1
    11    31    27    1
    12     8     7    1
    13     2     7    1
    14     2     3   ar
    15     4    14    1
    16     4     3   ar
    17    18    14   ar
    18    18    17   ar
    19    34    37    1
    20    34    28    1
    21    34    35    1
    22    14    15   ar
    23    49    47    1
    24    27    28   ar
    25    27    26   ar
    26     7     9    1
    27    50    47    1
    28     3    10    1
    29    20    19    1
    30    28    29   ar
    31    17    26    1
    32    17    16   ar
    33    15    16   ar
    34    15    19    1
    35    26    30   ar
    36    21    19    1
    37    39    40   ar
    38    39    38   ar
    39    47    40    1
    40    47    48    1
    41    16    22    1
    42    24    22    1
    43    29    30   ar
    44    29    38    1
    45    40    41   ar
    46    38    42   ar
    47    22    23    1
    48    22    25    1
    49    10    12    1
    50    10    11    1
    51    10    13    1
    52    41    42   ar
    53    41    43    1
