@<TRIPOS>MOLECULE
mol_data/opt/b3lyp/geoms/mol2/5hi5hi5hi.out
 38 40 0 0 0
SMALL
GASTEIGER

@<TRIPOS>ATOM
      1 C          -1.7325   -1.7094   -1.5122 C.ar    1  LIG1       -0.0028
      2 C          -0.8136   -1.8743   -0.5080 C.ar    1  LIG1        0.0352
      3 C          -0.3634   -0.6254    0.0563 C.ar    1  LIG1       -0.0145
      4 C          -0.9470    0.4687   -0.5521 C.ar    1  LIG1        0.0324
      5 S          -2.0724   -0.0320   -1.8076 S.2     1  LIG1       -0.0939
      6 H          -2.2418   -2.4780   -2.0770 H       1  LIG1        0.0712
      7 N          -0.3982   -3.1056    0.0262 N.pl3   1  LIG1       -0.3573
      8 H          -0.6401   -3.8978   -0.5559 H       1  LIG1        0.1423
      9 H           0.5883   -3.1332    0.2557 H       1  LIG1        0.1423
     10 C           0.5670   -0.5657    1.2357 C.3     1  LIG1       -0.0369
     11 H           0.5566    0.4252    1.6929 H       1  LIG1        0.0278
     12 H           1.6091   -0.7822    0.9627 H       1  LIG1        0.0278
     13 H           0.2676   -1.3030    1.9890 H       1  LIG1        0.0278
     14 C          -0.7224    1.8812   -0.2817 C.ar    1  LIG1        0.0477
     15 C           0.4838    2.5575   -0.2847 C.ar    1  LIG1        0.0436
     16 C           0.3670    3.9558    0.0312 C.ar    1  LIG1       -0.0139
     17 C          -0.9430    4.3425    0.2390 C.ar    1  LIG1        0.0330
     18 S          -2.0420    2.9825    0.0834 S.2     1  LIG1       -0.0850
     19 N           1.7288    1.9565   -0.5134 N.pl3   1  LIG1       -0.3568
     20 H           1.6449    1.0527   -0.9649 H       1  LIG1        0.1424
     21 H           2.3744    2.5500   -1.0206 H       1  LIG1        0.1424
     22 C           1.5664    4.8507    0.1778 C.3     1  LIG1       -0.0368
     23 H           1.3017    5.7759    0.6925 H       1  LIG1        0.0278
     24 H           2.0014    5.1361   -0.7900 H       1  LIG1        0.0278
     25 H           2.3503    4.3432    0.7513 H       1  LIG1        0.0278
     26 C          -1.4518    5.6730    0.5380 C.ar    1  LIG1        0.0471
     27 C          -1.2560    6.8332   -0.1892 C.ar    1  LIG1        0.0430
     28 C          -1.9179    7.9826    0.3745 C.ar    1  LIG1       -0.0222
     29 C          -2.6111    7.6620    1.5084 C.ar    1  LIG1       -0.0190
     30 S          -2.4707    5.9915    1.9381 S.2     1  LIG1       -0.0940
     31 H          -3.1961    8.3310    2.1251 H       1  LIG1        0.0697
     32 N          -0.4729    6.9236   -1.3470 N.pl3   1  LIG1       -0.3569
     33 H          -0.3173    6.0209   -1.7817 H       1  LIG1        0.1424
     34 H          -0.8324    7.5858   -2.0244 H       1  LIG1        0.1424
     35 C          -1.8429    9.3536   -0.2366 C.3     1  LIG1       -0.0374
     36 H          -2.3709   10.0878    0.3768 H       1  LIG1        0.0278
     37 H          -2.2954    9.3807   -1.2374 H       1  LIG1        0.0278
     38 H          -0.8033    9.6851   -0.3435 H       1  LIG1        0.0278
@<TRIPOS>BOND
     1     6     1    1
     2    34    32    1
     3     5     1   ar
     4     5     4   ar
     5    33    32    1
     6     1     2   ar
     7    32    27    1
     8    37    35    1
     9    21    19    1
    10    20    19    1
    11    24    22    1
    12     8     7    1
    13     4    14    1
    14     4     3   ar
    15    19    15    1
    16     2     7    1
    17     2     3   ar
    18    38    35    1
    19    15    14   ar
    20    15    16   ar
    21    14    18   ar
    22    35    28    1
    23    35    36    1
    24    27    28   ar
    25    27    26   ar
    26     7     9    1
    27    16    22    1
    28    16    17   ar
    29     3    10    1
    30    18    17   ar
    31    22    23    1
    32    22    25    1
    33    17    26    1
    34    28    29   ar
    35    26    30   ar
    36    12    10    1
    37    10    11    1
    38    10    13    1
    39    29    30   ar
    40    29    31    1
