@<TRIPOS>MOLECULE
mol_data/opt/b3lyp/geoms/mol2/5hi5hi.out
 26 27 0 0 0
SMALL
GASTEIGER

@<TRIPOS>ATOM
      1 C          -2.0219   -1.7386   -0.8168 C.ar    1  LIG1       -0.0028
      2 C          -0.7715   -1.8393   -0.2634 C.ar    1  LIG1        0.0352
      3 C          -0.2396   -0.5683    0.1641 C.ar    1  LIG1       -0.0145
      4 C          -1.1033    0.4781   -0.0931 C.ar    1  LIG1        0.0324
      5 S          -2.5861   -0.0963   -0.8437 S.2     1  LIG1       -0.0939
      6 H          -2.6481   -2.5378   -1.1885 H       1  LIG1        0.0712
      7 N          -0.0795   -3.0373   -0.0181 N.pl3   1  LIG1       -0.3573
      8 H          -0.4644   -3.8314   -0.5141 H       1  LIG1        0.1423
      9 H           0.9163   -2.9700   -0.1928 H       1  LIG1        0.1423
     10 C           1.0731   -0.4483    0.8870 C.3     1  LIG1       -0.0369
     11 H           1.1651    0.5255    1.3711 H       1  LIG1        0.0278
     12 H           1.9359   -0.5562    0.2152 H       1  LIG1        0.0278
     13 H           1.1555   -1.2295    1.6511 H       1  LIG1        0.0278
     14 C          -0.9054    1.8973    0.1640 C.ar    1  LIG1        0.0470
     15 C           0.1348    2.6960   -0.2748 C.ar    1  LIG1        0.0430
     16 C           0.0192    4.0705    0.1426 C.ar    1  LIG1       -0.0222
     17 C          -1.1137    4.2829    0.8779 C.ar    1  LIG1       -0.0190
     18 S          -2.0508    2.8456    1.1064 S.2     1  LIG1       -0.0940
     19 H          -1.4444    5.2179    1.3098 H       1  LIG1        0.0697
     20 N           1.2264    2.2387   -1.0245 N.pl3   1  LIG1       -0.3569
     21 H           1.0417    1.3476   -1.4716 H       1  LIG1        0.1424
     22 H           1.5584    2.9141   -1.7031 H       1  LIG1        0.1424
     23 C           1.0334    5.1224   -0.2091 C.3     1  LIG1       -0.0374
     24 H           0.7817    6.0815    0.2502 H       1  LIG1        0.0278
     25 H           1.0928    5.2869   -1.2937 H       1  LIG1        0.0278
     26 H           2.0364    4.8364    0.1290 H       1  LIG1        0.0278
@<TRIPOS>BOND
     1    22    20    1
     2    21    20    1
     3    25    23    1
     4     6     1    1
     5    20    15    1
     6     5     1   ar
     7     5     4   ar
     8     1     2   ar
     9     8     7    1
    10    15    16   ar
    11    15    14   ar
    12     2     7    1
    13     2     3   ar
    14    23    26    1
    15    23    16    1
    16    23    24    1
    17     9     7    1
    18     4    14    1
    19     4     3   ar
    20    16    17   ar
    21    14    18   ar
    22     3    10    1
    23    12    10    1
    24    17    18   ar
    25    17    19    1
    26    10    11    1
    27    10    13    1
