@<TRIPOS>MOLECULE
mol_data/opt/b3lyp/geoms/mol2/5hi5hi-5hi-.out
 38 40 0 0 0
SMALL
GASTEIGER

@<TRIPOS>ATOM
      1 C          -1.7205   -1.6989   -1.5466 C.ar    1  LIG1       -0.0028
      2 C          -0.8078   -1.8709   -0.5379 C.ar    1  LIG1        0.0352
      3 C          -0.3619   -0.6260    0.0385 C.ar    1  LIG1       -0.0145
      4 C          -0.9425    0.4723   -0.5652 C.ar    1  LIG1        0.0324
      5 S          -2.0597   -0.0196   -1.8313 S.2     1  LIG1       -0.0939
      6 H          -2.2258   -2.4635   -2.1203 H       1  LIG1        0.0712
      7 N          -0.3948   -3.1060   -0.0106 N.pl3   1  LIG1       -0.3573
      8 H          -0.6327   -3.8938   -0.6001 H       1  LIG1        0.1423
      9 H           0.5902   -3.1347    0.2248 H       1  LIG1        0.1423
     10 C           0.5612   -0.5747    1.2242 C.3     1  LIG1       -0.0369
     11 H           0.5469    0.4126    1.6890 H       1  LIG1        0.0278
     12 H           1.6052   -0.7880    0.9559 H       1  LIG1        0.0278
     13 H           0.2578   -1.3182    1.9698 H       1  LIG1        0.0278
     14 C          -0.7205    1.8828   -0.2826 C.ar    1  LIG1        0.0477
     15 C           0.4854    2.5598   -0.2729 C.ar    1  LIG1        0.0436
     16 C           0.3657    3.9555    0.0530 C.ar    1  LIG1       -0.0139
     17 C          -0.9458    4.3400    0.2556 C.ar    1  LIG1        0.0330
     18 S          -2.0430    2.9805    0.0829 S.2     1  LIG1       -0.0850
     19 N           1.7321    1.9613   -0.4986 N.pl3   1  LIG1       -0.3568
     20 H           1.6515    1.0610   -0.9577 H       1  LIG1        0.1424
     21 H           2.3805    2.5591   -0.9970 H       1  LIG1        0.1424
     22 C           1.5637    4.8500    0.2138 C.3     1  LIG1       -0.0368
     23 H           1.2952    5.7711    0.7339 H       1  LIG1        0.0278
     24 H           2.0045    5.1429   -0.7490 H       1  LIG1        0.0278
     25 H           2.3443    4.3385    0.7883 H       1  LIG1        0.0278
     26 C          -1.4573    5.6678    0.5617 C.ar    1  LIG1        0.0471
     27 C          -1.2577    6.8337   -0.1553 C.ar    1  LIG1        0.0430
     28 C          -1.9238    7.9783    0.4132 C.ar    1  LIG1       -0.0222
     29 C          -2.6239    7.6486    1.5403 C.ar    1  LIG1       -0.0190
     30 S          -2.4851    5.9748    1.9579 S.2     1  LIG1       -0.0940
     31 H          -3.2132    8.3124    2.1585 H       1  LIG1        0.0697
     32 N          -0.4675    6.9336   -1.3074 N.pl3   1  LIG1       -0.3569
     33 H          -0.3080    6.0343   -1.7477 H       1  LIG1        0.1424
     34 H          -0.8237    7.6003   -1.9822 H       1  LIG1        0.1424
     35 C          -1.8458    9.3541   -0.1867 C.3     1  LIG1       -0.0374
     36 H          -2.3781   10.0832    0.4290 H       1  LIG1        0.0278
     37 H          -2.2919    9.3887   -1.1901 H       1  LIG1        0.0278
     38 H          -0.8057    9.6870   -0.2844 H       1  LIG1        0.0278
@<TRIPOS>BOND
     1     6     1    1
     2    34    32    1
     3     5     1   ar
     4     5     4   ar
     5    33    32    1
     6     1     2   ar
     7    32    27    1
     8    37    35    1
     9    21    19    1
    10    20    19    1
    11    24    22    1
    12     8     7    1
    13     4    14    1
    14     4     3   ar
    15     2     7    1
    16     2     3   ar
    17    19    15    1
    18    38    35    1
    19    14    15   ar
    20    14    18   ar
    21    15    16   ar
    22    35    28    1
    23    35    36    1
    24    27    28   ar
    25    27    26   ar
    26     7     9    1
    27     3    10    1
    28    16    22    1
    29    16    17   ar
    30    18    17   ar
    31    22    23    1
    32    22    25    1
    33    17    26    1
    34    28    29   ar
    35    26    30   ar
    36    12    10    1
    37    10    11    1
    38    10    13    1
    39    29    30   ar
    40    29    31    1
