@<TRIPOS>MOLECULE
mol_data/opt/b3lyp/geoms/mol2/5hi5hi5hi-.out
 38 40 0 0 0
SMALL
GASTEIGER

@<TRIPOS>ATOM
      1 C          -1.7207   -1.7000   -1.5483 C.ar    1  LIG1       -0.0028
      2 C          -0.8107   -1.8714   -0.5371 C.ar    1  LIG1        0.0352
      3 C          -0.3651   -0.6261    0.0387 C.ar    1  LIG1       -0.0145
      4 C          -0.9433    0.4718   -0.5680 C.ar    1  LIG1        0.0324
      5 S          -2.0577   -0.0208   -1.8362 S.2     1  LIG1       -0.0939
      6 H          -2.2252   -2.4650   -2.1222 H       1  LIG1        0.0712
      7 N          -0.4002   -3.1061   -0.0068 N.pl3   1  LIG1       -0.3573
      8 H          -0.6380   -3.8946   -0.5955 H       1  LIG1        0.1423
      9 H           0.5845   -3.1356    0.2301 H       1  LIG1        0.1423
     10 C           0.5550   -0.5739    1.2267 C.3     1  LIG1       -0.0369
     11 H           0.5412    0.4143    1.6895 H       1  LIG1        0.0278
     12 H           1.5992   -0.7896    0.9615 H       1  LIG1        0.0278
     13 H           0.2484   -1.3154    1.9729 H       1  LIG1        0.0278
     14 C          -0.7207    1.8826   -0.2868 C.ar    1  LIG1        0.0477
     15 C           0.4857    2.5585   -0.2750 C.ar    1  LIG1        0.0436
     16 C           0.3665    3.9548    0.0485 C.ar    1  LIG1       -0.0139
     17 C          -0.9452    4.3407    0.2472 C.ar    1  LIG1        0.0330
     18 S          -2.0431    2.9820    0.0735 S.2     1  LIG1       -0.0850
     19 N           1.7325    1.9585   -0.4964 N.pl3   1  LIG1       -0.3568
     20 H           1.6523    1.0575   -0.9543 H       1  LIG1        0.1424
     21 H           2.3828    2.5550   -0.9940 H       1  LIG1        0.1424
     22 C           1.5649    4.8483    0.2112 C.3     1  LIG1       -0.0368
     23 H           1.2959    5.7705    0.7293 H       1  LIG1        0.0278
     24 H           2.0085    5.1396   -0.7508 H       1  LIG1        0.0278
     25 H           2.3435    4.3370    0.7885 H       1  LIG1        0.0278
     26 C          -1.4564    5.6694    0.5500 C.ar    1  LIG1        0.0471
     27 C          -1.2539    6.8342   -0.1680 C.ar    1  LIG1        0.0430
     28 C          -1.9202    7.9802    0.3975 C.ar    1  LIG1       -0.0222
     29 C          -2.6233    7.6526    1.5233 C.ar    1  LIG1       -0.0190
     30 S          -2.4872    5.9792    1.9434 S.2     1  LIG1       -0.0940
     31 H          -3.2135    8.3178    2.1392 H       1  LIG1        0.0697
     32 N          -0.4608    6.9319   -1.3183 N.pl3   1  LIG1       -0.3569
     33 H          -0.3014    6.0319   -1.7572 H       1  LIG1        0.1424
     34 H          -0.8146    7.5982   -1.9947 H       1  LIG1        0.1424
     35 C          -1.8396    9.3551   -0.2041 C.3     1  LIG1       -0.0374
     36 H          -2.3725   10.0856    0.4095 H       1  LIG1        0.0278
     37 H          -2.2835    9.3888   -1.2086 H       1  LIG1        0.0278
     38 H          -0.7990    9.6868   -0.3000 H       1  LIG1        0.0278
@<TRIPOS>BOND
     1     6     1    1
     2    34    32    1
     3     5     1   ar
     4     5     4   ar
     5    33    32    1
     6     1     2   ar
     7    32    27    1
     8    37    35    1
     9    21    19    1
    10    20    19    1
    11    24    22    1
    12     8     7    1
    13     4    14    1
    14     4     3   ar
    15     2     7    1
    16     2     3   ar
    17    19    15    1
    18    38    35    1
    19    14    15   ar
    20    14    18   ar
    21    15    16   ar
    22    35    28    1
    23    35    36    1
    24    27    28   ar
    25    27    26   ar
    26     7     9    1
    27     3    10    1
    28    16    22    1
    29    16    17   ar
    30    18    17   ar
    31    22    23    1
    32    22    25    1
    33    17    26    1
    34    28    29   ar
    35    26    30   ar
    36    12    10    1
    37    10    11    1
    38    10    13    1
    39    29    30   ar
    40    29    31    1
