@<TRIPOS>MOLECULE
mol_data/opt/b3lyp/geoms/mol2/5hi5hi5hi-5hi.out
 50 53 0 0 0
SMALL
GASTEIGER

@<TRIPOS>ATOM
      1 C          -1.1204   -1.5642   -2.3094 C.ar    1  LIG1       -0.0028
      2 C          -0.7581   -1.8121   -1.0106 C.ar    1  LIG1        0.0352
      3 C          -0.5351   -0.6088   -0.2468 C.ar    1  LIG1       -0.0145
      4 C          -0.7219    0.5349   -0.9984 C.ar    1  LIG1        0.0324
      5 S          -1.1953    0.1382   -2.6453 S.2     1  LIG1       -0.0939
      6 H          -1.3683   -2.2842   -3.0771 H       1  LIG1        0.0712
      7 N          -0.6971   -3.0785   -0.4057 N.pl3   1  LIG1       -0.3573
      8 H          -0.6959   -3.8421   -1.0704 H       1  LIG1        0.1423
      9 H           0.0766   -3.1800    0.2405 H       1  LIG1        0.1423
     10 C          -0.2266   -0.6377    1.2244 C.3     1  LIG1       -0.0369
     11 H          -0.3673    0.3466    1.6738 H       1  LIG1        0.0278
     12 H           0.8090   -0.9406    1.4319 H       1  LIG1        0.0278
     13 H          -0.8831   -1.3530    1.7324 H       1  LIG1        0.0278
     14 C          -0.5591    1.9227   -0.5902 C.ar    1  LIG1        0.0477
     15 C           0.5591    2.5074   -0.0244 C.ar    1  LIG1        0.0436
     16 C           0.3976    3.9056    0.2711 C.ar    1  LIG1       -0.0139
     17 C          -0.8412    4.3860   -0.1085 C.ar    1  LIG1        0.0330
     18 S          -1.8345    3.1130   -0.7986 S.2     1  LIG1       -0.0850
     19 N           1.7362    1.8189    0.2969 N.pl3   1  LIG1       -0.3568
     20 H           1.8108    0.9320   -0.1885 H       1  LIG1        0.1424
     21 H           2.5746    2.3715    0.1631 H       1  LIG1        0.1424
     22 C           1.4557    4.7045    0.9803 C.3     1  LIG1       -0.0368
     23 H           1.0514    5.6493    1.3471 H       1  LIG1        0.0278
     24 H           2.3060    4.9508    0.3295 H       1  LIG1        0.0278
     25 H           1.8505    4.1389    1.8320 H       1  LIG1        0.0278
     26 C          -1.3502    5.7458   -0.0085 C.ar    1  LIG1        0.0477
     27 C          -0.7727    6.8995   -0.5070 C.ar    1  LIG1        0.0436
     28 C          -1.5292    8.0920   -0.2351 C.ar    1  LIG1       -0.0139
     29 C          -2.7043    7.8291    0.4425 C.ar    1  LIG1        0.0330
     30 S          -2.8758    6.1154    0.7817 S.2     1  LIG1       -0.0850
     31 N           0.4597    6.9466   -1.1715 N.pl3   1  LIG1       -0.3568
     32 H           0.7449    6.0409   -1.5265 H       1  LIG1        0.1424
     33 H           0.4949    7.6445   -1.9049 H       1  LIG1        0.1424
     34 C          -1.0301    9.4619   -0.6026 C.3     1  LIG1       -0.0368
     35 H          -1.6002   10.2362   -0.0865 H       1  LIG1        0.0278
     36 H          -1.1134    9.6666   -1.6789 H       1  LIG1        0.0278
     37 H           0.0268    9.5660   -0.3319 H       1  LIG1        0.0278
     38 C          -3.7369    8.7696    0.8520 C.ar    1  LIG1        0.0471
     39 C          -4.4284    9.6629    0.0536 C.ar    1  LIG1        0.0430
     40 C          -5.4065   10.4383    0.7741 C.ar    1  LIG1       -0.0222
     41 C          -5.4421   10.1032    2.0991 C.ar    1  LIG1       -0.0190
     42 S          -4.2974    8.8747    2.5177 S.2     1  LIG1       -0.0940
     43 H          -6.0829   10.5264    2.8609 H       1  LIG1        0.0697
     44 N          -4.2051    9.8434   -1.3172 N.pl3   1  LIG1       -0.3569
     45 H          -3.7188    9.0597   -1.7382 H       1  LIG1        0.1424
     46 H          -5.0482   10.0579   -1.8366 H       1  LIG1        0.1424
     47 C          -6.2729   11.4773    0.1196 C.3     1  LIG1       -0.0374
     48 H          -6.9095   11.9784    0.8528 H       1  LIG1        0.0278
     49 H          -6.9348   11.0385   -0.6397 H       1  LIG1        0.0278
     50 H          -5.6676   12.2410   -0.3830 H       1  LIG1        0.0278
@<TRIPOS>BOND
     1     6     1    1
     2     5     1   ar
     3     5     4   ar
     4     1     2   ar
     5    33    31    1
     6    46    44    1
     7    45    44    1
     8    36    34    1
     9    32    31    1
    10    44    39    1
    11    31    27    1
    12     8     7    1
    13     2     7    1
    14     2     3   ar
    15     4    14    1
    16     4     3   ar
    17    18    14   ar
    18    18    17   ar
    19    49    47    1
    20    34    37    1
    21    34    28    1
    22    34    35    1
    23    14    15   ar
    24    27    28   ar
    25    27    26   ar
    26     7     9    1
    27    50    47    1
    28     3    10    1
    29    28    29   ar
    30    20    19    1
    31    17    26    1
    32    17    16   ar
    33    15    16   ar
    34    15    19    1
    35    26    30   ar
    36    39    40   ar
    37    39    38   ar
    38    47    40    1
    39    47    48    1
    40    21    19    1
    41    16    22    1
    42    24    22    1
    43    29    30   ar
    44    29    38    1
    45    40    41   ar
    46    38    42   ar
    47    22    23    1
    48    22    25    1
    49    10    12    1
    50    10    11    1
    51    10    13    1
    52    41    42   ar
    53    41    43    1
