@<TRIPOS>MOLECULE
mol_data/opt/b3lyp/geoms/mol2/5hi5hi5hi5hi-.out
 50 53 0 0 0
SMALL
GASTEIGER

@<TRIPOS>ATOM
      1 C          -1.1430   -1.5768   -2.2772 C.ar    1  LIG1       -0.0028
      2 C          -0.7677   -1.8174   -0.9806 C.ar    1  LIG1        0.0352
      3 C          -0.5373   -0.6097   -0.2260 C.ar    1  LIG1       -0.0145
      4 C          -0.7315    0.5297   -0.9821 C.ar    1  LIG1        0.0324
      5 S          -1.2212    0.1236   -2.6220 S.2     1  LIG1       -0.0939
      6 H          -1.3985   -2.3011   -3.0383 H       1  LIG1        0.0712
      7 N          -0.7007   -3.0804   -0.3692 N.pl3   1  LIG1       -0.3573
      8 H          -0.7059   -3.8476   -1.0296 H       1  LIG1        0.1423
      9 H           0.0794   -3.1782    0.2698 H       1  LIG1        0.1423
     10 C          -0.2141   -0.6303    1.2422 C.3     1  LIG1       -0.0369
     11 H          -0.3506    0.3565    1.6874 H       1  LIG1        0.0278
     12 H           0.8237   -0.9317    1.4411 H       1  LIG1        0.0278
     13 H          -0.8652   -1.3429    1.7608 H       1  LIG1        0.0278
     14 C          -0.5648    1.9197   -0.5833 C.ar    1  LIG1        0.0477
     15 C           0.5590    2.5074   -0.0318 C.ar    1  LIG1        0.0436
     16 C           0.4005    3.9072    0.2575 C.ar    1  LIG1       -0.0139
     17 C          -0.8421    4.3857   -0.1125 C.ar    1  LIG1        0.0330
     18 S          -1.8422    3.1089   -0.7856 S.2     1  LIG1       -0.0850
     19 N           1.7392    1.8206    0.2815 N.pl3   1  LIG1       -0.3568
     20 H           1.8090    0.9311   -0.1999 H       1  LIG1        0.1424
     21 H           2.5762    2.3724    0.1364 H       1  LIG1        0.1424
     22 C           1.4654    4.7099    0.9519 C.3     1  LIG1       -0.0368
     23 H           1.0649    5.6569    1.3172 H       1  LIG1        0.0278
     24 H           2.3094    4.9524    0.2914 H       1  LIG1        0.0278
     25 H           1.8685    4.1491    1.8028 H       1  LIG1        0.0278
     26 C          -1.3501    5.7460   -0.0149 C.ar    1  LIG1        0.0477
     27 C          -0.7775    6.8969   -0.5255 C.ar    1  LIG1        0.0436
     28 C          -1.5313    8.0909   -0.2527 C.ar    1  LIG1       -0.0139
     29 C          -2.6996    7.8318    0.4379 C.ar    1  LIG1        0.0330
     30 S          -2.8677    6.1201    0.7883 S.2     1  LIG1       -0.0850
     31 N           0.4483    6.9403   -1.2024 N.pl3   1  LIG1       -0.3568
     32 H           0.7299    6.0326   -1.5553 H       1  LIG1        0.1424
     33 H           0.4763    7.6341   -1.9398 H       1  LIG1        0.1424
     34 C          -1.0358    9.4588   -0.6326 C.3     1  LIG1       -0.0368
     35 H          -1.6008   10.2359   -0.1152 H       1  LIG1        0.0278
     36 H          -1.1297    9.6575   -1.7092 H       1  LIG1        0.0278
     37 H           0.0237    9.5643   -0.3729 H       1  LIG1        0.0278
     38 C          -3.7280    8.7747    0.8524 C.ar    1  LIG1        0.0471
     39 C          -4.4274    9.6637    0.0560 C.ar    1  LIG1        0.0430
     40 C          -5.3983   10.4431    0.7818 C.ar    1  LIG1       -0.0222
     41 C          -5.4210   10.1153    2.1089 C.ar    1  LIG1       -0.0190
     42 S          -4.2723    8.8889    2.5230 S.2     1  LIG1       -0.0940
     43 H          -6.0542   10.5426    2.8747 H       1  LIG1        0.0697
     44 N          -4.2175    9.8367   -1.3178 N.pl3   1  LIG1       -0.3569
     45 H          -3.7354    9.0506   -1.7394 H       1  LIG1        0.1424
     46 H          -5.0656   10.0484   -1.8301 H       1  LIG1        0.1424
     47 C          -6.2711   11.4786    0.1302 C.3     1  LIG1       -0.0374
     48 H          -6.9005   11.9837    0.8669 H       1  LIG1        0.0278
     49 H          -6.9404   11.0357   -0.6202 H       1  LIG1        0.0278
     50 H          -5.6707   12.2395   -0.3824 H       1  LIG1        0.0278
@<TRIPOS>BOND
     1     6     1    1
     2     5     1   ar
     3     5     4   ar
     4     1     2   ar
     5    33    31    1
     6    46    44    1
     7    45    44    1
     8    36    34    1
     9    32    31    1
    10    44    39    1
    11    31    27    1
    12     8     7    1
    13     4    14    1
    14     4     3   ar
    15     2     7    1
    16     2     3   ar
    17    18    14   ar
    18    18    17   ar
    19    34    37    1
    20    34    28    1
    21    34    35    1
    22    49    47    1
    23    14    15   ar
    24    27    28   ar
    25    27    26   ar
    26    50    47    1
    27     7     9    1
    28    28    29   ar
    29     3    10    1
    30    20    19    1
    31    17    26    1
    32    17    16   ar
    33    15    16   ar
    34    15    19    1
    35    26    30   ar
    36    39    40   ar
    37    39    38   ar
    38    47    40    1
    39    47    48    1
    40    21    19    1
    41    16    22    1
    42    24    22    1
    43    29    30   ar
    44    29    38    1
    45    40    41   ar
    46    38    42   ar
    47    22    23    1
    48    22    25    1
    49    10    12    1
    50    10    11    1
    51    10    13    1
    52    41    42   ar
    53    41    43    1
