@<TRIPOS>MOLECULE
mol_data/opt/b3lyp/geoms/mol2/5hi5hi-.out
 26 27 0 0 0
SMALL
GASTEIGER

@<TRIPOS>ATOM
      1 C          -2.0261   -1.7362   -0.8244 C.ar    1  LIG1       -0.0028
      2 C          -0.7731   -1.8382   -0.2771 C.ar    1  LIG1        0.0352
      3 C          -0.2393   -0.5684    0.1512 C.ar    1  LIG1       -0.0145
      4 C          -1.1043    0.4786   -0.0992 C.ar    1  LIG1        0.0324
      5 S          -2.5905   -0.0938   -0.8444 S.2     1  LIG1       -0.0939
      6 H          -2.6540   -2.5344   -1.1955 H       1  LIG1        0.0712
      7 N          -0.0798   -3.0369   -0.0380 N.pl3   1  LIG1       -0.3573
      8 H          -0.4677   -3.8299   -0.5336 H       1  LIG1        0.1423
      9 H           0.9149   -2.9694   -0.2186 H       1  LIG1        0.1423
     10 C           1.0765   -0.4504    0.8689 C.3     1  LIG1       -0.0369
     11 H           1.1707    0.5222    1.3550 H       1  LIG1        0.0278
     12 H           1.9364   -0.5568    0.1933 H       1  LIG1        0.0278
     13 H           1.1618   -1.2335    1.6307 H       1  LIG1        0.0278
     14 C          -0.9051    1.8972    0.1608 C.ar    1  LIG1        0.0470
     15 C           0.1336    2.6966   -0.2802 C.ar    1  LIG1        0.0430
     16 C           0.0201    4.0702    0.1412 C.ar    1  LIG1       -0.0222
     17 C          -1.1098    4.2809    0.8817 C.ar    1  LIG1       -0.0190
     18 S          -2.0463    2.8433    1.1102 S.2     1  LIG1       -0.0940
     19 H          -1.4385    5.2149    1.3172 H       1  LIG1        0.0697
     20 N           1.2219    2.2410   -1.0356 N.pl3   1  LIG1       -0.3569
     21 H           1.0351    1.3511   -1.4843 H       1  LIG1        0.1424
     22 H           1.5514    2.9181   -1.7137 H       1  LIG1        0.1424
     23 C           1.0331    5.1226   -0.2119 C.3     1  LIG1       -0.0374
     24 H           0.7837    6.0806    0.2509 H       1  LIG1        0.0278
     25 H           1.0881    5.2899   -1.2964 H       1  LIG1        0.0278
     26 H           2.0374    4.8354    0.1212 H       1  LIG1        0.0278
@<TRIPOS>BOND
     1    22    20    1
     2    21    20    1
     3    25    23    1
     4     6     1    1
     5    20    15    1
     6     5     1   ar
     7     5     4   ar
     8     1     2   ar
     9     8     7    1
    10    15    16   ar
    11    15    14   ar
    12     2     7    1
    13     2     3   ar
    14     9     7    1
    15    23    26    1
    16    23    16    1
    17    23    24    1
    18     4     3   ar
    19     4    14    1
    20    16    17   ar
    21     3    10    1
    22    14    18   ar
    23    12    10    1
    24    10    11    1
    25    10    13    1
    26    17    18   ar
    27    17    19    1
