@<TRIPOS>MOLECULE
mol_data/opt/b3lyp/geoms/mol2/5hi5hi-5hi-5hi.out
 50 53 0 0 0
SMALL
GASTEIGER

@<TRIPOS>ATOM
      1 C          -1.1341   -1.5594   -2.3065 C.ar    1  LIG1       -0.0028
      2 C          -0.7612   -1.8095   -1.0110 C.ar    1  LIG1        0.0352
      3 C          -0.5329   -0.6075   -0.2468 C.ar    1  LIG1       -0.0145
      4 C          -0.7265    0.5375   -0.9946 C.ar    1  LIG1        0.0324
      5 S          -1.2129    0.1436   -2.6385 S.2     1  LIG1       -0.0939
      6 H          -1.3876   -2.2780   -3.0735 H       1  LIG1        0.0712
      7 N          -0.6945   -3.0771   -0.4091 N.pl3   1  LIG1       -0.3573
      8 H          -0.6981   -3.8393   -1.0753 H       1  LIG1        0.1423
      9 H           0.0846   -3.1793    0.2305 H       1  LIG1        0.1423
     10 C          -0.2126   -0.6391    1.2218 C.3     1  LIG1       -0.0369
     11 H          -0.3508    0.3442    1.6743 H       1  LIG1        0.0278
     12 H           0.8250   -0.9412    1.4205 H       1  LIG1        0.0278
     13 H          -0.8643   -1.3561    1.7337 H       1  LIG1        0.0278
     14 C          -0.5615    1.9245   -0.5851 C.ar    1  LIG1        0.0477
     15 C           0.5609    2.5088   -0.0270 C.ar    1  LIG1        0.0436
     16 C           0.4009    3.9063    0.2726 C.ar    1  LIG1       -0.0139
     17 C          -0.8413    4.3867   -0.0960 C.ar    1  LIG1        0.0330
     18 S          -1.8393    3.1144   -0.7806 S.2     1  LIG1       -0.0850
     19 N           1.7410    1.8205    0.2833 N.pl3   1  LIG1       -0.3568
     20 H           1.8124    0.9348   -0.2046 H       1  LIG1        0.1424
     21 H           2.5780    2.3740    0.1440 H       1  LIG1        0.1424
     22 C           1.4640    4.7045    0.9749 C.3     1  LIG1       -0.0368
     23 H           1.0622    5.6486    1.3463 H       1  LIG1        0.0278
     24 H           2.3093    4.9522    0.3179 H       1  LIG1        0.0278
     25 H           1.8657    4.1377    1.8226 H       1  LIG1        0.0278
     26 C          -1.3505    5.7459    0.0110 C.ar    1  LIG1        0.0477
     27 C          -0.7778    6.9011   -0.4899 C.ar    1  LIG1        0.0436
     28 C          -1.5331    8.0924   -0.2097 C.ar    1  LIG1       -0.0139
     29 C          -2.7026    7.8272    0.4767 C.ar    1  LIG1        0.0330
     30 S          -2.8700    6.1127    0.8139 S.2     1  LIG1       -0.0850
     31 N           0.4491    6.9504   -1.1641 N.pl3   1  LIG1       -0.3568
     32 H           0.7323    6.0456   -1.5231 H       1  LIG1        0.1424
     33 H           0.4780    7.6497   -1.8964 H       1  LIG1        0.1424
     34 C          -1.0380    9.4634   -0.5784 C.3     1  LIG1       -0.0368
     35 H          -1.6046   10.2362   -0.0563 H       1  LIG1        0.0278
     36 H          -1.1299    9.6700   -1.6536 H       1  LIG1        0.0278
     37 H           0.0209    9.5678   -0.3159 H       1  LIG1        0.0278
     38 C          -3.7325    8.7661    0.8964 C.ar    1  LIG1        0.0471
     39 C          -4.4310    9.6606    0.1054 C.ar    1  LIG1        0.0430
     40 C          -5.4039   10.4338    0.8352 C.ar    1  LIG1       -0.0222
     41 C          -5.4287   10.0960    2.1598 C.ar    1  LIG1       -0.0190
     42 S          -4.2798    8.8674    2.5667 S.2     1  LIG1       -0.0940
     43 H          -6.0637   10.5171    2.9276 H       1  LIG1        0.0697
     44 N          -4.2187    9.8441   -1.2667 N.pl3   1  LIG1       -0.3569
     45 H          -3.7353    9.0616   -1.6933 H       1  LIG1        0.1424
     46 H          -5.0661   10.0590   -1.7789 H       1  LIG1        0.1424
     47 C          -6.2762   11.4736    0.1898 C.3     1  LIG1       -0.0374
     48 H          -6.9072   11.9728    0.9292 H       1  LIG1        0.0278
     49 H          -6.9439   11.0358   -0.5649 H       1  LIG1        0.0278
     50 H          -5.6755   12.2386   -0.3161 H       1  LIG1        0.0278
@<TRIPOS>BOND
     1     6     1    1
     2     5     1   ar
     3     5     4   ar
     4     1     2   ar
     5    33    31    1
     6    46    44    1
     7    45    44    1
     8    36    34    1
     9    32    31    1
    10    44    39    1
    11    31    27    1
    12     8     7    1
    13     2     7    1
    14     2     3   ar
    15     4    14    1
    16     4     3   ar
    17    18    14   ar
    18    18    17   ar
    19    14    15   ar
    20    34    37    1
    21    34    28    1
    22    34    35    1
    23    49    47    1
    24    27    28   ar
    25    27    26   ar
    26     7     9    1
    27    50    47    1
    28     3    10    1
    29    28    29   ar
    30    20    19    1
    31    17    26    1
    32    17    16   ar
    33    15    16   ar
    34    15    19    1
    35    26    30   ar
    36    39    40   ar
    37    39    38   ar
    38    21    19    1
    39    47    40    1
    40    47    48    1
    41    16    22    1
    42    24    22    1
    43    29    30   ar
    44    29    38    1
    45    40    41   ar
    46    38    42   ar
    47    22    23    1
    48    22    25    1
    49    10    12    1
    50    10    11    1
    51    10    13    1
    52    41    42   ar
    53    41    43    1
