@<TRIPOS>MOLECULE
mol_data/opt/b3lyp/geoms/mol2/5hi5hi-5hi5hi.out
 50 53 0 0 0
SMALL
GASTEIGER

@<TRIPOS>ATOM
      1 C          -1.1515   -1.5610   -2.3007 C.ar    1  LIG1       -0.0028
      2 C          -0.7665   -1.8099   -1.0085 C.ar    1  LIG1        0.0352
      3 C          -0.5318   -0.6071   -0.2474 C.ar    1  LIG1       -0.0145
      4 C          -0.7329    0.5371   -0.9944 C.ar    1  LIG1        0.0324
      5 S          -1.2341    0.1416   -2.6334 S.2     1  LIG1       -0.0939
      6 H          -1.4117   -2.2804   -3.0648 H       1  LIG1        0.0712
      7 N          -0.6936   -3.0770   -0.4062 N.pl3   1  LIG1       -0.3573
      8 H          -0.7031   -3.8397   -1.0717 H       1  LIG1        0.1423
      9 H           0.0914   -3.1783    0.2262 H       1  LIG1        0.1423
     10 C          -0.1979   -0.6373    1.2182 C.3     1  LIG1       -0.0369
     11 H          -0.3326    0.3462    1.6711 H       1  LIG1        0.0278
     12 H           0.8417   -0.9386    1.4075 H       1  LIG1        0.0278
     13 H          -0.8443   -1.3544    1.7366 H       1  LIG1        0.0278
     14 C          -0.5648    1.9246   -0.5875 C.ar    1  LIG1        0.0477
     15 C           0.5623    2.5100   -0.0403 C.ar    1  LIG1        0.0436
     16 C           0.4042    3.9076    0.2597 C.ar    1  LIG1       -0.0139
     17 C          -0.8416    4.3870   -0.0978 C.ar    1  LIG1        0.0330
     18 S          -1.8451    3.1136   -0.7722 S.2     1  LIG1       -0.0850
     19 N           1.7456    1.8226    0.2596 N.pl3   1  LIG1       -0.3568
     20 H           1.8130    0.9365   -0.2283 H       1  LIG1        0.1424
     21 H           2.5809    2.3765    0.1122 H       1  LIG1        0.1424
     22 C           1.4734    4.7070    0.9515 C.3     1  LIG1       -0.0368
     23 H           1.0744    5.6510    1.3262 H       1  LIG1        0.0278
     24 H           2.3121    4.9550    0.2864 H       1  LIG1        0.0278
     25 H           1.8835    4.1410    1.7956 H       1  LIG1        0.0278
     26 C          -1.3505    5.7460    0.0127 C.ar    1  LIG1        0.0477
     27 C          -0.7832    6.9011   -0.4944 C.ar    1  LIG1        0.0436
     28 C          -1.5364    8.0922   -0.2080 C.ar    1  LIG1       -0.0139
     29 C          -2.6992    7.8270    0.4896 C.ar    1  LIG1        0.0330
     30 S          -2.8626    6.1127    0.8297 S.2     1  LIG1       -0.0850
     31 N           0.4374    6.9505   -1.1802 N.pl3   1  LIG1       -0.3568
     32 H           0.7176    6.0456   -1.5411 H       1  LIG1        0.1424
     33 H           0.4590    7.6492   -1.9133 H       1  LIG1        0.1424
     34 C          -1.0455    9.4632   -0.5825 C.3     1  LIG1       -0.0368
     35 H          -1.6078   10.2362   -0.0560 H       1  LIG1        0.0278
     36 H          -1.1473    9.6688   -1.6571 H       1  LIG1        0.0278
     37 H           0.0157    9.5685   -0.3297 H       1  LIG1        0.0278
     38 C          -3.7257    8.7657    0.9181 C.ar    1  LIG1        0.0471
     39 C          -4.4321    9.6591    0.1329 C.ar    1  LIG1        0.0430
     40 C          -5.3987   10.4322    0.8712 C.ar    1  LIG1       -0.0222
     41 C          -5.4110   10.0955    2.1962 C.ar    1  LIG1       -0.0190
     42 S          -4.2576    8.8680    2.5934 S.2     1  LIG1       -0.0940
     43 H          -6.0390   10.5168    2.9695 H       1  LIG1        0.0697
     44 N          -4.2328    9.8416   -1.2413 N.pl3   1  LIG1       -0.3569
     45 H          -3.7528    9.0591   -1.6717 H       1  LIG1        0.1424
     46 H          -5.0850   10.0556   -1.7458 H       1  LIG1        0.1424
     47 C          -6.2777   11.4709    0.2330 C.3     1  LIG1       -0.0374
     48 H          -6.9022   11.9702    0.9778 H       1  LIG1        0.0278
     49 H          -6.9520   11.0321   -0.5152 H       1  LIG1        0.0278
     50 H          -5.6822   12.2360   -0.2790 H       1  LIG1        0.0278
@<TRIPOS>BOND
     1     6     1    1
     2     5     1   ar
     3     5     4   ar
     4     1     2   ar
     5    33    31    1
     6    46    44    1
     7    45    44    1
     8    36    34    1
     9    32    31    1
    10    44    39    1
    11    31    27    1
    12     8     7    1
    13     2     7    1
    14     2     3   ar
    15     4    14    1
    16     4     3   ar
    17    18    14   ar
    18    18    17   ar
    19    14    15   ar
    20    34    37    1
    21    34    28    1
    22    34    35    1
    23    49    47    1
    24    27    28   ar
    25    27    26   ar
    26     7     9    1
    27    50    47    1
    28     3    10    1
    29    20    19    1
    30    28    29   ar
    31    17    26    1
    32    17    16   ar
    33    15    19    1
    34    15    16   ar
    35    26    30   ar
    36    21    19    1
    37    39    40   ar
    38    39    38   ar
    39    47    40    1
    40    47    48    1
    41    16    22    1
    42    24    22    1
    43    29    30   ar
    44    29    38    1
    45    40    41   ar
    46    38    42   ar
    47    22    23    1
    48    22    25    1
    49    10    12    1
    50    10    11    1
    51    10    13    1
    52    41    42   ar
    53    41    43    1
