@<TRIPOS>MOLECULE
mol_data/opt/b3lyp/geoms/mol2/5hi5hi-5hi-5hi-.out
 50 53 0 0 0
SMALL
GASTEIGER

@<TRIPOS>ATOM
      1 C          -1.1336   -1.5677   -2.2873 C.ar    1  LIG1       -0.0028
      2 C          -0.7619   -1.8132   -0.9907 C.ar    1  LIG1        0.0352
      3 C          -0.5341   -0.6085   -0.2305 C.ar    1  LIG1       -0.0145
      4 C          -0.7269    0.5338   -0.9826 C.ar    1  LIG1        0.0324
      5 S          -1.2118    0.1341   -2.6255 S.2     1  LIG1       -0.0939
      6 H          -1.3866   -2.2891   -3.0520 H       1  LIG1        0.0712
      7 N          -0.6958   -3.0787   -0.3842 N.pl3   1  LIG1       -0.3573
      8 H          -0.6983   -3.8432   -1.0477 H       1  LIG1        0.1423
      9 H           0.0823   -3.1784    0.2570 H       1  LIG1        0.1423
     10 C          -0.2149   -0.6347    1.2384 C.3     1  LIG1       -0.0369
     11 H          -0.3537    0.3501    1.6873 H       1  LIG1        0.0278
     12 H           0.8227   -0.9358    1.4389 H       1  LIG1        0.0278
     13 H          -0.8667   -1.3501    1.7524 H       1  LIG1        0.0278
     14 C          -0.5620    1.9223   -0.5779 C.ar    1  LIG1        0.0477
     15 C           0.5601    2.5085   -0.0212 C.ar    1  LIG1        0.0436
     16 C           0.4000    3.9070    0.2733 C.ar    1  LIG1       -0.0139
     17 C          -0.8418    4.3862   -0.0979 C.ar    1  LIG1        0.0330
     18 S          -1.8395    3.1117   -0.7787 S.2     1  LIG1       -0.0850
     19 N           1.7399    1.8211    0.2924 N.pl3   1  LIG1       -0.3568
     20 H           1.8116    0.9337   -0.1925 H       1  LIG1        0.1424
     21 H           2.5770    2.3740    0.1520 H       1  LIG1        0.1424
     22 C           1.4628    4.7077    0.9734 C.3     1  LIG1       -0.0368
     23 H           1.0609    5.6532    1.3411 H       1  LIG1        0.0278
     24 H           2.3084    4.9529    0.3160 H       1  LIG1        0.0278
     25 H           1.8640    4.1440    1.8233 H       1  LIG1        0.0278
     26 C          -1.3508    5.7459    0.0038 C.ar    1  LIG1        0.0477
     27 C          -0.7775    6.8991   -0.5009 C.ar    1  LIG1        0.0436
     28 C          -1.5326    8.0917   -0.2254 C.ar    1  LIG1       -0.0139
     29 C          -2.7026    7.8293    0.4611 C.ar    1  LIG1        0.0330
     30 S          -2.8708    6.1161    0.8045 S.2     1  LIG1       -0.0850
     31 N           0.4499    6.9457   -1.1744 N.pl3   1  LIG1       -0.3568
     32 H           0.7331    6.0395   -1.5298 H       1  LIG1        0.1424
     33 H           0.4793    7.6422   -1.9094 H       1  LIG1        0.1424
     34 C          -1.0369    9.4612   -0.5988 C.3     1  LIG1       -0.0368
     35 H          -1.6035   10.2361   -0.0798 H       1  LIG1        0.0278
     36 H          -1.1281    9.6640   -1.6748 H       1  LIG1        0.0278
     37 H           0.0219    9.5661   -0.3360 H       1  LIG1        0.0278
     38 C          -3.7326    8.7700    0.8767 C.ar    1  LIG1        0.0471
     39 C          -4.4304    9.6617    0.0821 C.ar    1  LIG1        0.0430
     40 C          -5.4037   10.4377    0.8085 C.ar    1  LIG1       -0.0222
     41 C          -5.4295   10.1045    2.1342 C.ar    1  LIG1       -0.0190
     42 S          -4.2812    8.8772    2.5463 S.2     1  LIG1       -0.0940
     43 H          -6.0649   10.5285    2.9001 H       1  LIG1        0.0697
     44 N          -4.2172    9.8404   -1.2905 N.pl3   1  LIG1       -0.3569
     45 H          -3.7336    9.0563   -1.7139 H       1  LIG1        0.1424
     46 H          -5.0643   10.0534   -1.8040 H       1  LIG1        0.1424
     47 C          -6.2754   11.4753    0.1588 C.3     1  LIG1       -0.0374
     48 H          -6.9070   11.9771    0.8960 H       1  LIG1        0.0278
     49 H          -6.9425   11.0350   -0.5950 H       1  LIG1        0.0278
     50 H          -5.6741   12.2386   -0.3492 H       1  LIG1        0.0278
@<TRIPOS>BOND
     1     6     1    1
     2     5     1   ar
     3     5     4   ar
     4     1     2   ar
     5    33    31    1
     6    46    44    1
     7    45    44    1
     8    36    34    1
     9    32    31    1
    10    44    39    1
    11    31    27    1
    12     8     7    1
    13     2     7    1
    14     2     3   ar
    15     4    14    1
    16     4     3   ar
    17    18    14   ar
    18    18    17   ar
    19    34    37    1
    20    34    28    1
    21    34    35    1
    22    49    47    1
    23    14    15   ar
    24    27    28   ar
    25    27    26   ar
    26     7     9    1
    27    50    47    1
    28     3    10    1
    29    28    29   ar
    30    20    19    1
    31    17    26    1
    32    17    16   ar
    33    15    16   ar
    34    15    19    1
    35    26    30   ar
    36    39    40   ar
    37    39    38   ar
    38    21    19    1
    39    47    40    1
    40    47    48    1
    41    16    22    1
    42    24    22    1
    43    29    30   ar
    44    29    38    1
    45    40    41   ar
    46    38    42   ar
    47    22    23    1
    48    22    25    1
    49    10    12    1
    50    10    11    1
    51    10    13    1
    52    41    42   ar
    53    41    43    1
