@<TRIPOS>MOLECULE
mol_data/opt/b3lyp/geoms/mol2/5hi5hi5hi-5hi-.out
 50 53 0 0 0
SMALL
GASTEIGER

@<TRIPOS>ATOM
      1 C          -1.1215   -1.5737   -2.2868 C.ar    1  LIG1       -0.0028
      2 C          -0.7574   -1.8160   -0.9873 C.ar    1  LIG1        0.0352
      3 C          -0.5340   -0.6094   -0.2289 C.ar    1  LIG1       -0.0145
      4 C          -0.7221    0.5311   -0.9851 C.ar    1  LIG1        0.0324
      5 S          -1.1975    0.1272   -2.6298 S.2     1  LIG1       -0.0939
      6 H          -1.3701   -2.2970   -3.0510 H       1  LIG1        0.0712
      7 N          -0.6952   -3.0799   -0.3771 N.pl3   1  LIG1       -0.3573
      8 H          -0.6947   -3.8462   -1.0387 H       1  LIG1        0.1423
      9 H           0.0795   -3.1784    0.2683 H       1  LIG1        0.1423
     10 C          -0.2236   -0.6320    1.2420 C.3     1  LIG1       -0.0369
     11 H          -0.3643    0.3542    1.6874 H       1  LIG1        0.0278
     12 H           0.8125   -0.9333    1.4495 H       1  LIG1        0.0278
     13 H          -0.8789   -1.3456    1.7539 H       1  LIG1        0.0278
     14 C          -0.5594    1.9206   -0.5829 C.ar    1  LIG1        0.0477
     15 C           0.5594    2.5079   -0.0209 C.ar    1  LIG1        0.0436
     16 C           0.3979    3.9073    0.2689 C.ar    1  LIG1       -0.0139
     17 C          -0.8415    4.3858   -0.1112 C.ar    1  LIG1        0.0330
     18 S          -1.8353    3.1097   -0.7947 S.2     1  LIG1       -0.0850
     19 N           1.7370    1.8211    0.3018 N.pl3   1  LIG1       -0.3568
     20 H           1.8114    0.9323   -0.1802 H       1  LIG1        0.1424
     21 H           2.5752    2.3734    0.1649 H       1  LIG1        0.1424
     22 C           1.4566    4.7094    0.9736 C.3     1  LIG1       -0.0368
     23 H           1.0525    5.6558    1.3366 H       1  LIG1        0.0278
     24 H           2.3062    4.9530    0.3208 H       1  LIG1        0.0278
     25 H           1.8523    4.1476    1.8273 H       1  LIG1        0.0278
     26 C          -1.3507    5.7459   -0.0162 C.ar    1  LIG1        0.0477
     27 C          -0.7740    6.8977   -0.5203 C.ar    1  LIG1        0.0436
     28 C          -1.5305    8.0911   -0.2526 C.ar    1  LIG1       -0.0139
     29 C          -2.7048    7.8308    0.4274 C.ar    1  LIG1        0.0330
     30 S          -2.8755    6.1185    0.7740 S.2     1  LIG1       -0.0850
     31 N           0.4576    6.9422   -1.1863 N.pl3   1  LIG1       -0.3568
     32 H           0.7426    6.0351   -1.5379 H       1  LIG1        0.1424
     33 H           0.4920    7.6370   -1.9226 H       1  LIG1        0.1424
     34 C          -1.0320    9.4596   -0.6262 C.3     1  LIG1       -0.0368
     35 H          -1.6018   10.2359   -0.1130 H       1  LIG1        0.0278
     36 H          -1.1162    9.6597   -1.7034 H       1  LIG1        0.0278
     37 H           0.0251    9.5651   -0.3569 H       1  LIG1        0.0278
     38 C          -3.7371    8.7729    0.8340 C.ar    1  LIG1        0.0471
     39 C          -4.4295    9.6627    0.0325 C.ar    1  LIG1        0.0430
     40 C          -5.4070   10.4410    0.7507 C.ar    1  LIG1       -0.0222
     41 C          -5.4413   10.1115    2.0772 C.ar    1  LIG1       -0.0190
     42 S          -4.2961    8.8849    2.4998 S.2     1  LIG1       -0.0940
     43 H          -6.0814   10.5377    2.8378 H       1  LIG1        0.0697
     44 N          -4.2074    9.8376   -1.3391 N.pl3   1  LIG1       -0.3569
     45 H          -3.7215    9.0522   -1.7574 H       1  LIG1        0.1424
     46 H          -5.0510   10.0499   -1.8586 H       1  LIG1        0.1424
     47 C          -6.2742   11.4772    0.0927 C.3     1  LIG1       -0.0374
     48 H          -6.9101   11.9813    0.8245 H       1  LIG1        0.0278
     49 H          -6.9367   11.0351   -0.6640 H       1  LIG1        0.0278
     50 H          -5.6695   12.2389   -0.4136 H       1  LIG1        0.0278
@<TRIPOS>BOND
     1     6     1    1
     2     5     1   ar
     3     5     4   ar
     4     1     2   ar
     5    33    31    1
     6    46    44    1
     7    45    44    1
     8    36    34    1
     9    32    31    1
    10    44    39    1
    11    31    27    1
    12     8     7    1
    13     2     7    1
    14     2     3   ar
    15     4    14    1
    16     4     3   ar
    17    18    14   ar
    18    18    17   ar
    19    49    47    1
    20    34    37    1
    21    34    28    1
    22    34    35    1
    23    14    15   ar
    24    27    28   ar
    25    27    26   ar
    26    50    47    1
    27     7     9    1
    28    28    29   ar
    29     3    10    1
    30    20    19    1
    31    17    26    1
    32    17    16   ar
    33    15    16   ar
    34    15    19    1
    35    26    30   ar
    36    39    40   ar
    37    39    38   ar
    38    47    40    1
    39    47    48    1
    40    21    19    1
    41    16    22    1
    42    24    22    1
    43    29    30   ar
    44    29    38    1
    45    40    41   ar
    46    38    42   ar
    47    22    23    1
    48    22    25    1
    49    10    12    1
    50    10    11    1
    51    10    13    1
    52    41    42   ar
    53    41    43    1
