@<TRIPOS>MOLECULE
mol_data/opt/b3lyp/geoms/mol2/5hi5hi5hi5hi.out
 50 53 0 0 0
SMALL
GASTEIGER

@<TRIPOS>ATOM
      1 C          -1.1378   -1.5721   -2.2852 C.ar    1  LIG1       -0.0028
      2 C          -0.7639   -1.8151   -0.9887 C.ar    1  LIG1        0.0352
      3 C          -0.5348   -0.6089   -0.2314 C.ar    1  LIG1       -0.0145
      4 C          -0.7287    0.5319   -0.9854 C.ar    1  LIG1        0.0324
      5 S          -1.2164    0.1289   -2.6267 S.2     1  LIG1       -0.0939
      6 H          -1.3921   -2.2951   -3.0480 H       1  LIG1        0.0712
      7 N          -0.6970   -3.0794   -0.3797 N.pl3   1  LIG1       -0.3573
      8 H          -0.7011   -3.8453   -1.0417 H       1  LIG1        0.1423
      9 H           0.0825   -3.1781    0.2600 H       1  LIG1        0.1423
     10 C          -0.2133   -0.6322    1.2371 C.3     1  LIG1       -0.0369
     11 H          -0.3510    0.3536    1.6842 H       1  LIG1        0.0278
     12 H           0.8245   -0.9333    1.4366 H       1  LIG1        0.0278
     13 H          -0.8645   -1.3463    1.7536 H       1  LIG1        0.0278
     14 C          -0.5630    1.9212   -0.5837 C.ar    1  LIG1        0.0477
     15 C           0.5600    2.5082   -0.0297 C.ar    1  LIG1        0.0436
     16 C           0.4007    3.9074    0.2621 C.ar    1  LIG1       -0.0139
     17 C          -0.8416    4.3861   -0.1083 C.ar    1  LIG1        0.0330
     18 S          -1.8405    3.1104   -0.7851 S.2     1  LIG1       -0.0850
     19 N           1.7400    1.8211    0.2836 N.pl3   1  LIG1       -0.3568
     20 H           1.8108    0.9327   -0.1996 H       1  LIG1        0.1424
     21 H           2.5771    2.3735    0.1407 H       1  LIG1        0.1424
     22 C           1.4646    4.7091    0.9593 C.3     1  LIG1       -0.0368
     23 H           1.0632    5.6551    1.3262 H       1  LIG1        0.0278
     24 H           2.3092    4.9533    0.3002 H       1  LIG1        0.0278
     25 H           1.8670    4.1466    1.8095 H       1  LIG1        0.0278
     26 C          -1.3502    5.7461   -0.0086 C.ar    1  LIG1        0.0477
     27 C          -0.7774    6.8983   -0.5162 C.ar    1  LIG1        0.0436
     28 C          -1.5320    8.0914   -0.2418 C.ar    1  LIG1       -0.0139
     29 C          -2.7010    7.8305    0.4470 C.ar    1  LIG1        0.0330
     30 S          -2.8689    6.1180    0.7937 S.2     1  LIG1       -0.0850
     31 N           0.4490    6.9434   -1.1916 N.pl3   1  LIG1       -0.3568
     32 H           0.7314    6.0367   -1.5461 H       1  LIG1        0.1424
     33 H           0.4776    7.6389   -1.9276 H       1  LIG1        0.1424
     34 C          -1.0366    9.4602   -0.6183 C.3     1  LIG1       -0.0368
     35 H          -1.6026   10.2361   -0.1002 H       1  LIG1        0.0278
     36 H          -1.1292    9.6610   -1.6947 H       1  LIG1        0.0278
     37 H           0.0225    9.5657   -0.3571 H       1  LIG1        0.0278
     38 C          -3.7302    8.7722    0.8622 C.ar    1  LIG1        0.0471
     39 C          -4.4289    9.6625    0.0666 C.ar    1  LIG1        0.0430
     40 C          -5.4013   10.4399    0.7926 C.ar    1  LIG1       -0.0222
     41 C          -5.4256   10.1093    2.1190 C.ar    1  LIG1       -0.0190
     42 S          -4.2769    8.8826    2.5322 S.2     1  LIG1       -0.0940
     43 H          -6.0601   10.5348    2.8848 H       1  LIG1        0.0697
     44 N          -4.2172    9.8384   -1.3066 N.pl3   1  LIG1       -0.3569
     45 H          -3.7342    9.0534   -1.7290 H       1  LIG1        0.1424
     46 H          -5.0648   10.0507   -1.8196 H       1  LIG1        0.1424
     47 C          -6.2736   11.4764    0.1420 C.3     1  LIG1       -0.0374
     48 H          -6.9044   11.9795    0.8789 H       1  LIG1        0.0278
     49 H          -6.9415   11.0348   -0.6103 H       1  LIG1        0.0278
     50 H          -5.6729   12.2387   -0.3680 H       1  LIG1        0.0278
@<TRIPOS>BOND
     1     6     1    1
     2     5     1   ar
     3     5     4   ar
     4     1     2   ar
     5    33    31    1
     6    46    44    1
     7    45    44    1
     8    36    34    1
     9    32    31    1
    10    44    39    1
    11    31    27    1
    12     8     7    1
    13     2     7    1
    14     2     3   ar
    15     4    14    1
    16     4     3   ar
    17    18    14   ar
    18    18    17   ar
    19    34    37    1
    20    34    28    1
    21    34    35    1
    22    49    47    1
    23    14    15   ar
    24    27    28   ar
    25    27    26   ar
    26     7     9    1
    27    50    47    1
    28    28    29   ar
    29     3    10    1
    30    20    19    1
    31    17    26    1
    32    17    16   ar
    33    15    16   ar
    34    15    19    1
    35    26    30   ar
    36    39    40   ar
    37    39    38   ar
    38    21    19    1
    39    47    40    1
    40    47    48    1
    41    16    22    1
    42    24    22    1
    43    29    30   ar
    44    29    38    1
    45    40    41   ar
    46    38    42   ar
    47    22    23    1
    48    22    25    1
    49    10    12    1
    50    10    11    1
    51    10    13    1
    52    41    42   ar
    53    41    43    1
