@<TRIPOS>MOLECULE
mol_data/opt/b3lyp/geoms/mol2/5hl.out
 15 15 0 0 0
SMALL
GASTEIGER

@<TRIPOS>ATOM
      1 C          -2.3681   -1.6041   -0.1112 C.ar    1  LIG1        0.0000
      2 C          -1.1153   -2.1187    0.0842 C.ar    1  LIG1        0.0739
      3 C          -0.0996   -1.1026   -0.0545 C.ar    1  LIG1        0.1476
      4 C          -0.5939    0.1396   -0.3392 C.ar    1  LIG1        0.0193
      5 S          -2.3305    0.1068   -0.4492 S.2     1  LIG1       -0.0995
      6 H          -3.3134   -2.1245   -0.0573 H       1  LIG1        0.0713
      7 H          -0.0553    1.0608   -0.4971 H       1  LIG1        0.0731
      8 N          -0.7713   -3.4259    0.4404 N.pl3   1  LIG1       -0.3547
      9 H          -1.4189   -4.1297    0.1119 H       1  LIG1        0.1424
     10 H           0.1830   -3.6551    0.1912 H       1  LIG1        0.1424
     11 O           1.1994   -1.4953    0.0936 O.3     1  LIG1       -0.4927
     12 C           2.1818   -0.4829   -0.0625 C.3     1  LIG1        0.0789
     13 H           2.0511    0.3120    0.6830 H       1  LIG1        0.0660
     14 H           3.1500   -0.9633    0.0848 H       1  LIG1        0.0660
     15 H           2.1404   -0.0419   -1.0670 H       1  LIG1        0.0660
@<TRIPOS>BOND
     1    15    12    1
     2     7     4    1
     3     5     4   ar
     4     5     1   ar
     5     4     3   ar
     6     1     6    1
     7     1     2   ar
     8    12    14    1
     9    12    11    1
    10    12    13    1
    11     3     2   ar
    12     3    11    1
    13     2     8    1
    14     9     8    1
    15    10     8    1
