@<TRIPOS>MOLECULE
mol_data/opt/b3lyp/geoms/mol2/5hl5hl5hl-.out
 41 43 0 0 0
SMALL
GASTEIGER

@<TRIPOS>ATOM
      1 C          -2.3831   -2.0748   -0.4925 C.ar    1  LIG1        0.0006
      2 C          -1.0340   -2.2799   -0.3844 C.ar    1  LIG1        0.0746
      3 C          -0.3114   -1.0431   -0.2792 C.ar    1  LIG1        0.1559
      4 C          -1.0925    0.0955   -0.3071 C.ar    1  LIG1        0.0713
      5 S          -2.7795   -0.3766   -0.4823 S.2     1  LIG1       -0.0905
      6 H          -3.1707   -2.8117   -0.5552 H       1  LIG1        0.0713
      7 N          -0.3565   -3.5000   -0.2934 N.pl3   1  LIG1       -0.3547
      8 H          -0.8338   -4.2731   -0.7379 H       1  LIG1        0.1424
      9 H           0.6010   -3.4229   -0.6160 H       1  LIG1        0.1424
     10 O           1.0693   -1.0706   -0.1829 O.3     1  LIG1       -0.4921
     11 C           1.5666   -0.9086    1.1570 C.3     1  LIG1        0.0789
     12 H           2.6539   -0.9830    1.0930 H       1  LIG1        0.0660
     13 H           1.2897    0.0712    1.5577 H       1  LIG1        0.0660
     14 H           1.1767   -1.6988    1.8076 H       1  LIG1        0.0660
     15 C          -0.7200    1.4933   -0.2479 C.ar    1  LIG1        0.0544
     16 C           0.4359    2.1305   -0.6733 C.ar    1  LIG1        0.0831
     17 C           0.3641    3.5544   -0.5145 C.ar    1  LIG1        0.1565
     18 C          -0.8111    4.0358    0.0218 C.ar    1  LIG1        0.0718
     19 S          -1.8800    2.6824    0.3636 S.2     1  LIG1       -0.0814
     20 N           1.5981    1.5597   -1.1603 N.pl3   1  LIG1       -0.3542
     21 H           1.5718    0.5647   -1.3353 H       1  LIG1        0.1425
     22 H           2.0857    2.1229   -1.8427 H       1  LIG1        0.1425
     23 O           1.4294    4.3340   -0.9286 O.3     1  LIG1       -0.4921
     24 C           2.3490    4.6714    0.1239 C.3     1  LIG1        0.0789
     25 H           3.1437    5.2603   -0.3379 H       1  LIG1        0.0660
     26 H           1.8525    5.2678    0.8957 H       1  LIG1        0.0660
     27 H           2.7695    3.7632    0.5685 H       1  LIG1        0.0660
     28 C          -1.2251    5.3921    0.3164 C.ar    1  LIG1        0.0538
     29 C          -0.8748    6.5873   -0.2960 C.ar    1  LIG1        0.0824
     30 C          -1.6031    7.7076    0.2461 C.ar    1  LIG1        0.1482
     31 C          -2.4778    7.3779    1.2380 C.ar    1  LIG1        0.0199
     32 S          -2.4322    5.6811    1.5814 S.2     1  LIG1       -0.0904
     33 H          -3.1320    8.0424    1.7831 H       1  LIG1        0.0731
     34 N           0.0549    6.8029   -1.2995 N.pl3   1  LIG1       -0.3542
     35 H           0.4741    5.9754   -1.7019 H       1  LIG1        0.1425
     36 H          -0.2108    7.5250   -1.9558 H       1  LIG1        0.1425
     37 O          -1.4445    8.9726   -0.2693 O.3     1  LIG1       -0.4927
     38 C          -0.3151    9.6777    0.2627 C.3     1  LIG1        0.0789
     39 H          -0.2856   10.6428   -0.2473 H       1  LIG1        0.0660
     40 H          -0.4289    9.8391    1.3415 H       1  LIG1        0.0660
     41 H           0.6166    9.1328    0.0741 H       1  LIG1        0.0660
@<TRIPOS>BOND
     1    36    34    1
     2    22    20    1
     3    35    34    1
     4    21    20    1
     5    34    29    1
     6    20    16    1
     7    23    17    1
     8    23    24    1
     9     8     7    1
    10    16    17   ar
    11    16    15   ar
    12     9     7    1
    13     6     1    1
    14    17    18   ar
    15     1     5   ar
    16     1     2   ar
    17     5     4   ar
    18     2     7    1
    19     2     3   ar
    20    25    24    1
    21     4     3   ar
    22     4    15    1
    23    29    30   ar
    24    29    28   ar
    25     3    10    1
    26    37    30    1
    27    37    38    1
    28    15    19   ar
    29    39    38    1
    30    10    11    1
    31    18    28    1
    32    18    19   ar
    33    41    38    1
    34    24    27    1
    35    24    26    1
    36    30    31   ar
    37    38    40    1
    38    28    32   ar
    39    12    11    1
    40    11    13    1
    41    11    14    1
    42    31    32   ar
    43    31    33    1
