@<TRIPOS>MOLECULE
mol_data/opt/b3lyp/geoms/mol2/5hl5hl-5hl-.out
 41 43 0 0 0
SMALL
GASTEIGER

@<TRIPOS>ATOM
      1 C          -2.5490   -1.9503   -0.4770 C.ar    1  LIG1        0.0006
      2 C          -1.2164   -2.2534   -0.3989 C.ar    1  LIG1        0.0746
      3 C          -0.4039   -1.0734   -0.2969 C.ar    1  LIG1        0.1559
      4 C          -1.1002    0.1193   -0.2979 C.ar    1  LIG1        0.0713
      5 S          -2.8206   -0.2279   -0.4427 S.2     1  LIG1       -0.0905
      6 H          -3.3890   -2.6277   -0.5289 H       1  LIG1        0.0713
      7 N          -0.6278   -3.5205   -0.3336 N.pl3   1  LIG1       -0.3547
      8 H          -1.1663   -4.2504   -0.7813 H       1  LIG1        0.1424
      9 H           0.3278   -3.5078   -0.6704 H       1  LIG1        0.1424
     10 O           0.9729   -1.2032   -0.2289 O.3     1  LIG1       -0.4921
     11 C           1.5078   -1.0808    1.1006 C.3     1  LIG1        0.0789
     12 H           2.5850   -1.2366    1.0148 H       1  LIG1        0.0660
     13 H           1.3137   -0.0835    1.5066 H       1  LIG1        0.0660
     14 H           1.0728   -1.8402    1.7591 H       1  LIG1        0.0660
     15 C          -0.6270    1.4858   -0.2347 C.ar    1  LIG1        0.0544
     16 C           0.5637    2.0424   -0.6773 C.ar    1  LIG1        0.0831
     17 C           0.5983    3.4664   -0.5056 C.ar    1  LIG1        0.1565
     18 C          -0.5290    4.0261    0.0575 C.ar    1  LIG1        0.0718
     19 S          -1.6864    2.7497    0.4093 S.2     1  LIG1       -0.0814
     20 N           1.6716    1.3940   -1.1908 N.pl3   1  LIG1       -0.3542
     21 H           1.5707    0.4070   -1.3817 H       1  LIG1        0.1425
     22 H           2.1987    1.9333   -1.8627 H       1  LIG1        0.1425
     23 O           1.7112    4.1671   -0.9353 O.3     1  LIG1       -0.4921
     24 C           2.6423    4.4861    0.1131 C.3     1  LIG1        0.0789
     25 H           3.4773    5.0032   -0.3631 H       1  LIG1        0.0660
     26 H           2.1802    5.1445    0.8549 H       1  LIG1        0.0660
     27 H           2.9988    3.5708    0.5975 H       1  LIG1        0.0660
     28 C          -0.8436    5.4047    0.3678 C.ar    1  LIG1        0.0538
     29 C          -0.4247    6.5723   -0.2542 C.ar    1  LIG1        0.0824
     30 C          -1.0648    7.7392    0.3036 C.ar    1  LIG1        0.1482
     31 C          -1.9326    7.4712    1.3221 C.ar    1  LIG1        0.0199
     32 S          -1.9880    5.7686    1.6700 S.2     1  LIG1       -0.0904
     33 H          -2.5246    8.1618    1.9022 H       1  LIG1        0.0731
     34 N           0.4995    6.7198   -1.2649 N.pl3   1  LIG1       -0.3542
     35 H           0.8581    5.8775   -1.6909 H       1  LIG1        0.1425
     36 H           0.3707    7.5238   -1.8606 H       1  LIG1        0.1425
     37 O          -0.7527    8.9421   -0.2596 O.3     1  LIG1       -0.4927
     38 C          -1.4240   10.0747    0.2715 C.3     1  LIG1        0.0789
     39 H          -1.0705   10.9383   -0.2932 H       1  LIG1        0.0660
     40 H          -2.5116    9.9806    0.1566 H       1  LIG1        0.0660
     41 H          -1.1869   10.2118    1.3344 H       1  LIG1        0.0660
@<TRIPOS>BOND
     1    22    20    1
     2    36    34    1
     3    35    34    1
     4    21    20    1
     5    34    29    1
     6    20    16    1
     7    23    17    1
     8    23    24    1
     9     8     7    1
    10    16    17   ar
    11    16    15   ar
    12     9     7    1
    13     6     1    1
    14    17    18   ar
    15     1     5   ar
    16     1     2   ar
    17     5     4   ar
    18     2     7    1
    19     2     3   ar
    20    25    24    1
    21     4     3   ar
    22     4    15    1
    23     3    10    1
    24    39    38    1
    25    37    38    1
    26    37    30    1
    27    29    30   ar
    28    29    28   ar
    29    15    19   ar
    30    10    11    1
    31    18    28    1
    32    18    19   ar
    33    24    27    1
    34    24    26    1
    35    40    38    1
    36    38    41    1
    37    30    31   ar
    38    28    32   ar
    39    12    11    1
    40    11    13    1
    41    11    14    1
    42    31    32   ar
    43    31    33    1
