@<TRIPOS>MOLECULE
mol_data/opt/b3lyp/geoms/mol2/5hl5hl-5hl5hl-.out
 54 57 0 0 0
SMALL
GASTEIGER

@<TRIPOS>ATOM
      1 C          -2.3134   -2.0347   -1.1773 C.ar    1  LIG1        0.0006
      2 C          -1.0758   -2.2864   -0.6491 C.ar    1  LIG1        0.0746
      3 C          -0.3590   -1.0749   -0.3639 C.ar    1  LIG1        0.1559
      4 C          -1.0343    0.0907   -0.6692 C.ar    1  LIG1        0.0713
      5 S          -2.6069   -0.3239   -1.3442 S.2     1  LIG1       -0.0905
      6 H          -3.0800   -2.7429   -1.4565 H       1  LIG1        0.0713
      7 N          -0.5230   -3.5266   -0.3139 N.pl3   1  LIG1       -0.3547
      8 H          -0.8730   -4.2987   -0.8658 H       1  LIG1        0.1424
      9 H           0.4899   -3.4993   -0.3180 H       1  LIG1        0.1424
     10 O           0.9210   -1.1517    0.1577 O.3     1  LIG1       -0.4921
     11 C           0.9901   -0.9272    1.5768 C.3     1  LIG1        0.0789
     12 H           2.0387   -1.0453    1.8566 H       1  LIG1        0.0660
     13 H           0.6565    0.0846    1.8258 H       1  LIG1        0.0660
     14 H           0.3771   -1.6615    2.1102 H       1  LIG1        0.0660
     15 C          -0.6274    1.4740   -0.5442 C.ar    1  LIG1        0.0544
     16 C           0.6340    2.0468   -0.6166 C.ar    1  LIG1        0.0831
     17 C           0.5900    3.4774   -0.5378 C.ar    1  LIG1        0.1565
     18 C          -0.6679    4.0299   -0.4068 C.ar    1  LIG1        0.0719
     19 S          -1.8573    2.7342   -0.3610 S.2     1  LIG1       -0.0814
     20 N           1.8586    1.4086   -0.7028 N.pl3   1  LIG1       -0.3542
     21 H           1.8363    0.4087   -0.8481 H       1  LIG1        0.1425
     22 H           2.5607    1.9208   -1.2179 H       1  LIG1        0.1425
     23 O           1.7708    4.1938   -0.6263 O.3     1  LIG1       -0.4921
     24 C           2.3259    4.5590    0.6490 C.3     1  LIG1        0.0789
     25 H           3.2572    5.0889    0.4400 H       1  LIG1        0.0660
     26 H           1.6434    5.2189    1.1934 H       1  LIG1        0.0660
     27 H           2.5328    3.6641    1.2452 H       1  LIG1        0.0660
     28 C          -1.0842    5.4102   -0.3065 C.ar    1  LIG1        0.0544
     29 C          -0.5018    6.5640   -0.8144 C.ar    1  LIG1        0.0831
     30 C          -1.2998    7.7301   -0.5699 C.ar    1  LIG1        0.1565
     31 C          -2.4787    7.5146    0.1118 C.ar    1  LIG1        0.0718
     32 S          -2.6187    5.8027    0.4862 S.2     1  LIG1       -0.0814
     33 N           0.7143    6.6989   -1.4564 N.pl3   1  LIG1       -0.3542
     34 H           1.2010    5.8440   -1.6878 H       1  LIG1        0.1425
     35 H           0.7450    7.4383   -2.1440 H       1  LIG1        0.1425
     36 O          -0.8691    8.9538   -1.0506 O.3     1  LIG1       -0.4921
     37 C          -0.1621    9.7463   -0.0810 C.3     1  LIG1        0.0789
     38 H           0.1353   10.6644   -0.5912 H       1  LIG1        0.0660
     39 H          -0.8107    9.9917    0.7658 H       1  LIG1        0.0660
     40 H           0.7263    9.2130    0.2733 H       1  LIG1        0.0660
     41 C          -3.5118    8.4424    0.5222 C.ar    1  LIG1        0.0538
     42 C          -3.9249    9.6344   -0.0573 C.ar    1  LIG1        0.0824
     43 C          -5.0719   10.1938    0.6139 C.ar    1  LIG1        0.1482
     44 C          -5.5173    9.4546    1.6688 C.ar    1  LIG1        0.0199
     45 S          -4.5352    8.0498    1.9148 S.2     1  LIG1       -0.0904
     46 H          -6.3589    9.6689    2.3110 H       1  LIG1        0.0731
     47 N          -3.3749   10.3055   -1.1362 N.pl3   1  LIG1       -0.3542
     48 H          -2.6311    9.8265   -1.6257 H       1  LIG1        0.1425
     49 H          -4.0570   10.7718   -1.7193 H       1  LIG1        0.1425
     50 O          -5.6730   11.3414    0.1529 O.3     1  LIG1       -0.4927
     51 C          -5.0477   12.5478    0.6102 C.3     1  LIG1        0.0789
     52 H          -5.5942   13.3730    0.1489 H       1  LIG1        0.0660
     53 H          -5.1140   12.6319    1.7016 H       1  LIG1        0.0660
     54 H          -3.9955   12.5881    0.3069 H       1  LIG1        0.0660
@<TRIPOS>BOND
     1    35    33    1
     2    49    47    1
     3    34    33    1
     4    48    47    1
     5     6     1    1
     6    33    29    1
     7     5     1   ar
     8     5     4   ar
     9    22    20    1
    10     1     2   ar
    11    47    42    1
    12    36    30    1
    13    36    37    1
    14     8     7    1
    15    21    20    1
    16    29    30   ar
    17    29    28   ar
    18    20    16    1
    19     4    15    1
    20     4     3   ar
    21     2     3   ar
    22     2     7    1
    23    23    17    1
    24    23    24    1
    25    16    15   ar
    26    16    17   ar
    27    38    37    1
    28    30    31   ar
    29    15    19   ar
    30    17    18   ar
    31    18    19   ar
    32    18    28    1
    33     3    10    1
    34     9     7    1
    35    28    32   ar
    36    37    40    1
    37    37    39    1
    38    42    41   ar
    39    42    43   ar
    40    31    32   ar
    41    31    41    1
    42    52    51    1
    43    50    51    1
    44    50    43    1
    45    10    11    1
    46    54    51    1
    47    25    24    1
    48    41    45   ar
    49    51    53    1
    50    43    44   ar
    51    24    26    1
    52    24    27    1
    53    11    13    1
    54    11    12    1
    55    11    14    1
    56    44    45   ar
    57    44    46    1
