@<TRIPOS>MOLECULE
mol_data/opt/b3lyp/geoms/mol2/5hl5hl5hl5hl-.out
 54 57 0 0 0
SMALL
GASTEIGER

@<TRIPOS>ATOM
      1 C          -2.4907   -1.9568   -1.0081 C.ar    1  LIG1        0.0006
      2 C          -1.2416   -2.2463   -0.5287 C.ar    1  LIG1        0.0746
      3 C          -0.4657   -1.0587   -0.3044 C.ar    1  LIG1        0.1559
      4 C          -1.1074    0.1262   -0.6078 C.ar    1  LIG1        0.0713
      5 S          -2.7238   -0.2396   -1.2031 S.2     1  LIG1       -0.0905
      6 H          -3.2966   -2.6396   -1.2349 H       1  LIG1        0.0713
      7 N          -0.7237   -3.5002   -0.1884 N.pl3   1  LIG1       -0.3547
      8 H          -1.1239   -4.2688   -0.7101 H       1  LIG1        0.1424
      9 H           0.2886   -3.5119   -0.2320 H       1  LIG1        0.1424
     10 O           0.8323   -1.1762    0.1625 O.3     1  LIG1       -0.4921
     11 C           0.9765   -0.9070    1.5680 C.3     1  LIG1        0.0789
     12 H           2.0308   -1.0628    1.8048 H       1  LIG1        0.0660
     13 H           0.6993    0.1267    1.7952 H       1  LIG1        0.0660
     14 H           0.3573   -1.5943    2.1543 H       1  LIG1        0.0660
     15 C          -0.6406    1.4941   -0.5351 C.ar    1  LIG1        0.0544
     16 C           0.6376    2.0129   -0.6817 C.ar    1  LIG1        0.0831
     17 C           0.6553    3.4455   -0.6342 C.ar    1  LIG1        0.1565
     18 C          -0.5714    4.0522   -0.4544 C.ar    1  LIG1        0.0719
     19 S          -1.8083    2.8077   -0.3216 S.2     1  LIG1       -0.0814
     20 N           1.8295    1.3223   -0.8116 N.pl3   1  LIG1       -0.3542
     21 H           1.7596    0.3216   -0.9337 H       1  LIG1        0.1425
     22 H           2.5266    1.7944   -1.3700 H       1  LIG1        0.1425
     23 O           1.8587    4.1097   -0.7967 O.3     1  LIG1       -0.4921
     24 C           2.4839    4.4913    0.4406 C.3     1  LIG1        0.0789
     25 H           3.4248    4.9767    0.1742 H       1  LIG1        0.0660
     26 H           1.8527    5.1946    0.9925 H       1  LIG1        0.0660
     27 H           2.6824    3.6076    1.0561 H       1  LIG1        0.0660
     28 C          -0.9269    5.4499   -0.3651 C.ar    1  LIG1        0.0544
     29 C          -0.3242    6.5683   -0.9261 C.ar    1  LIG1        0.0831
     30 C          -1.0596    7.7719   -0.6674 C.ar    1  LIG1        0.1565
     31 C          -2.2102    7.6199    0.0774 C.ar    1  LIG1        0.0718
     32 S          -2.4020    5.9224    0.4945 S.2     1  LIG1       -0.0814
     33 N           0.8624    6.6389   -1.6294 N.pl3   1  LIG1       -0.3542
     34 H           1.3008    5.7610   -1.8706 H       1  LIG1        0.1425
     35 H           0.8959    7.3712   -2.3240 H       1  LIG1        0.1425
     36 O          -0.5996    8.9652   -1.1958 O.3     1  LIG1       -0.4921
     37 C           0.1512    9.7661   -0.2667 C.3     1  LIG1        0.0789
     38 H           0.4780   10.6506   -0.8166 H       1  LIG1        0.0660
     39 H          -0.4755   10.0713    0.5768 H       1  LIG1        0.0660
     40 H           1.0225    9.2115    0.0976 H       1  LIG1        0.0660
     41 C          -3.1845    8.5949    0.5189 C.ar    1  LIG1        0.0538
     42 C          -3.5751    9.7895   -0.0699 C.ar    1  LIG1        0.0824
     43 C          -4.6659   10.4097    0.6428 C.ar    1  LIG1        0.1482
     44 C          -5.0853    9.7173    1.7412 C.ar    1  LIG1        0.0199
     45 S          -4.1402    8.2773    1.9763 S.2     1  LIG1       -0.0904
     46 H          -5.8704    9.9691    2.4371 H       1  LIG1        0.0731
     47 N          -3.0445   10.4120   -1.1776 N.pl3   1  LIG1       -0.3542
     48 H          -2.3465    9.9071   -1.7041 H       1  LIG1        0.1425
     49 H          -3.6777   11.0061   -1.6912 H       1  LIG1        0.1425
     50 O          -5.1539   11.5754    0.1286 O.3     1  LIG1       -0.4927
     51 C          -6.2581   12.1484    0.8130 C.3     1  LIG1        0.0789
     52 H          -6.5218   13.0571    0.2704 H       1  LIG1        0.0660
     53 H          -7.1167   11.4645    0.8230 H       1  LIG1        0.0660
     54 H          -5.9923   12.4048    1.8466 H       1  LIG1        0.0660
@<TRIPOS>BOND
     1    35    33    1
     2    34    33    1
     3    48    47    1
     4    49    47    1
     5    33    29    1
     6    22    20    1
     7     6     1    1
     8     5     1   ar
     9     5     4   ar
    10    36    30    1
    11    36    37    1
    12    47    42    1
    13     1     2   ar
    14    21    20    1
    15    29    30   ar
    16    29    28   ar
    17    38    37    1
    18    20    16    1
    19    23    17    1
    20    23    24    1
    21     8     7    1
    22    16    17   ar
    23    16    15   ar
    24    30    31   ar
    25    17    18   ar
    26     4    15    1
    27     4     3   ar
    28    15    19   ar
    29     2     3   ar
    30     2     7    1
    31    18    28    1
    32    18    19   ar
    33    28    32   ar
    34     3    10    1
    35    37    40    1
    36    37    39    1
    37     9     7    1
    38    42    41   ar
    39    42    43   ar
    40    31    32   ar
    41    31    41    1
    42    50    43    1
    43    50    51    1
    44    10    11    1
    45    25    24    1
    46    52    51    1
    47    24    26    1
    48    24    27    1
    49    41    45   ar
    50    43    44   ar
    51    51    53    1
    52    51    54    1
    53    11    13    1
    54    11    12    1
    55    11    14    1
    56    44    45   ar
    57    44    46    1
