@<TRIPOS>MOLECULE
mol_data/opt/b3lyp/geoms/mol2/5hl5hl5hl5hl.out
 54 57 0 0 0
SMALL
GASTEIGER

@<TRIPOS>ATOM
      1 C          -2.6817   -1.6186    0.1594 C.ar    1  LIG1        0.0006
      2 C          -1.3726   -1.8804    0.4622 C.ar    1  LIG1        0.0746
      3 C          -0.5480   -0.7122    0.3273 C.ar    1  LIG1        0.1559
      4 C          -1.2121    0.4301   -0.0754 C.ar    1  LIG1        0.0713
      5 S          -2.9149    0.0455   -0.3068 S.2     1  LIG1       -0.0905
      6 H          -3.5270   -2.2899    0.2025 H       1  LIG1        0.0713
      7 N          -0.8248   -3.0780    0.9332 N.pl3   1  LIG1       -0.3547
      8 H          -1.3296   -3.9056    0.6445 H       1  LIG1        0.1424
      9 H           0.1613   -3.1517    0.7122 H       1  LIG1        0.1424
     10 O           0.8102   -0.8094    0.5779 O.3     1  LIG1       -0.4921
     11 C           1.2047   -0.3156    1.8697 C.3     1  LIG1        0.0789
     12 H           2.2810   -0.4815    1.9473 H       1  LIG1        0.0660
     13 H           0.9921    0.7541    1.9573 H       1  LIG1        0.0660
     14 H           0.6851   -0.8633    2.6631 H       1  LIG1        0.0660
     15 C          -0.7157    1.7642   -0.3361 C.ar    1  LIG1        0.0544
     16 C           0.5255    2.1856   -0.7894 C.ar    1  LIG1        0.0831
     17 C           0.5765    3.6012   -1.0089 C.ar    1  LIG1        0.1565
     18 C          -0.5894    4.2897   -0.7401 C.ar    1  LIG1        0.0719
     19 S          -1.8060    3.1501   -0.1761 S.2     1  LIG1       -0.0814
     20 N           1.6644    1.4252   -0.9911 N.pl3   1  LIG1       -0.3542
     21 H           1.5551    0.4238   -0.9093 H       1  LIG1        0.1425
     22 H           2.2528    1.7496   -1.7457 H       1  LIG1        0.1425
     23 O           1.7430    4.1686   -1.4910 O.3     1  LIG1       -0.4921
     24 C           2.6066    4.6848   -0.4637 C.3     1  LIG1        0.0789
     25 H           3.4869    5.0834   -0.9718 H       1  LIG1        0.0660
     26 H           2.1108    5.4867    0.0924 H       1  LIG1        0.0660
     27 H           2.9034    3.8845    0.2223 H       1  LIG1        0.0660
     28 C          -0.8956    5.6978   -0.8438 C.ar    1  LIG1        0.0544
     29 C          -0.3710    6.6763   -1.6788 C.ar    1  LIG1        0.0831
     30 C          -1.0259    7.9406   -1.5175 C.ar    1  LIG1        0.1565
     31 C          -2.0464    7.9694   -0.5913 C.ar    1  LIG1        0.0718
     32 S          -2.2129    6.3720    0.1303 S.2     1  LIG1       -0.0814
     33 N           0.6732    6.5649   -2.5796 N.pl3   1  LIG1       -0.3542
     34 H           1.0425    5.6343   -2.7210 H       1  LIG1        0.1425
     35 H           0.5587    7.1281   -3.4116 H       1  LIG1        0.1425
     36 O          -0.6767    9.0184   -2.3006 O.3     1  LIG1       -0.4921
     37 C           0.4624    9.7489   -1.8137 C.3     1  LIG1        0.0789
     38 H           0.6492   10.5436   -2.5385 H       1  LIG1        0.0660
     39 H           0.2503   10.1919   -0.8348 H       1  LIG1        0.0660
     40 H           1.3391    9.0967   -1.7433 H       1  LIG1        0.0660
     41 C          -2.8946    9.0758   -0.2214 C.ar    1  LIG1        0.0538
     42 C          -3.7124    9.2118    0.8908 C.ar    1  LIG1        0.0824
     43 C          -4.4358   10.4538    0.8902 C.ar    1  LIG1        0.1482
     44 C          -4.1714   11.2464   -0.1877 C.ar    1  LIG1        0.0199
     45 S          -3.0236   10.5102   -1.2560 S.2     1  LIG1       -0.0904
     46 H          -4.5702   12.2296   -0.3916 H       1  LIG1        0.0731
     47 N          -3.9091    8.2978    1.9213 N.pl3   1  LIG1       -0.3542
     48 H          -3.1125    7.7108    2.1382 H       1  LIG1        0.1425
     49 H          -4.2887    8.7455    2.7479 H       1  LIG1        0.1425
     50 O          -5.2662   10.7760    1.9401 O.3     1  LIG1       -0.4927
     51 C          -6.6361   10.4076    1.7320 C.3     1  LIG1        0.0789
     52 H          -7.1740   10.6890    2.6396 H       1  LIG1        0.0660
     53 H          -7.0605   10.9437    0.8751 H       1  LIG1        0.0660
     54 H          -6.7367    9.3286    1.5645 H       1  LIG1        0.0660
@<TRIPOS>BOND
     1    35    33    1
     2    34    33    1
     3    33    29    1
     4    38    37    1
     5    36    37    1
     6    36    30    1
     7    37    40    1
     8    37    39    1
     9    22    20    1
    10    29    30   ar
    11    29    28   ar
    12    30    31   ar
    13    23    17    1
    14    23    24    1
    15    45    41   ar
    16    45    44   ar
    17    17    16   ar
    18    17    18   ar
    19    20    21    1
    20    20    16    1
    21    25    24    1
    22    28    18    1
    23    28    32   ar
    24    16    15   ar
    25    18    19   ar
    26    31    41    1
    27    31    32   ar
    28    24    26    1
    29    24    27    1
    30    46    44    1
    31    15    19   ar
    32    15     4    1
    33     5     4   ar
    34     5     1   ar
    35    41    42   ar
    36    44    43   ar
    37     4     3   ar
    38     1     6    1
    39     1     2   ar
    40     3     2   ar
    41     3    10    1
    42     2     7    1
    43    10    11    1
    44     8     7    1
    45     9     7    1
    46    53    51    1
    47    43    42   ar
    48    43    50    1
    49    42    47    1
    50    54    51    1
    51    51    50    1
    52    51    52    1
    53    11    12    1
    54    11    13    1
    55    11    14    1
    56    47    48    1
    57    47    49    1
