@<TRIPOS>MOLECULE
mol_data/opt/b3lyp/geoms/mol2/5hl5hl5hl.out
 41 43 0 0 0
SMALL
GASTEIGER

@<TRIPOS>ATOM
      1 C          -2.4015   -2.0686   -0.4776 C.ar    1  LIG1        0.0006
      2 C          -1.0509   -2.2768   -0.3966 C.ar    1  LIG1        0.0746
      3 C          -0.3239   -1.0419   -0.2997 C.ar    1  LIG1        0.1559
      4 C          -1.1031    0.0984   -0.3070 C.ar    1  LIG1        0.0713
      5 S          -2.7942   -0.3696   -0.4516 S.2     1  LIG1       -0.0905
      6 H          -3.1916   -2.8036   -0.5282 H       1  LIG1        0.0713
      7 N          -0.3742   -3.4986   -0.3245 N.pl3   1  LIG1       -0.3547
      8 H          -0.8618   -4.2687   -0.7631 H       1  LIG1        0.1424
      9 H           0.5769   -3.4219   -0.6655 H       1  LIG1        0.1424
     10 O           1.0583   -1.0726   -0.2302 O.3     1  LIG1       -0.4921
     11 C           1.5818   -0.9174    1.1005 C.3     1  LIG1        0.0789
     12 H           2.6675   -0.9940    1.0151 H       1  LIG1        0.0660
     13 H           1.3150    0.0613    1.5105 H       1  LIG1        0.0660
     14 H           1.2028   -1.7094    1.7551 H       1  LIG1        0.0660
     15 C          -0.7267    1.4951   -0.2487 C.ar    1  LIG1        0.0544
     16 C           0.4220    2.1321   -0.6934 C.ar    1  LIG1        0.0831
     17 C           0.3562    3.5554   -0.5267 C.ar    1  LIG1        0.1565
     18 C          -0.8075    4.0365    0.0344 C.ar    1  LIG1        0.0718
     19 S          -1.8723    2.6836    0.3907 S.2     1  LIG1       -0.0814
     20 N           1.5733    1.5614   -1.2054 N.pl3   1  LIG1       -0.3542
     21 H           1.5420    0.5672   -1.3842 H       1  LIG1        0.1425
     22 H           2.0494    2.1269   -1.8940 H       1  LIG1        0.1425
     23 O           1.4148    4.3348   -0.9578 O.3     1  LIG1       -0.4921
     24 C           2.3540    4.6677    0.0788 C.3     1  LIG1        0.0789
     25 H           3.1407    5.2573   -0.3957 H       1  LIG1        0.0660
     26 H           1.8726    5.2620    0.8616 H       1  LIG1        0.0660
     27 H           2.7816    3.7576    0.5124 H       1  LIG1        0.0660
     28 C          -1.2129    5.3922    0.3430 C.ar    1  LIG1        0.0538
     29 C          -0.8726    6.5894   -0.2713 C.ar    1  LIG1        0.0824
     30 C          -1.5877    7.7087    0.2900 C.ar    1  LIG1        0.1482
     31 C          -2.4428    7.3765    1.2980 C.ar    1  LIG1        0.0199
     32 S          -2.3937    5.6782    1.6333 S.2     1  LIG1       -0.0904
     33 H          -3.0846    8.0400    1.8588 H       1  LIG1        0.0731
     34 N           0.0370    6.8072   -1.2925 N.pl3   1  LIG1       -0.3542
     35 H           0.4465    5.9807   -1.7065 H       1  LIG1        0.1425
     36 H          -0.2404    7.5325   -1.9405 H       1  LIG1        0.1425
     37 O          -1.4370    8.9756   -0.2232 O.3     1  LIG1       -0.4927
     38 C          -0.2956    9.6762    0.2885 C.3     1  LIG1        0.0789
     39 H          -0.2744   10.6434   -0.2181 H       1  LIG1        0.0660
     40 H          -0.3870    9.8335    1.3700 H       1  LIG1        0.0660
     41 H           0.6310    9.1302    0.0788 H       1  LIG1        0.0660
@<TRIPOS>BOND
     1    36    34    1
     2    22    20    1
     3    35    34    1
     4    21    20    1
     5    34    29    1
     6    20    16    1
     7    23    17    1
     8    23    24    1
     9     8     7    1
    10    16    17   ar
    11    16    15   ar
    12     9     7    1
    13     6     1    1
    14    17    18   ar
    15     1     5   ar
    16     1     2   ar
    17     5     4   ar
    18     2     7    1
    19     2     3   ar
    20    25    24    1
    21     4     3   ar
    22     4    15    1
    23     3    10    1
    24    29    30   ar
    25    29    28   ar
    26    15    19   ar
    27    10    11    1
    28    37    38    1
    29    37    30    1
    30    39    38    1
    31    18    28    1
    32    18    19   ar
    33    24    27    1
    34    24    26    1
    35    41    38    1
    36    38    40    1
    37    30    31   ar
    38    28    32   ar
    39    12    11    1
    40    11    13    1
    41    11    14    1
    42    31    32   ar
    43    31    33    1
