@<TRIPOS>MOLECULE
mol_data/opt/b3lyp/geoms/mol2/5hl5hl-5hl5hl.out
 54 57 0 0 0
SMALL
GASTEIGER

@<TRIPOS>ATOM
      1 C          -2.2976   -2.0230   -1.2572 C.ar    1  LIG1        0.0006
      2 C          -1.0728   -2.2812   -0.7031 C.ar    1  LIG1        0.0746
      3 C          -0.3610   -1.0734   -0.3914 C.ar    1  LIG1        0.1559
      4 C          -1.0272    0.0959   -0.7020 C.ar    1  LIG1        0.0713
      5 S          -2.5847   -0.3104   -1.4163 S.2     1  LIG1       -0.0905
      6 H          -3.0588   -2.7275   -1.5598 H       1  LIG1        0.0713
      7 N          -0.5296   -3.5252   -0.3660 N.pl3   1  LIG1       -0.3547
      8 H          -0.8675   -4.2919   -0.9327 H       1  LIG1        0.1424
      9 H           0.4832   -3.4993   -0.3462 H       1  LIG1        0.1424
     10 O           0.9067   -1.1570    0.1588 O.3     1  LIG1       -0.4921
     11 C           0.9436   -0.9443    1.5808 C.3     1  LIG1        0.0789
     12 H           1.9853   -1.0666    1.8836 H       1  LIG1        0.0660
     13 H           0.6060    0.0661    1.8305 H       1  LIG1        0.0660
     14 H           0.3173   -1.6818    2.0940 H       1  LIG1        0.0660
     15 C          -0.6214    1.4774   -0.5561 C.ar    1  LIG1        0.0544
     16 C           0.6423    2.0487   -0.5943 C.ar    1  LIG1        0.0831
     17 C           0.5986    3.4787   -0.5047 C.ar    1  LIG1        0.1565
     18 C          -0.6611    4.0322   -0.3984 C.ar    1  LIG1        0.0719
     19 S          -1.8532    2.7382   -0.3912 S.2     1  LIG1       -0.0814
     20 N           1.8676    1.4091   -0.6574 N.pl3   1  LIG1       -0.3542
     21 H           1.8472    0.4106   -0.8118 H       1  LIG1        0.1425
     22 H           2.5821    1.9246   -1.1517 H       1  LIG1        0.1425
     23 O           1.7823    4.1937   -0.5596 O.3     1  LIG1       -0.4921
     24 C           2.3081    4.5471    0.7313 C.3     1  LIG1        0.0789
     25 H           3.2453    5.0765    0.5486 H       1  LIG1        0.0660
     26 H           1.6144    5.2042    1.2650 H       1  LIG1        0.0660
     27 H           2.4989    3.6469    1.3249 H       1  LIG1        0.0660
     28 C          -1.0777    5.4123   -0.2963 C.ar    1  LIG1        0.0544
     29 C          -0.4817    6.5695   -0.7802 C.ar    1  LIG1        0.0831
     30 C          -1.2835    7.7348   -0.5445 C.ar    1  LIG1        0.1565
     31 C          -2.4785    7.5154    0.1072 C.ar    1  LIG1        0.0718
     32 S          -2.6299    5.8006    0.4634 S.2     1  LIG1       -0.0814
     33 N           0.7493    6.7079   -1.3922 N.pl3   1  LIG1       -0.3542
     34 H           1.2400    5.8541   -1.6197 H       1  LIG1        0.1425
     35 H           0.7973    7.4531   -2.0724 H       1  LIG1        0.1425
     36 O          -0.8398    8.9619   -1.0044 O.3     1  LIG1       -0.4921
     37 C          -0.1550    9.7450   -0.0115 C.3     1  LIG1        0.0789
     38 H           0.1558   10.6668   -0.5067 H       1  LIG1        0.0660
     39 H          -0.8232    9.9842    0.8216 H       1  LIG1        0.0660
     40 H           0.7240    9.2073    0.3593 H       1  LIG1        0.0660
     41 C          -3.5196    8.4414    0.5012 C.ar    1  LIG1        0.0538
     42 C          -3.9173    9.6388   -0.0779 C.ar    1  LIG1        0.0824
     43 C          -5.0790   10.1945    0.5707 C.ar    1  LIG1        0.1482
     44 C          -5.5501    9.4472    1.6087 C.ar    1  LIG1        0.0199
     45 S          -4.5760    8.0389    1.8661 S.2     1  LIG1       -0.0904
     46 H          -6.4062    9.6576    2.2328 H       1  LIG1        0.0731
     47 N          -3.3413   10.3179   -1.1379 N.pl3   1  LIG1       -0.3542
     48 H          -2.5867    9.8419   -1.6138 H       1  LIG1        0.1425
     49 H          -4.0088   10.7901   -1.7332 H       1  LIG1        0.1425
     50 O          -5.6674   11.3468    0.1053 O.3     1  LIG1       -0.4927
     51 C          -5.0512   12.5483    0.5871 C.3     1  LIG1        0.0789
     52 H          -5.5857   13.3782    0.1201 H       1  LIG1        0.0660
     53 H          -5.1429   12.6234    1.6774 H       1  LIG1        0.0660
     54 H          -3.9922   12.5894    0.3088 H       1  LIG1        0.0660
@<TRIPOS>BOND
     1    35    33    1
     2    49    47    1
     3    34    33    1
     4    48    47    1
     5     6     1    1
     6     5     1   ar
     7     5     4   ar
     8    33    29    1
     9     1     2   ar
    10    22    20    1
    11    47    42    1
    12    36    30    1
    13    36    37    1
    14     8     7    1
    15    21    20    1
    16    29    30   ar
    17    29    28   ar
    18     2     3   ar
    19     2     7    1
    20     4    15    1
    21     4     3   ar
    22    20    16    1
    23    16    15   ar
    24    16    17   ar
    25    23    17    1
    26    23    24    1
    27    15    19   ar
    28    30    31   ar
    29    38    37    1
    30    17    18   ar
    31    18    19   ar
    32    18    28    1
    33     3    10    1
    34     7     9    1
    35    28    32   ar
    36    42    41   ar
    37    42    43   ar
    38    37    40    1
    39    37    39    1
    40    50    43    1
    41    50    51    1
    42    31    32   ar
    43    31    41    1
    44    52    51    1
    45    10    11    1
    46    54    51    1
    47    41    45   ar
    48    25    24    1
    49    43    44   ar
    50    51    53    1
    51    24    26    1
    52    24    27    1
    53    11    13    1
    54    11    12    1
    55    11    14    1
    56    44    45   ar
    57    44    46    1
