@<TRIPOS>MOLECULE
mol_data/opt/b3lyp/geoms/mol2/5hl5hl.out
 28 29 0 0 0
SMALL
GASTEIGER

@<TRIPOS>ATOM
      1 C          -0.9903   -1.9087    1.5882 C.ar    1  LIG1        0.0006
      2 C          -0.9297   -2.1554    0.2432 C.ar    1  LIG1        0.0746
      3 C          -0.4564   -1.0148   -0.4904 C.ar    1  LIG1        0.1559
      4 C          -0.1627    0.0918    0.2778 C.ar    1  LIG1        0.0712
      5 S          -0.4991   -0.2785    1.9683 S.2     1  LIG1       -0.0905
      6 H          -1.2886   -2.5779    2.3821 H       1  LIG1        0.0713
      7 N          -1.2098   -3.3517   -0.4249 N.pl3   1  LIG1       -0.3547
      8 H          -1.8470   -3.9611    0.0714 H       1  LIG1        0.1424
      9 H          -1.5315   -3.1821   -1.3715 H       1  LIG1        0.1424
     10 O          -0.3686   -1.0500   -1.8651 O.3     1  LIG1       -0.4921
     11 C           0.8827   -1.5611   -2.3555 C.3     1  LIG1        0.0789
     12 H           0.8010   -1.5814   -3.4439 H       1  LIG1        0.0660
     13 H           1.7100   -0.9053   -2.0647 H       1  LIG1        0.0660
     14 H           1.0636   -2.5736   -1.9781 H       1  LIG1        0.0660
     15 C           0.2985    1.3936   -0.1516 C.ar    1  LIG1        0.0537
     16 C           0.9266    2.3796    0.5907 C.ar    1  LIG1        0.0824
     17 C           1.2049    3.5574   -0.1857 C.ar    1  LIG1        0.1482
     18 C           0.8054    3.4681   -1.4865 C.ar    1  LIG1        0.0199
     19 S           0.0684    1.9367   -1.8225 S.2     1  LIG1       -0.0904
     20 H           0.9328    4.2081   -2.2633 H       1  LIG1        0.0731
     21 N           1.2582    2.3470    1.9443 N.pl3   1  LIG1       -0.3542
     22 H           1.4463    1.4221    2.3135 H       1  LIG1        0.1425
     23 H           2.0070    2.9973    2.1563 H       1  LIG1        0.1425
     24 O           1.8664    4.6267    0.3754 O.3     1  LIG1       -0.4927
     25 C           0.9960    5.5925    0.9802 C.3     1  LIG1        0.0789
     26 H           1.6393    6.3623    1.4114 H       1  LIG1        0.0660
     27 H           0.3346    6.0457    0.2325 H       1  LIG1        0.0660
     28 H           0.3859    5.1380    1.7697 H       1  LIG1        0.0660
@<TRIPOS>BOND
     1    12    11    1
     2    11    13    1
     3    11    14    1
     4    11    10    1
     5    20    18    1
     6    10     3    1
     7    19    18   ar
     8    19    15   ar
     9    18    17   ar
    10     9     7    1
    11     3     2   ar
    12     3     4   ar
    13     7     8    1
    14     7     2    1
    15    17    24    1
    16    17    16   ar
    17    15     4    1
    18    15    16   ar
    19    27    25    1
    20     2     1   ar
    21     4     5   ar
    22    24    25    1
    23    16    21    1
    24    25    26    1
    25    25    28    1
    26     1     5   ar
    27     1     6    1
    28    21    23    1
    29    21    22    1
