@<TRIPOS>MOLECULE
mol_data/opt/b3lyp/geoms/mol2/5hl5hl-5hl-5hl.out
 54 57 0 0 0
SMALL
GASTEIGER

@<TRIPOS>ATOM
      1 C          -2.2800   -2.0327   -1.2212 C.ar    1  LIG1        0.0006
      2 C          -1.0571   -2.2849   -0.6601 C.ar    1  LIG1        0.0746
      3 C          -0.3487   -1.0738   -0.3535 C.ar    1  LIG1        0.1559
      4 C          -1.0158    0.0922   -0.6749 C.ar    1  LIG1        0.0713
      5 S          -2.5695   -0.3217   -1.3930 S.2     1  LIG1       -0.0905
      6 H          -3.0386   -2.7406   -1.5221 H       1  LIG1        0.0713
      7 N          -0.5131   -3.5256   -0.3124 N.pl3   1  LIG1       -0.3547
      8 H          -0.8478   -4.2968   -0.8748 H       1  LIG1        0.1424
      9 H           0.4996   -3.4979   -0.2890 H       1  LIG1        0.1424
     10 O           0.9167   -1.1512    0.2024 O.3     1  LIG1       -0.4921
     11 C           0.9472   -0.9291    1.6232 C.3     1  LIG1        0.0789
     12 H           1.9878   -1.0478    1.9312 H       1  LIG1        0.0660
     13 H           0.6070    0.0823    1.8648 H       1  LIG1        0.0660
     14 H           0.3199   -1.6643    2.1385 H       1  LIG1        0.0660
     15 C          -0.6130    1.4754   -0.5366 C.ar    1  LIG1        0.0544
     16 C           0.6498    2.0486   -0.5737 C.ar    1  LIG1        0.0831
     17 C           0.6033    3.4790   -0.4936 C.ar    1  LIG1        0.1565
     18 C          -0.6578    4.0310   -0.3955 C.ar    1  LIG1        0.0719
     19 S          -1.8477    2.7350   -0.3845 S.2     1  LIG1       -0.0814
     20 N           1.8764    1.4107   -0.6281 N.pl3   1  LIG1       -0.3542
     21 H           1.8582    0.4111   -0.7755 H       1  LIG1        0.1425
     22 H           2.5918    1.9238   -1.1238 H       1  LIG1        0.1425
     23 O           1.7859    4.1959   -0.5488 O.3     1  LIG1       -0.4921
     24 C           2.3071    4.5576    0.7417 C.3     1  LIG1        0.0789
     25 H           3.2436    5.0880    0.5588 H       1  LIG1        0.0660
     26 H           1.6104    5.2161    1.2697 H       1  LIG1        0.0660
     27 H           2.4981    3.6610    1.3408 H       1  LIG1        0.0660
     28 C          -1.0772    5.4110   -0.3038 C.ar    1  LIG1        0.0544
     29 C          -0.4814    6.5662   -0.7927 C.ar    1  LIG1        0.0831
     30 C          -1.2862    7.7315   -0.5674 C.ar    1  LIG1        0.1565
     31 C          -2.4833    7.5140    0.0812 C.ar    1  LIG1        0.0718
     32 S          -2.6330    5.8012    0.4474 S.2     1  LIG1       -0.0814
     33 N           0.7518    6.7031   -1.4006 N.pl3   1  LIG1       -0.3542
     34 H           1.2449    5.8488   -1.6208 H       1  LIG1        0.1425
     35 H           0.8013    7.4444   -2.0850 H       1  LIG1        0.1425
     36 O          -0.8428    8.9565   -1.0331 O.3     1  LIG1       -0.4921
     37 C          -0.1640    9.7473   -0.0422 C.3     1  LIG1        0.0789
     38 H           0.1477   10.6663   -0.5420 H       1  LIG1        0.0660
     39 H          -0.8364    9.9909    0.7862 H       1  LIG1        0.0660
     40 H           0.7141    9.2134    0.3363 H       1  LIG1        0.0660
     41 C          -3.5276    8.4406    0.4652 C.ar    1  LIG1        0.0538
     42 C          -3.9251    9.6336   -0.1229 C.ar    1  LIG1        0.0824
     43 C          -5.0903   10.1913    0.5177 C.ar    1  LIG1        0.1482
     44 C          -5.5642    9.4496    1.5585 C.ar    1  LIG1        0.0199
     45 S          -4.5887    8.0447    1.8284 S.2     1  LIG1       -0.0904
     46 H          -6.4231    9.6624    2.1778 H       1  LIG1        0.0731
     47 N          -3.3461   10.3072   -1.1848 N.pl3   1  LIG1       -0.3542
     48 H          -2.5889    9.8296   -1.6549 H       1  LIG1        0.1425
     49 H          -4.0120   10.7749   -1.7854 H       1  LIG1        0.1425
     50 O          -5.6789   11.3397    0.0428 O.3     1  LIG1       -0.4927
     51 C          -5.0671   12.5453    0.5201 C.3     1  LIG1        0.0789
     52 H          -5.6013   13.3712    0.0459 H       1  LIG1        0.0660
     53 H          -5.1635   12.6266    1.6095 H       1  LIG1        0.0660
     54 H          -4.0070   12.5869    0.2459 H       1  LIG1        0.0660
@<TRIPOS>BOND
     1    35    33    1
     2    49    47    1
     3    48    47    1
     4    34    33    1
     5     6     1    1
     6    33    29    1
     7     5     1   ar
     8     5     4   ar
     9     1     2   ar
    10    47    42    1
    11    22    20    1
    12    36    30    1
    13    36    37    1
    14     8     7    1
    15    29    30   ar
    16    29    28   ar
    17    21    20    1
    18     4    15    1
    19     4     3   ar
    20     2     3   ar
    21     2     7    1
    22    20    16    1
    23    16    15   ar
    24    16    17   ar
    25    30    31   ar
    26    23    17    1
    27    23    24    1
    28    38    37    1
    29    15    19   ar
    30    17    18   ar
    31    18    19   ar
    32    18    28    1
    33     3    10    1
    34     7     9    1
    35    28    32   ar
    36    42    41   ar
    37    42    43   ar
    38    37    40    1
    39    37    39    1
    40    50    43    1
    41    50    51    1
    42    52    51    1
    43    31    32   ar
    44    31    41    1
    45    10    11    1
    46    54    51    1
    47    41    45   ar
    48    43    44   ar
    49    51    53    1
    50    25    24    1
    51    24    26    1
    52    24    27    1
    53    44    45   ar
    54    44    46    1
    55    11    13    1
    56    11    12    1
    57    11    14    1
