@<TRIPOS>MOLECULE
mol_data/opt/b3lyp/geoms/mol2/5hl5hl-5hl.out
 41 43 0 0 0
SMALL
GASTEIGER

@<TRIPOS>ATOM
      1 C          -2.4008   -2.0645   -0.5225 C.ar    1  LIG1        0.0006
      2 C          -1.0526   -2.2748   -0.4132 C.ar    1  LIG1        0.0746
      3 C          -0.3260   -1.0409   -0.3009 C.ar    1  LIG1        0.1559
      4 C          -1.1031    0.1005   -0.3244 C.ar    1  LIG1        0.0713
      5 S          -2.7914   -0.3650   -0.5045 S.2     1  LIG1       -0.0905
      6 H          -3.1908   -2.7984   -0.5899 H       1  LIG1        0.0713
      7 N          -0.3794   -3.4975   -0.3271 N.pl3   1  LIG1       -0.3547
      8 H          -0.8590   -4.2670   -0.7754 H       1  LIG1        0.1424
      9 H           0.5787   -3.4225   -0.6484 H       1  LIG1        0.1424
     10 O           1.0545   -1.0737   -0.2026 O.3     1  LIG1       -0.4921
     11 C           1.5504   -0.9199    1.1388 C.3     1  LIG1        0.0789
     12 H           2.6375   -0.9977    1.0761 H       1  LIG1        0.0660
     13 H           1.2763    0.0590    1.5437 H       1  LIG1        0.0660
     14 H           1.1568   -1.7117    1.7850 H       1  LIG1        0.0660
     15 C          -0.7259    1.4966   -0.2579 C.ar    1  LIG1        0.0544
     16 C           0.4328    2.1319   -0.6785 C.ar    1  LIG1        0.0831
     17 C           0.3657    3.5553   -0.5128 C.ar    1  LIG1        0.1565
     18 C          -0.8086    4.0380    0.0241 C.ar    1  LIG1        0.0718
     19 S          -1.8827    2.6867    0.3577 S.2     1  LIG1       -0.0814
     20 N           1.5937    1.5595   -1.1665 N.pl3   1  LIG1       -0.3542
     21 H           1.5644    0.5654   -1.3463 H       1  LIG1        0.1425
     22 H           2.0845    2.1243   -1.8454 H       1  LIG1        0.1425
     23 O           1.4342    4.3332   -0.9215 O.3     1  LIG1       -0.4921
     24 C           2.3535    4.6622    0.1341 C.3     1  LIG1        0.0789
     25 H           3.1510    5.2504   -0.3238 H       1  LIG1        0.0660
     26 H           1.8579    5.2566    0.9079 H       1  LIG1        0.0660
     27 H           2.7700    3.7504    0.5749 H       1  LIG1        0.0660
     28 C          -1.2184    5.3943    0.3248 C.ar    1  LIG1        0.0538
     29 C          -0.8632    6.5913   -0.2814 C.ar    1  LIG1        0.0824
     30 C          -1.5886    7.7114    0.2649 C.ar    1  LIG1        0.1482
     31 C          -2.4658    7.3799    1.2540 C.ar    1  LIG1        0.0199
     32 S          -2.4264    5.6814    1.5894 S.2     1  LIG1       -0.0904
     33 H          -3.1186    8.0440    1.8013 H       1  LIG1        0.0731
     34 N           0.0687    6.8084   -1.2825 N.pl3   1  LIG1       -0.3542
     35 H           0.4855    5.9815   -1.6884 H       1  LIG1        0.1425
     36 H          -0.1937    7.5345   -1.9359 H       1  LIG1        0.1425
     37 O          -1.4250    8.9782   -0.2443 O.3     1  LIG1       -0.4927
     38 C          -0.2940    9.6771    0.2926 C.3     1  LIG1        0.0789
     39 H          -0.2606   10.6445   -0.2128 H       1  LIG1        0.0660
     40 H          -0.4089    9.8337    1.3720 H       1  LIG1        0.0660
     41 H           0.6361    9.1299    0.1028 H       1  LIG1        0.0660
@<TRIPOS>BOND
     1    36    34    1
     2    22    20    1
     3    35    34    1
     4    21    20    1
     5    34    29    1
     6    20    16    1
     7    23    17    1
     8    23    24    1
     9     8     7    1
    10    16    17   ar
    11    16    15   ar
    12     9     7    1
    13     6     1    1
    14     1     5   ar
    15     1     2   ar
    16    17    18   ar
    17     5     4   ar
    18     2     7    1
    19     2     3   ar
    20     4     3   ar
    21     4    15    1
    22    25    24    1
    23     3    10    1
    24    29    30   ar
    25    29    28   ar
    26    15    19   ar
    27    37    30    1
    28    37    38    1
    29    39    38    1
    30    10    11    1
    31    18    28    1
    32    18    19   ar
    33    41    38    1
    34    24    27    1
    35    24    26    1
    36    30    31   ar
    37    38    40    1
    38    28    32   ar
    39    12    11    1
    40    11    13    1
    41    11    14    1
    42    31    32   ar
    43    31    33    1
