@<TRIPOS>MOLECULE
mol_data/opt/b3lyp/geoms/mol2/5hl5hl5hl-5hl-.out
 54 57 0 0 0
SMALL
GASTEIGER

@<TRIPOS>ATOM
      1 C          -2.3336   -2.0527   -1.0564 C.ar    1  LIG1        0.0006
      2 C          -1.0827   -2.2949   -0.5560 C.ar    1  LIG1        0.0746
      3 C          -0.3600   -1.0786   -0.3093 C.ar    1  LIG1        0.1559
      4 C          -1.0440    0.0815   -0.6163 C.ar    1  LIG1        0.0713
      5 S          -2.6330   -0.3450   -1.2438 S.2     1  LIG1       -0.0905
      6 H          -3.1065   -2.7658   -1.3040 H       1  LIG1        0.0713
      7 N          -0.5202   -3.5292   -0.2149 N.pl3   1  LIG1       -0.3547
      8 H          -0.8837   -4.3105   -0.7445 H       1  LIG1        0.1424
      9 H           0.4922   -3.5015   -0.2456 H       1  LIG1        0.1424
     10 O           0.9330   -1.1461    0.1805 O.3     1  LIG1       -0.4921
     11 C           1.0383   -0.8984    1.5935 C.3     1  LIG1        0.0789
     12 H           2.0938   -1.0115    1.8482 H       1  LIG1        0.0660
     13 H           0.7104    0.1173    1.8344 H       1  LIG1        0.0660
     14 H           0.4396   -1.6241    2.1544 H       1  LIG1        0.0660
     15 C          -0.6355    1.4669   -0.5245 C.ar    1  LIG1        0.0544
     16 C           0.6231    2.0391   -0.6385 C.ar    1  LIG1        0.0831
     17 C           0.5798    3.4708   -0.5821 C.ar    1  LIG1        0.1565
     18 C          -0.6749    4.0247   -0.4279 C.ar    1  LIG1        0.0719
     19 S          -1.8614    2.7293   -0.3305 S.2     1  LIG1       -0.0814
     20 N           1.8457    1.4003   -0.7458 N.pl3   1  LIG1       -0.3542
     21 H           1.8206    0.3981   -0.8738 H       1  LIG1        0.1425
     22 H           2.5337    1.9041   -1.2875 H       1  LIG1        0.1425
     23 O           1.7572    4.1863   -0.7126 O.3     1  LIG1       -0.4921
     24 C           2.3448    4.5721    0.5419 C.3     1  LIG1        0.0789
     25 H           3.2699    5.0993    0.3004 H       1  LIG1        0.0660
     26 H           1.6760    5.2402    1.0934 H       1  LIG1        0.0660
     27 H           2.5681    3.6870    1.1467 H       1  LIG1        0.0660
     28 C          -1.0899    5.4062   -0.3395 C.ar    1  LIG1        0.0544
     29 C          -0.5217    6.5520   -0.8805 C.ar    1  LIG1        0.0831
     30 C          -1.3143    7.7215   -0.6346 C.ar    1  LIG1        0.1565
     31 C          -2.4753    7.5163    0.0804 C.ar    1  LIG1        0.0718
     32 S          -2.6041    5.8106    0.4857 S.2     1  LIG1       -0.0814
     33 N           0.6774    6.6773   -1.5554 N.pl3   1  LIG1       -0.3542
     34 H           1.1590    5.8190   -1.7853 H       1  LIG1        0.1425
     35 H           0.6901    7.4057   -2.2551 H       1  LIG1        0.1425
     36 O          -0.8973    8.9375   -1.1457 O.3     1  LIG1       -0.4921
     37 C          -0.1670    9.7462   -0.2072 C.3     1  LIG1        0.0789
     38 H           0.1166   10.6559   -0.7397 H       1  LIG1        0.0660
     39 H          -0.7943   10.0049    0.6515 H       1  LIG1        0.0660
     40 H           0.7306    9.2192    0.1333 H       1  LIG1        0.0660
     41 C          -3.4985    8.4500    0.5019 C.ar    1  LIG1        0.0538
     42 C          -3.9276    9.6321   -0.0861 C.ar    1  LIG1        0.0824
     43 C          -5.0576   10.2017    0.6051 C.ar    1  LIG1        0.1482
     44 C          -5.4751    9.4794    1.6829 C.ar    1  LIG1        0.0199
     45 S          -4.4856    8.0795    1.9266 S.2     1  LIG1       -0.0904
     46 H          -6.3002    9.7037    2.3429 H       1  LIG1        0.0731
     47 N          -3.4061   10.2859   -1.1894 N.pl3   1  LIG1       -0.3542
     48 H          -2.6745    9.7995   -1.6900 H       1  LIG1        0.1425
     49 H          -4.1032   10.7426   -1.7622 H       1  LIG1        0.1425
     50 O          -5.6714   11.3413    0.1410 O.3     1  LIG1       -0.4927
     51 C          -5.0361   12.5553    0.5629 C.3     1  LIG1        0.0789
     52 H          -5.5954   13.3726    0.1027 H       1  LIG1        0.0660
     53 H          -5.0746   12.6567    1.6542 H       1  LIG1        0.0660
     54 H          -3.9921   12.5917    0.2321 H       1  LIG1        0.0660
@<TRIPOS>BOND
     1    35    33    1
     2    34    33    1
     3    49    47    1
     4    48    47    1
     5    33    29    1
     6     6     1    1
     7    22    20    1
     8     5     1   ar
     9     5     4   ar
    10    47    42    1
    11    36    30    1
    12    36    37    1
    13     1     2   ar
    14    29    30   ar
    15    29    28   ar
    16    21    20    1
    17    20    16    1
    18     8     7    1
    19    38    37    1
    20    23    17    1
    21    23    24    1
    22    16    17   ar
    23    16    15   ar
    24    30    31   ar
    25     4    15    1
    26     4     3   ar
    27    17    18   ar
    28     2     3   ar
    29     2     7    1
    30    15    19   ar
    31    18    28    1
    32    18    19   ar
    33    28    32   ar
    34     3    10    1
    35     9     7    1
    36    37    40    1
    37    37    39    1
    38    42    41   ar
    39    42    43   ar
    40    31    32   ar
    41    31    41    1
    42    52    51    1
    43    50    51    1
    44    50    43    1
    45    10    11    1
    46    54    51    1
    47    25    24    1
    48    41    45   ar
    49    24    26    1
    50    24    27    1
    51    51    53    1
    52    43    44   ar
    53    11    13    1
    54    11    12    1
    55    11    14    1
    56    44    45   ar
    57    44    46    1
