@<TRIPOS>MOLECULE
mol_data/opt/b3lyp/geoms/mol2/5hl5hl-5hl-5hl-.out
 54 57 0 0 0
SMALL
GASTEIGER

@<TRIPOS>ATOM
      1 C          -2.3317   -2.0496   -1.0618 C.ar    1  LIG1        0.0006
      2 C          -1.0832   -2.2936   -0.5560 C.ar    1  LIG1        0.0746
      3 C          -0.3614   -1.0781   -0.3025 C.ar    1  LIG1        0.1559
      4 C          -1.0435    0.0830   -0.6098 C.ar    1  LIG1        0.0713
      5 S          -2.6296   -0.3414   -1.2460 S.2     1  LIG1       -0.0905
      6 H          -3.1035   -2.7618   -1.3151 H       1  LIG1        0.0713
      7 N          -0.5229   -3.5289   -0.2154 N.pl3   1  LIG1       -0.3547
      8 H          -0.8841   -4.3087   -0.7489 H       1  LIG1        0.1424
      9 H           0.4897   -3.5015   -0.2413 H       1  LIG1        0.1424
     10 O           0.9292   -1.1473    0.1934 O.3     1  LIG1       -0.4921
     11 C           1.0276   -0.9031    1.6075 C.3     1  LIG1        0.0789
     12 H           2.0820   -1.0163    1.8669 H       1  LIG1        0.0660
     13 H           0.6980    0.1117    1.8494 H       1  LIG1        0.0660
     14 H           0.4269   -1.6306    2.1637 H       1  LIG1        0.0660
     15 C          -0.6350    1.4680   -0.5122 C.ar    1  LIG1        0.0544
     16 C           0.6243    2.0401   -0.6188 C.ar    1  LIG1        0.0831
     17 C           0.5811    3.4717   -0.5588 C.ar    1  LIG1        0.1565
     18 C          -0.6741    4.0255   -0.4091 C.ar    1  LIG1        0.0719
     19 S          -1.8615    2.7302   -0.3208 S.2     1  LIG1       -0.0814
     20 N           1.8472    1.4011   -0.7219 N.pl3   1  LIG1       -0.3542
     21 H           1.8223    0.3994   -0.8528 H       1  LIG1        0.1425
     22 H           2.5378    1.9062   -1.2591 H       1  LIG1        0.1425
     23 O           1.7594    4.1871   -0.6819 O.3     1  LIG1       -0.4921
     24 C           2.3412    4.5696    0.5763 C.3     1  LIG1        0.0789
     25 H           3.2673    5.0974    0.3404 H       1  LIG1        0.0660
     26 H           1.6698    5.2361    1.1265 H       1  LIG1        0.0660
     27 H           2.5617    3.6828    1.1797 H       1  LIG1        0.0660
     28 C          -1.0892    5.4069   -0.3190 C.ar    1  LIG1        0.0544
     29 C          -0.5180    6.5540   -0.8541 C.ar    1  LIG1        0.0831
     30 C          -1.3114    7.7230   -0.6086 C.ar    1  LIG1        0.1565
     31 C          -2.4758    7.5164    0.1003 C.ar    1  LIG1        0.0718
     32 S          -2.6070    5.8095    0.5002 S.2     1  LIG1       -0.0814
     33 N           0.6844    6.6808   -1.5229 N.pl3   1  LIG1       -0.3542
     34 H           1.1666    5.8230   -1.7531 H       1  LIG1        0.1425
     35 H           0.7005    7.4113   -2.2205 H       1  LIG1        0.1425
     36 O          -0.8914    8.9404   -1.1144 O.3     1  LIG1       -0.4921
     37 C          -0.1653    9.7460   -0.1702 C.3     1  LIG1        0.0789
     38 H           0.1217   10.6570   -0.6989 H       1  LIG1        0.0660
     39 H          -0.7966   10.0030    0.6860 H       1  LIG1        0.0660
     40 H           0.7303    9.2175    0.1734 H       1  LIG1        0.0660
     41 C          -3.5008    8.4491    0.5196 C.ar    1  LIG1        0.0538
     42 C          -3.9264    9.6333   -0.0668 C.ar    1  LIG1        0.0824
     43 C          -5.0596   10.2012    0.6205 C.ar    1  LIG1        0.1482
     44 C          -5.4828    9.4757    1.6939 C.ar    1  LIG1        0.0199
     45 S          -4.4951    8.0745    1.9381 S.2     1  LIG1       -0.0904
     46 H          -6.3112    9.6982    2.3504 H       1  LIG1        0.0731
     47 N          -3.3991   10.2905   -1.1654 N.pl3   1  LIG1       -0.3542
     48 H          -2.6657    9.8051   -1.6642 H       1  LIG1        0.1425
     49 H          -4.0934   10.7494   -1.7401 H       1  LIG1        0.1425
     50 O          -5.6706   11.3425    0.1569 O.3     1  LIG1       -0.4927
     51 C          -5.0372   12.5549    0.5862 C.3     1  LIG1        0.0789
     52 H          -5.5937   13.3739    0.1257 H       1  LIG1        0.0660
     53 H          -5.0816   12.6527    1.6777 H       1  LIG1        0.0660
     54 H          -3.9914   12.5920    0.2613 H       1  LIG1        0.0660
@<TRIPOS>BOND
     1    35    33    1
     2    34    33    1
     3    49    47    1
     4    48    47    1
     5    33    29    1
     6     6     1    1
     7    22    20    1
     8     5     1   ar
     9     5     4   ar
    10    47    42    1
    11    36    30    1
    12    36    37    1
    13     1     2   ar
    14    29    30   ar
    15    29    28   ar
    16    21    20    1
    17     8     7    1
    18    20    16    1
    19    38    37    1
    20    23    17    1
    21    23    24    1
    22    16    17   ar
    23    16    15   ar
    24     4    15    1
    25     4     3   ar
    26    30    31   ar
    27    17    18   ar
    28     2     3   ar
    29     2     7    1
    30    15    19   ar
    31    18    19   ar
    32    18    28    1
    33    28    32   ar
    34     3    10    1
    35     9     7    1
    36    37    40    1
    37    37    39    1
    38    42    41   ar
    39    42    43   ar
    40    31    32   ar
    41    31    41    1
    42    52    51    1
    43    50    51    1
    44    50    43    1
    45    10    11    1
    46    54    51    1
    47    25    24    1
    48    41    45   ar
    49    24    26    1
    50    24    27    1
    51    51    53    1
    52    43    44   ar
    53    11    13    1
    54    11    12    1
    55    11    14    1
    56    44    45   ar
    57    44    46    1
