@<TRIPOS>MOLECULE
mol_data/opt/b3lyp/geoms/mol2/5hl5hl5hl-5hl.out
 54 57 0 0 0
SMALL
GASTEIGER

@<TRIPOS>ATOM
      1 C          -2.2862   -2.0346   -1.2231 C.ar    1  LIG1        0.0006
      2 C          -1.0643   -2.2869   -0.6597 C.ar    1  LIG1        0.0746
      3 C          -0.3549   -1.0758   -0.3553 C.ar    1  LIG1        0.1559
      4 C          -1.0202    0.0902   -0.6807 C.ar    1  LIG1        0.0713
      5 S          -2.5734   -0.3237   -1.3997 S.2     1  LIG1       -0.0905
      6 H          -3.0452   -2.7424   -1.5231 H       1  LIG1        0.0713
      7 N          -0.5223   -3.5273   -0.3080 N.pl3   1  LIG1       -0.3547
      8 H          -0.8575   -4.2996   -0.8686 H       1  LIG1        0.1424
      9 H           0.4903   -3.5009   -0.2835 H       1  LIG1        0.1424
     10 O           0.9097   -1.1533    0.2025 O.3     1  LIG1       -0.4921
     11 C           0.9390   -0.9267    1.6226 C.3     1  LIG1        0.0789
     12 H           1.9791   -1.0458    1.9321 H       1  LIG1        0.0660
     13 H           0.5999    0.0859    1.8606 H       1  LIG1        0.0660
     14 H           0.3101   -1.6595    2.1395 H       1  LIG1        0.0660
     15 C          -0.6159    1.4732   -0.5455 C.ar    1  LIG1        0.0544
     16 C           0.6476    2.0449   -0.5826 C.ar    1  LIG1        0.0831
     17 C           0.6027    3.4756   -0.5064 C.ar    1  LIG1        0.1565
     18 C          -0.6579    4.0293   -0.4116 C.ar    1  LIG1        0.0719
     19 S          -1.8493    2.7347   -0.3985 S.2     1  LIG1       -0.0814
     20 N           1.8736    1.4055   -0.6335 N.pl3   1  LIG1       -0.3542
     21 H           1.8544    0.4055   -0.7786 H       1  LIG1        0.1425
     22 H           2.5903    1.9165   -1.1293 H       1  LIG1        0.1425
     23 O           1.7861    4.1909   -0.5620 O.3     1  LIG1       -0.4921
     24 C           2.3056    4.5561    0.7282 C.3     1  LIG1        0.0789
     25 H           3.2428    5.0853    0.5452 H       1  LIG1        0.0660
     26 H           1.6087    5.2167    1.2532 H       1  LIG1        0.0660
     27 H           2.4951    3.6613    1.3303 H       1  LIG1        0.0660
     28 C          -1.0758    5.4100   -0.3243 C.ar    1  LIG1        0.0544
     29 C          -0.4781    6.5631   -0.8159 C.ar    1  LIG1        0.0831
     30 C          -1.2818    7.7300   -0.5949 C.ar    1  LIG1        0.1565
     31 C          -2.4799    7.5159    0.0529 C.ar    1  LIG1        0.0718
     32 S          -2.6320    5.8043    0.4240 S.2     1  LIG1       -0.0814
     33 N           0.7560    6.6967   -1.4228 N.pl3   1  LIG1       -0.3542
     34 H           1.2484    5.8412   -1.6398 H       1  LIG1        0.1425
     35 H           0.8072    7.4359   -2.1093 H       1  LIG1        0.1425
     36 O          -0.8364    8.9531   -1.0637 O.3     1  LIG1       -0.4921
     37 C          -0.1580    9.7462   -0.0743 C.3     1  LIG1        0.0789
     38 H           0.1552   10.6634   -0.5765 H       1  LIG1        0.0660
     39 H          -0.8313    9.9929    0.7525 H       1  LIG1        0.0660
     40 H           0.7191    9.2126    0.3068 H       1  LIG1        0.0660
     41 C          -3.5236    8.4447    0.4329 C.ar    1  LIG1        0.0538
     42 C          -3.9191    9.6365   -0.1591 C.ar    1  LIG1        0.0824
     43 C          -5.0843   10.1974    0.4786 C.ar    1  LIG1        0.1482
     44 C          -5.5603    9.4593    1.5209 C.ar    1  LIG1        0.0199
     45 S          -4.5867    8.0539    1.7961 S.2     1  LIG1       -0.0904
     46 H          -6.4197    9.6748    2.1387 H       1  LIG1        0.0731
     47 N          -3.3380   10.3063   -1.2223 N.pl3   1  LIG1       -0.3542
     48 H          -2.5809    9.8265   -1.6901 H       1  LIG1        0.1425
     49 H          -4.0027   10.7731   -1.8249 H       1  LIG1        0.1425
     50 O          -5.6710   11.3451   -0.0003 O.3     1  LIG1       -0.4927
     51 C          -5.0583   12.5513    0.4741 C.3     1  LIG1        0.0789
     52 H          -5.5908   13.3766   -0.0032 H       1  LIG1        0.0660
     53 H          -5.1560   12.6361    1.5632 H       1  LIG1        0.0660
     54 H          -3.9978   12.5908    0.2012 H       1  LIG1        0.0660
@<TRIPOS>BOND
     1    35    33    1
     2    49    47    1
     3    48    47    1
     4    34    33    1
     5     6     1    1
     6    33    29    1
     7     5     1   ar
     8     5     4   ar
     9     1     2   ar
    10    47    42    1
    11    22    20    1
    12    36    30    1
    13    36    37    1
    14     8     7    1
    15    29    30   ar
    16    29    28   ar
    17    21    20    1
    18     4    15    1
    19     4     3   ar
    20     2     3   ar
    21     2     7    1
    22    20    16    1
    23    30    31   ar
    24    16    15   ar
    25    16    17   ar
    26    38    37    1
    27    23    17    1
    28    23    24    1
    29    15    19   ar
    30    17    18   ar
    31    18    19   ar
    32    18    28    1
    33     3    10    1
    34    28    32   ar
    35     7     9    1
    36    42    41   ar
    37    42    43   ar
    38    37    40    1
    39    37    39    1
    40    52    51    1
    41    50    51    1
    42    50    43    1
    43    31    32   ar
    44    31    41    1
    45    54    51    1
    46    10    11    1
    47    41    45   ar
    48    51    53    1
    49    43    44   ar
    50    25    24    1
    51    24    26    1
    52    24    27    1
    53    44    45   ar
    54    44    46    1
    55    11    13    1
    56    11    12    1
    57    11    14    1
