@<TRIPOS>MOLECULE
mol_data/opt/b3lyp/geoms/mol2/5hl5hl-.out
 28 29 0 0 0
SMALL
GASTEIGER

@<TRIPOS>ATOM
      1 C          -0.9739   -1.9033    1.6006 C.ar    1  LIG1        0.0006
      2 C          -0.9256   -2.1547    0.2560 C.ar    1  LIG1        0.0746
      3 C          -0.4597   -1.0165   -0.4860 C.ar    1  LIG1        0.1559
      4 C          -0.1594    0.0930    0.2755 C.ar    1  LIG1        0.0712
      5 S          -0.4800   -0.2715    1.9703 S.2     1  LIG1       -0.0905
      6 H          -1.2646   -2.5698    2.3996 H       1  LIG1        0.0713
      7 N          -1.2113   -3.3534   -0.4053 N.pl3   1  LIG1       -0.3547
      8 H          -1.8433   -3.9617    0.0990 H       1  LIG1        0.1424
      9 H          -1.5418   -3.1874   -1.3495 H       1  LIG1        0.1424
     10 O          -0.3847   -1.0565   -1.8614 O.3     1  LIG1       -0.4921
     11 C           0.8626   -1.5683   -2.3613 C.3     1  LIG1        0.0789
     12 H           0.7709   -1.5927   -3.4489 H       1  LIG1        0.0660
     13 H           1.6918   -0.9105   -2.0806 H       1  LIG1        0.0660
     14 H           1.0480   -2.5791   -1.9818 H       1  LIG1        0.0660
     15 C           0.2970    1.3934   -0.1630 C.ar    1  LIG1        0.0537
     16 C           0.9314    2.3825    0.5699 C.ar    1  LIG1        0.0824
     17 C           1.2016    3.5577   -0.2133 C.ar    1  LIG1        0.1482
     18 C           0.7900    3.4636   -1.5099 C.ar    1  LIG1        0.0199
     19 S           0.0509    1.9305   -1.8336 S.2     1  LIG1       -0.0904
     20 H           0.9096    4.2009   -2.2905 H       1  LIG1        0.0731
     21 N           1.2759    2.3549    1.9203 N.pl3   1  LIG1       -0.3542
     22 H           1.4678    1.4314    2.2911 H       1  LIG1        0.1425
     23 H           2.0263    3.0063    2.1229 H       1  LIG1        0.1425
     24 O           1.8677    4.6294    0.3379 O.3     1  LIG1       -0.4927
     25 C           1.0022    5.5961    0.9483 C.3     1  LIG1        0.0789
     26 H           1.6490    6.3676    1.3714 H       1  LIG1        0.0660
     27 H           0.3334    6.0468    0.2057 H       1  LIG1        0.0660
     28 H           0.4001    5.1432    1.7448 H       1  LIG1        0.0660
@<TRIPOS>BOND
     1    12    11    1
     2    11    13    1
     3    11    14    1
     4    11    10    1
     5    20    18    1
     6    10     3    1
     7    19    18   ar
     8    19    15   ar
     9    18    17   ar
    10     9     7    1
    11     3     2   ar
    12     3     4   ar
    13     7     8    1
    14     7     2    1
    15    17    24    1
    16    17    16   ar
    17    15     4    1
    18    15    16   ar
    19    27    25    1
    20     2     1   ar
    21     4     5   ar
    22    24    25    1
    23    16    21    1
    24    25    26    1
    25    25    28    1
    26     1     5   ar
    27     1     6    1
    28    21    23    1
    29    21    22    1
