@<TRIPOS>MOLECULE
mol_data/opt/b3lyp/geoms/mol2/5ia.out
 12 12 0 0 0
SMALL
GASTEIGER

@<TRIPOS>ATOM
      1 C          -2.0981   -1.6473    0.1192 C.ar    1  LIG1       -0.0214
      2 C          -0.7329   -1.6456    0.0119 C.ar    1  LIG1       -0.0434
      3 C          -0.2151   -0.3092   -0.0838 C.ar    1  LIG1       -0.0518
      4 C          -1.1829    0.6528   -0.0470 C.ar    1  LIG1       -0.0241
      5 S          -2.7651   -0.0439    0.1061 S.2     1  LIG1       -0.1048
      6 H          -2.7540   -2.5028    0.2060 H       1  LIG1        0.0696
      7 H          -1.0649    1.7262   -0.1003 H       1  LIG1        0.0693
      8 C           0.1266   -2.8806   -0.0056 C.3     1  LIG1       -0.0392
      9 H           0.8453   -2.8782    0.8222 H       1  LIG1        0.0278
     10 H           0.7055   -2.9503   -0.9339 H       1  LIG1        0.0278
     11 H          -0.4772   -3.7878    0.0796 H       1  LIG1        0.0278
     12 H           0.8423   -0.0846   -0.1762 H       1  LIG1        0.0625
@<TRIPOS>BOND
     1    10     8    1
     2    12     3    1
     3     7     4    1
     4     3     4   ar
     5     3     2   ar
     6     4     5   ar
     7     8     2    1
     8     8    11    1
     9     8     9    1
    10     2     1   ar
    11     5     1   ar
    12     1     6    1
