@<TRIPOS>MOLECULE
mol_data/opt/b3lyp/geoms/mol2/5ia5ia5ia-.out
 32 34 0 0 0
SMALL
GASTEIGER

@<TRIPOS>ATOM
      1 C          -1.8433   -1.7941    1.0435 C.ar    1  LIG1       -0.0208
      2 C          -0.8176   -1.8962    0.1414 C.ar    1  LIG1       -0.0428
      3 C          -0.3617   -0.6089   -0.2867 C.ar    1  LIG1       -0.0435
      4 C          -1.0287    0.4499    0.2881 C.ar    1  LIG1        0.0264
      5 S          -2.2549   -0.1472    1.3987 S.2     1  LIG1       -0.0959
      6 H          -2.3849   -2.5985    1.5226 H       1  LIG1        0.0696
      7 C          -0.2445   -3.1948   -0.3587 C.3     1  LIG1       -0.0392
      8 H           0.8215   -3.2792   -0.1178 H       1  LIG1        0.0278
      9 H          -0.3367   -3.2774   -1.4478 H       1  LIG1        0.0278
     10 H          -0.7562   -4.0522    0.0859 H       1  LIG1        0.0278
     11 H           0.4139   -0.4740   -1.0316 H       1  LIG1        0.0632
     12 C          -0.8238    1.8745    0.0849 C.ar    1  LIG1        0.0294
     13 C           0.3609    2.5617   -0.1203 C.ar    1  LIG1       -0.0346
     14 C           0.1488    3.9608   -0.2946 C.ar    1  LIG1       -0.0429
     15 C          -1.1663    4.3618   -0.2141 C.ar    1  LIG1        0.0270
     16 S          -2.1953    2.9721    0.0766 S.2     1  LIG1       -0.0869
     17 C           1.7319    1.9409   -0.1503 C.3     1  LIG1       -0.0386
     18 H           2.4796    2.6394    0.2376 H       1  LIG1        0.0278
     19 H           2.0362    1.6759   -1.1707 H       1  LIG1        0.0278
     20 H           1.7699    1.0281    0.4499 H       1  LIG1        0.0278
     21 H           0.9577    4.6529   -0.4979 H       1  LIG1        0.0632
     22 C          -1.7197    5.7006   -0.3315 C.ar    1  LIG1        0.0288
     23 C          -1.1885    6.9026    0.1054 C.ar    1  LIG1       -0.0352
     24 C          -2.0414    8.0092   -0.2035 C.ar    1  LIG1       -0.0512
     25 C          -3.1912    7.6587   -0.8512 C.ar    1  LIG1       -0.0235
     26 S          -3.2694    5.9518   -1.1248 S.2     1  LIG1       -0.0959
     27 H          -3.9971    8.2990   -1.1818 H       1  LIG1        0.0693
     28 C           0.1103    7.0610    0.8493 C.3     1  LIG1       -0.0386
     29 H           0.0505    7.8958    1.5544 H       1  LIG1        0.0278
     30 H           0.9457    7.2726    0.1696 H       1  LIG1        0.0278
     31 H           0.3641    6.1568    1.4084 H       1  LIG1        0.0278
     32 H          -1.8002    9.0314    0.0683 H       1  LIG1        0.0626
@<TRIPOS>BOND
     1     9     7    1
     2    27    25    1
     3    19    17    1
     4    26    25   ar
     5    26    22   ar
     6    11     3    1
     7    25    24   ar
     8    21    14    1
     9     7     8    1
    10     7    10    1
    11     7     2    1
    12    22    15    1
    13    22    23   ar
    14    14    15   ar
    15    14    13   ar
    16     3     2   ar
    17     3     4   ar
    18    15    16   ar
    19    24    32    1
    20    24    23   ar
    21    17    13    1
    22    17    18    1
    23    17    20    1
    24    13    12   ar
    25    16    12   ar
    26    12     4    1
    27    23    28    1
    28     2     1   ar
    29    30    28    1
    30     4     5   ar
    31    28    31    1
    32    28    29    1
    33     1     5   ar
    34     1     6    1
