@<TRIPOS>MOLECULE
mol_data/opt/b3lyp/geoms/mol2/5ia5ia5ia5ia-.out
 42 45 0 0 0
SMALL
GASTEIGER

@<TRIPOS>ATOM
      1 C          -1.6447   -1.7287    1.5139 C.ar    1  LIG1       -0.0208
      2 C          -0.8513   -1.9147    0.4129 C.ar    1  LIG1       -0.0428
      3 C          -0.4553   -0.6685   -0.1684 C.ar    1  LIG1       -0.0435
      4 C          -0.9372    0.4426    0.4872 C.ar    1  LIG1        0.0264
      5 S          -1.9053   -0.0515    1.8700 S.2     1  LIG1       -0.0959
      6 H          -2.0947   -2.4870    2.1404 H       1  LIG1        0.0696
      7 C          -0.4525   -3.2577   -0.1371 C.3     1  LIG1       -0.0392
      8 H           0.6365   -3.3829   -0.1322 H       1  LIG1        0.0278
      9 H          -0.7866   -3.3784   -1.1740 H       1  LIG1        0.0278
     10 H          -0.8848   -4.0718    0.4503 H       1  LIG1        0.0278
     11 H           0.1381   -0.6005   -1.0727 H       1  LIG1        0.0632
     12 C          -0.7295    1.8465    0.1745 C.ar    1  LIG1        0.0294
     13 C           0.4012    2.4663   -0.3321 C.ar    1  LIG1       -0.0346
     14 C           0.2114    3.8664   -0.5164 C.ar    1  LIG1       -0.0429
     15 C          -1.0319    4.3363   -0.1511 C.ar    1  LIG1        0.0270
     16 S          -2.0196    3.0098    0.4336 S.2     1  LIG1       -0.0869
     17 C           1.7011    1.7770   -0.6496 C.3     1  LIG1       -0.0386
     18 H           2.5450    2.4559   -0.4938 H       1  LIG1        0.0278
     19 H           1.7417    1.4457   -1.6950 H       1  LIG1        0.0278
     20 H           1.8487    0.8950   -0.0210 H       1  LIG1        0.0278
     21 H           0.9777    4.5076   -0.9357 H       1  LIG1        0.0632
     22 C          -1.5431    5.6937   -0.1980 C.ar    1  LIG1        0.0294
     23 C          -0.8654    6.8869   -0.0010 C.ar    1  LIG1       -0.0346
     24 C          -1.7183    8.0196   -0.1412 C.ar    1  LIG1       -0.0429
     25 C          -3.0333    7.7243   -0.4264 C.ar    1  LIG1        0.0270
     26 S          -3.2414    5.9872   -0.5403 S.2     1  LIG1       -0.0869
     27 C           0.5954    7.0122    0.3391 C.3     1  LIG1       -0.0386
     28 H           0.7758    7.9131    0.9332 H       1  LIG1        0.0278
     29 H           1.2189    7.0883   -0.5608 H       1  LIG1        0.0278
     30 H           0.9483    6.1487    0.9093 H       1  LIG1        0.0278
     31 H          -1.3559    9.0371   -0.0527 H       1  LIG1        0.0632
     32 C          -4.1510    8.6331   -0.6163 C.ar    1  LIG1        0.0288
     33 C          -4.4180    9.8294    0.0287 C.ar    1  LIG1       -0.0352
     34 C          -5.6253   10.4347   -0.4435 C.ar    1  LIG1       -0.0512
     35 C          -6.2619    9.7172   -1.4155 C.ar    1  LIG1       -0.0235
     36 S          -5.3953    8.2710   -1.8054 S.2     1  LIG1       -0.0959
     37 H          -7.1874    9.9489   -1.9235 H       1  LIG1        0.0693
     38 C          -3.5817   10.4340    1.1243 C.3     1  LIG1       -0.0386
     39 H          -4.2105   10.9935    1.8236 H       1  LIG1        0.0278
     40 H          -2.8367   11.1360    0.7284 H       1  LIG1        0.0278
     41 H          -3.0425    9.6671    1.6864 H       1  LIG1        0.0278
     42 H          -6.0061   11.3714   -0.0506 H       1  LIG1        0.0626
@<TRIPOS>BOND
     1    37    35    1
     2    36    35   ar
     3    36    32   ar
     4    19    17    1
     5    35    34   ar
     6     9     7    1
     7    11     3    1
     8    21    14    1
     9    17    18    1
    10    17    13    1
    11    17    20    1
    12    32    25    1
    13    32    33   ar
    14    29    27    1
    15    26    25   ar
    16    26    22   ar
    17    14    13   ar
    18    14    15   ar
    19    34    42    1
    20    34    33   ar
    21    25    24   ar
    22    13    12   ar
    23    22    15    1
    24    22    23   ar
    25     3     2   ar
    26     3     4   ar
    27    15    16   ar
    28    24    31    1
    29    24    23   ar
    30     7     8    1
    31     7     2    1
    32     7    10    1
    33    23    27    1
    34    33    38    1
    35    12    16   ar
    36    12     4    1
    37    27    30    1
    38    27    28    1
    39     2     1   ar
    40     4     5   ar
    41    40    38    1
    42    38    41    1
    43    38    39    1
    44     1     5   ar
    45     1     6    1
