@<TRIPOS>MOLECULE
mol_data/opt/b3lyp/geoms/mol2/5ia5ia.out
 22 23 0 0 0
SMALL
GASTEIGER

@<TRIPOS>ATOM
      1 C          -2.0070   -1.7662    0.5904 C.ar    1  LIG1       -0.0208
      2 C          -0.7797   -1.8046   -0.0162 C.ar    1  LIG1       -0.0428
      3 C          -0.2936   -0.4896   -0.3062 C.ar    1  LIG1       -0.0435
      4 C          -1.1376    0.5258    0.0814 C.ar    1  LIG1        0.0264
      5 S          -2.5774   -0.1464    0.8345 S.2     1  LIG1       -0.0959
      6 H          -2.6131   -2.6035    0.9095 H       1  LIG1        0.0696
      7 C          -0.0330   -3.0662   -0.3564 C.3     1  LIG1       -0.0392
      8 H           0.9382   -3.1037    0.1502 H       1  LIG1        0.0278
      9 H           0.1617   -3.1359   -1.4328 H       1  LIG1        0.0278
     10 H          -0.5982   -3.9540   -0.0610 H       1  LIG1        0.0278
     11 H           0.6411   -0.3036   -0.8228 H       1  LIG1        0.0632
     12 C          -0.9560    1.9635   -0.0536 C.ar    1  LIG1        0.0288
     13 C           0.1976    2.7113    0.1041 C.ar    1  LIG1       -0.0352
     14 C          -0.0329    4.1063   -0.1200 C.ar    1  LIG1       -0.0512
     15 C          -1.3265    4.4104   -0.4331 C.ar    1  LIG1       -0.0235
     16 S          -2.3167    2.9916   -0.4821 S.2     1  LIG1       -0.0959
     17 H          -1.7576    5.3809   -0.6349 H       1  LIG1        0.0693
     18 C           1.5435    2.1623    0.4944 C.3     1  LIG1       -0.0386
     19 H           2.0823    2.8752    1.1266 H       1  LIG1        0.0278
     20 H           2.1736    1.9700   -0.3833 H       1  LIG1        0.0278
     21 H           1.4479    1.2211    1.0416 H       1  LIG1        0.0278
     22 H           0.7489    4.8534   -0.0327 H       1  LIG1        0.0626
@<TRIPOS>BOND
     1     9     7    1
     2    11     3    1
     3    17    15    1
     4    16    15   ar
     5    16    12   ar
     6    15    14   ar
     7    20    18    1
     8     7    10    1
     9     7     2    1
    10     7     8    1
    11     3     2   ar
    12     3     4   ar
    13    14    22    1
    14    14    13   ar
    15    12     4    1
    16    12    13   ar
    17     2     1   ar
    18     4     5   ar
    19    13    18    1
    20    18    21    1
    21    18    19    1
    22     1     5   ar
    23     1     6    1
