@<TRIPOS>MOLECULE
mol_data/opt/b3lyp/geoms/mol2/5ia5ia-5ia5ia.out
 42 45 0 0 0
SMALL
GASTEIGER

@<TRIPOS>ATOM
      1 C          -1.6329   -1.7356    1.5074 C.ar    1  LIG1       -0.0208
      2 C          -0.8480   -1.9166    0.3993 C.ar    1  LIG1       -0.0428
      3 C          -0.4565   -0.6677   -0.1792 C.ar    1  LIG1       -0.0435
      4 C          -0.9332    0.4404    0.4854 C.ar    1  LIG1        0.0264
      5 S          -1.8907   -0.0602    1.8733 S.2     1  LIG1       -0.0959
      6 H          -2.0780   -2.4969    2.1337 H       1  LIG1        0.0696
      7 C          -0.4535   -3.2570   -0.1598 C.3     1  LIG1       -0.0392
      8 H           0.6355   -3.3820   -0.1643 H       1  LIG1        0.0278
      9 H          -0.7960   -3.3733   -1.1944 H       1  LIG1        0.0278
     10 H          -0.8809   -4.0738    0.4275 H       1  LIG1        0.0278
     11 H           0.1299   -0.5954   -1.0877 H       1  LIG1        0.0632
     12 C          -0.7278    1.8457    0.1777 C.ar    1  LIG1        0.0294
     13 C           0.3991    2.4681   -0.3341 C.ar    1  LIG1       -0.0346
     14 C           0.2079    3.8691   -0.5103 C.ar    1  LIG1       -0.0429
     15 C          -1.0327    4.3371   -0.1337 C.ar    1  LIG1        0.0270
     16 S          -2.0160    3.0078    0.4523 S.2     1  LIG1       -0.0869
     17 C           1.6965    1.7803   -0.6648 C.3     1  LIG1       -0.0386
     18 H           2.5417    2.4583   -0.5120 H       1  LIG1        0.0278
     19 H           1.7292    1.4543   -1.7121 H       1  LIG1        0.0278
     20 H           1.8487    0.8952   -0.0417 H       1  LIG1        0.0278
     21 H           0.9710    4.5122   -0.9323 H       1  LIG1        0.0632
     22 C          -1.5444    5.6947   -0.1706 C.ar    1  LIG1        0.0294
     23 C          -0.8654    6.8871    0.0263 C.ar    1  LIG1       -0.0346
     24 C          -1.7196    8.0203   -0.1020 C.ar    1  LIG1       -0.0429
     25 C          -3.0367    7.7260   -0.3780 C.ar    1  LIG1        0.0270
     26 S          -3.2455    5.9894   -0.4981 S.2     1  LIG1       -0.0869
     27 C           0.5982    7.0112    0.3550 C.3     1  LIG1       -0.0386
     28 H           0.7832    7.9092    0.9519 H       1  LIG1        0.0278
     29 H           1.2142    7.0917   -0.5496 H       1  LIG1        0.0278
     30 H           0.9559    6.1451    0.9182 H       1  LIG1        0.0278
     31 H          -1.3567    9.0375   -0.0119 H       1  LIG1        0.0632
     32 C          -4.1560    8.6355   -0.5551 C.ar    1  LIG1        0.0288
     33 C          -4.4185    9.8286    0.0975 C.ar    1  LIG1       -0.0352
     34 C          -5.6296   10.4357   -0.3625 C.ar    1  LIG1       -0.0512
     35 C          -6.2734    9.7225   -1.3329 C.ar    1  LIG1       -0.0235
     36 S          -5.4095    8.2784   -1.7363 S.2     1  LIG1       -0.0959
     37 H          -7.2029    9.9565   -1.8327 H       1  LIG1        0.0693
     38 C          -3.5738   10.4284    1.1894 C.3     1  LIG1       -0.0386
     39 H          -4.1973   10.9841    1.8965 H       1  LIG1        0.0278
     40 H          -2.8325   11.1328    0.7909 H       1  LIG1        0.0278
     41 H          -3.0296    9.6590    1.7433 H       1  LIG1        0.0278
     42 H          -6.0077   11.3704    0.0377 H       1  LIG1        0.0626
@<TRIPOS>BOND
     1    37    35    1
     2    36    35   ar
     3    36    32   ar
     4    19    17    1
     5    35    34   ar
     6     9     7    1
     7    11     3    1
     8    21    14    1
     9    17    18    1
    10    17    13    1
    11    17    20    1
    12    32    25    1
    13    32    33   ar
    14    29    27    1
    15    14    13   ar
    16    14    15   ar
    17    26    25   ar
    18    26    22   ar
    19    25    24   ar
    20    34    42    1
    21    34    33   ar
    22    13    12   ar
    23     3     2   ar
    24     3     4   ar
    25    22    15    1
    26    22    23   ar
    27     8     7    1
    28     7     2    1
    29     7    10    1
    30    15    16   ar
    31    24    31    1
    32    24    23   ar
    33    23    27    1
    34    33    38    1
    35    12    16   ar
    36    12     4    1
    37    27    30    1
    38    27    28    1
    39     2     1   ar
    40     4     5   ar
    41    40    38    1
    42    38    41    1
    43    38    39    1
    44     1     5   ar
    45     1     6    1
