@<TRIPOS>MOLECULE
mol_data/opt/b3lyp/geoms/mol2/5ia5ia5ia-5ia.out
 42 45 0 0 0
SMALL
GASTEIGER

@<TRIPOS>ATOM
      1 C          -1.6588   -1.7326    1.4970 C.ar    1  LIG1       -0.0208
      2 C          -0.8552   -1.9158    0.4029 C.ar    1  LIG1       -0.0428
      3 C          -0.4537   -0.6681   -0.1713 C.ar    1  LIG1       -0.0435
      4 C          -0.9416    0.4414    0.4828 C.ar    1  LIG1        0.0264
      5 S          -1.9227   -0.0565    1.8552 S.2     1  LIG1       -0.0959
      6 H          -2.1146   -2.4926    2.1171 H       1  LIG1        0.0696
      7 C          -0.4512   -3.2574   -0.1467 C.3     1  LIG1       -0.0392
      8 H           0.6377   -3.3825   -0.1323 H       1  LIG1        0.0278
      9 H          -0.7759   -3.3757   -1.1868 H       1  LIG1        0.0278
     10 H          -0.8887   -4.0730    0.4347 H       1  LIG1        0.0278
     11 H           0.1481   -0.5976   -1.0699 H       1  LIG1        0.0632
     12 C          -0.7309    1.8461    0.1759 C.ar    1  LIG1        0.0294
     13 C           0.4045    2.4674   -0.3181 C.ar    1  LIG1       -0.0346
     14 C           0.2164    3.8680   -0.5003 C.ar    1  LIG1       -0.0429
     15 C          -1.0303    4.3368   -0.1455 C.ar    1  LIG1        0.0270
     16 S          -2.0234    3.0088    0.4263 S.2     1  LIG1       -0.0869
     17 C           1.7073    1.7789   -0.6255 C.3     1  LIG1       -0.0386
     18 H           2.5498    2.4571   -0.4594 H       1  LIG1        0.0278
     19 H           1.7578    1.4511   -1.6715 H       1  LIG1        0.0278
     20 H           1.8487    0.8948    0.0016 H       1  LIG1        0.0278
     21 H           0.9866    4.5102   -0.9106 H       1  LIG1        0.0632
     22 C          -1.5411    5.6944   -0.1937 C.ar    1  LIG1        0.0294
     23 C          -0.8655    6.8871    0.0122 C.ar    1  LIG1       -0.0346
     24 C          -1.7172    8.0201   -0.1326 C.ar    1  LIG1       -0.0429
     25 C          -3.0296    7.7254   -0.4302 C.ar    1  LIG1        0.0270
     26 S          -3.2365    5.9885   -0.5505 S.2     1  LIG1       -0.0869
     27 C           0.5924    7.0117    0.3653 C.3     1  LIG1       -0.0386
     28 H           0.7675    7.9110    0.9634 H       1  LIG1        0.0278
     29 H           1.2235    7.0904   -0.5289 H       1  LIG1        0.0278
     30 H           0.9405    6.1468    0.9362 H       1  LIG1        0.0278
     31 H          -1.3558    9.0374   -0.0384 H       1  LIG1        0.0632
     32 C          -4.1457    8.6346   -0.6280 C.ar    1  LIG1        0.0288
     33 C          -4.4191    9.8289    0.0181 C.ar    1  LIG1       -0.0352
     34 C          -5.6221   10.4352   -0.4636 C.ar    1  LIG1       -0.0512
     35 C          -6.2495    9.7203   -1.4434 C.ar    1  LIG1       -0.0235
     36 S          -5.3789    8.2755   -1.8295 S.2     1  LIG1       -0.0959
     37 H          -7.1703    9.9534   -1.9593 H       1  LIG1        0.0693
     38 C          -3.5929   10.4306    1.1230 C.3     1  LIG1       -0.0386
     39 H          -4.2282   10.9878    1.8183 H       1  LIG1        0.0278
     40 H          -2.8447   11.1340    0.7359 H       1  LIG1        0.0278
     41 H          -3.0585    9.6622    1.6876 H       1  LIG1        0.0278
     42 H          -6.0069   11.3706   -0.0714 H       1  LIG1        0.0626
@<TRIPOS>BOND
     1    37    35    1
     2    36    35   ar
     3    36    32   ar
     4    19    17    1
     5    35    34   ar
     6     9     7    1
     7    11     3    1
     8    21    14    1
     9    32    25    1
    10    32    33   ar
    11    17    18    1
    12    17    13    1
    13    17    20    1
    14    26    25   ar
    15    26    22   ar
    16    29    27    1
    17    14    13   ar
    18    14    15   ar
    19    34    42    1
    20    34    33   ar
    21    25    24   ar
    22    13    12   ar
    23    22    15    1
    24    22    23   ar
    25     3     2   ar
    26     3     4   ar
    27     7     8    1
    28     7     2    1
    29     7    10    1
    30    15    16   ar
    31    24    31    1
    32    24    23   ar
    33    23    27    1
    34    33    38    1
    35    12    16   ar
    36    12     4    1
    37    27    30    1
    38    27    28    1
    39     2     1   ar
    40     4     5   ar
    41    40    38    1
    42    38    41    1
    43    38    39    1
    44     1     5   ar
    45     1     6    1
