@<TRIPOS>MOLECULE
mol_data/opt/b3lyp/geoms/mol2/5ia5ia-5ia5ia-.out
 42 45 0 0 0
SMALL
GASTEIGER

@<TRIPOS>ATOM
      1 C          -1.6317   -1.7330    1.5139 C.ar    1  LIG1       -0.0208
      2 C          -0.8480   -1.9159    0.4053 C.ar    1  LIG1       -0.0428
      3 C          -0.4570   -0.6680   -0.1757 C.ar    1  LIG1       -0.0435
      4 C          -0.9329    0.4413    0.4875 C.ar    1  LIG1        0.0264
      5 S          -1.8890   -0.0570    1.8772 S.2     1  LIG1       -0.0959
      6 H          -2.0762   -2.4932    2.1419 H       1  LIG1        0.0696
      7 C          -0.4541   -3.2573   -0.1520 C.3     1  LIG1       -0.0392
      8 H           0.6348   -3.3825   -0.1572 H       1  LIG1        0.0278
      9 H          -0.7976   -3.3752   -1.1861 H       1  LIG1        0.0278
     10 H          -0.8811   -4.0731    0.4370 H       1  LIG1        0.0278
     11 H           0.1284   -0.5973   -1.0850 H       1  LIG1        0.0632
     12 C          -0.7277    1.8460    0.1772 C.ar    1  LIG1        0.0294
     13 C           0.3987    2.4675   -0.3368 C.ar    1  LIG1       -0.0346
     14 C           0.2074    3.8681   -0.5152 C.ar    1  LIG1       -0.0429
     15 C          -1.0328    4.3369   -0.1382 C.ar    1  LIG1        0.0270
     16 S          -2.0156    3.0086    0.4509 S.2     1  LIG1       -0.0869
     17 C           1.6959    1.7790   -0.6674 C.3     1  LIG1       -0.0386
     18 H           2.5412    2.4572   -0.5163 H       1  LIG1        0.0278
     19 H           1.7276    1.4514   -1.7143 H       1  LIG1        0.0278
     20 H           1.8484    0.8949   -0.0432 H       1  LIG1        0.0278
     21 H           0.9702    4.5105   -0.9390 H       1  LIG1        0.0632
     22 C          -1.5445    5.6944   -0.1770 C.ar    1  LIG1        0.0294
     23 C          -0.8653    6.8871    0.0171 C.ar    1  LIG1       -0.0346
     24 C          -1.7195    8.0201   -0.1123 C.ar    1  LIG1       -0.0429
     25 C          -3.0369    7.7255   -0.3865 C.ar    1  LIG1        0.0270
     26 S          -3.2459    5.9886   -0.5034 S.2     1  LIG1       -0.0869
     27 C           0.5986    7.0117    0.3443 C.3     1  LIG1       -0.0386
     28 H           0.7843    7.9107    0.9396 H       1  LIG1        0.0278
     29 H           1.2138    7.0908   -0.5610 H       1  LIG1        0.0278
     30 H           0.9569    6.1465    0.9085 H       1  LIG1        0.0278
     31 H          -1.3564    9.0374   -0.0243 H       1  LIG1        0.0632
     32 C          -4.1563    8.6347   -0.5642 C.ar    1  LIG1        0.0288
     33 C          -4.4181    9.8289    0.0867 C.ar    1  LIG1       -0.0352
     34 C          -5.6296   10.4352   -0.3733 C.ar    1  LIG1       -0.0512
     35 C          -6.2743    9.7204   -1.3419 C.ar    1  LIG1       -0.0235
     36 S          -5.4108    8.2757   -1.7436 S.2     1  LIG1       -0.0959
     37 H          -7.2042    9.9536   -1.8413 H       1  LIG1        0.0693
     38 C          -3.5725   10.4305    1.1768 C.3     1  LIG1       -0.0386
     39 H          -4.1953   10.9874    1.8834 H       1  LIG1        0.0278
     40 H          -2.8315   11.1341    0.7765 H       1  LIG1        0.0278
     41 H          -3.0279    9.6620    1.7316 H       1  LIG1        0.0278
     42 H          -6.0073   11.3707    0.0257 H       1  LIG1        0.0626
@<TRIPOS>BOND
     1    37    35    1
     2    36    35   ar
     3    36    32   ar
     4    19    17    1
     5    35    34   ar
     6     9     7    1
     7    11     3    1
     8    21    14    1
     9    17    18    1
    10    17    13    1
    11    17    20    1
    12    32    25    1
    13    32    33   ar
    14    29    27    1
    15    14    13   ar
    16    14    15   ar
    17    26    25   ar
    18    26    22   ar
    19    25    24   ar
    20    34    42    1
    21    34    33   ar
    22    13    12   ar
    23    22    15    1
    24    22    23   ar
    25     3     2   ar
    26     3     4   ar
    27     8     7    1
    28     7     2    1
    29     7    10    1
    30    15    16   ar
    31    24    31    1
    32    24    23   ar
    33    23    27    1
    34    33    38    1
    35    12    16   ar
    36    12     4    1
    37    27    30    1
    38    27    28    1
    39     2     1   ar
    40     4     5   ar
    41    40    38    1
    42    38    41    1
    43    38    39    1
    44     1     5   ar
    45     1     6    1
