@<TRIPOS>MOLECULE
mol_data/opt/b3lyp/geoms/mol2/5ia5ia-5ia-.out
 32 34 0 0 0
SMALL
GASTEIGER

@<TRIPOS>ATOM
      1 C          -1.8325   -1.7971    1.0476 C.ar    1  LIG1       -0.0208
      2 C          -0.8158   -1.8966    0.1351 C.ar    1  LIG1       -0.0428
      3 C          -0.3642   -0.6081   -0.2938 C.ar    1  LIG1       -0.0435
      4 C          -1.0257    0.4490    0.2904 C.ar    1  LIG1        0.0264
      5 S          -2.2407   -0.1512    1.4114 S.2     1  LIG1       -0.0959
      6 H          -2.3693   -2.6029    1.5298 H       1  LIG1        0.0696
      7 C          -0.2475   -3.1938   -0.3742 C.3     1  LIG1       -0.0392
      8 H           0.8208   -3.2787   -0.1439 H       1  LIG1        0.0278
      9 H          -0.3503   -3.2733   -1.4625 H       1  LIG1        0.0278
     10 H          -0.7548   -4.0525    0.0730 H       1  LIG1        0.0278
     11 H           0.4040   -0.4710   -1.0459 H       1  LIG1        0.0632
     12 C          -0.8229    1.8742    0.0891 C.ar    1  LIG1        0.0294
     13 C           0.3597    2.5622   -0.1259 C.ar    1  LIG1       -0.0346
     14 C           0.1456    3.9617   -0.2942 C.ar    1  LIG1       -0.0429
     15 C          -1.1686    4.3623   -0.1997 C.ar    1  LIG1        0.0270
     16 S          -2.1945    2.9716    0.0973 S.2     1  LIG1       -0.0869
     17 C           1.7303    1.9416   -0.1711 C.3     1  LIG1       -0.0386
     18 H           2.4818    2.6393    0.2110 H       1  LIG1        0.0278
     19 H           2.0245    1.6792   -1.1952 H       1  LIG1        0.0278
     20 H           1.7745    1.0273    0.4263 H       1  LIG1        0.0278
     21 H           0.9524    4.6544   -0.5036 H       1  LIG1        0.0632
     22 C          -1.7233    5.7014   -0.3079 C.ar    1  LIG1        0.0288
     23 C          -1.1879    6.9022    0.1271 C.ar    1  LIG1       -0.0352
     24 C          -2.0440    8.0095   -0.1704 C.ar    1  LIG1       -0.0512
     25 C          -3.2001    7.6607   -0.8078 C.ar    1  LIG1       -0.0235
     26 S          -3.2807    5.9546   -1.0854 S.2     1  LIG1       -0.0959
     27 H          -4.0092    8.3017   -1.1286 H       1  LIG1        0.0693
     28 C           0.1181    7.0588    0.8585 C.3     1  LIG1       -0.0386
     29 H           0.0651    7.8916    1.5665 H       1  LIG1        0.0278
     30 H           0.9466    7.2725    0.1712 H       1  LIG1        0.0278
     31 H           0.3776    6.1530    1.4125 H       1  LIG1        0.0278
     32 H          -1.8003    9.0310    0.1019 H       1  LIG1        0.0626
@<TRIPOS>BOND
     1     9     7    1
     2    19    17    1
     3    27    25    1
     4    26    25   ar
     5    26    22   ar
     6    11     3    1
     7    25    24   ar
     8    21    14    1
     9     7     8    1
    10     7    10    1
    11     7     2    1
    12    22    15    1
    13    22    23   ar
    14    14    15   ar
    15    14    13   ar
    16     3     2   ar
    17     3     4   ar
    18    15    16   ar
    19    17    13    1
    20    17    18    1
    21    17    20    1
    22    24    32    1
    23    24    23   ar
    24    13    12   ar
    25    12    16   ar
    26    12     4    1
    27    23    28    1
    28     2     1   ar
    29    30    28    1
    30     4     5   ar
    31    28    31    1
    32    28    29    1
    33     1     5   ar
    34     1     6    1
