@<TRIPOS>MOLECULE
mol_data/opt/b3lyp/geoms/mol2/5ia5ia-.out
 22 23 0 0 0
SMALL
GASTEIGER

@<TRIPOS>ATOM
      1 C          -2.0005   -1.7656    0.6034 C.ar    1  LIG1       -0.0208
      2 C          -0.7799   -1.8046   -0.0166 C.ar    1  LIG1       -0.0428
      3 C          -0.2971   -0.4899   -0.3134 C.ar    1  LIG1       -0.0435
      4 C          -1.1367    0.5259    0.0825 C.ar    1  LIG1        0.0264
      5 S          -2.5681   -0.1455    0.8521 S.2     1  LIG1       -0.0959
      6 H          -2.6030   -2.6024    0.9301 H       1  LIG1        0.0696
      7 C          -0.0373   -3.0667   -0.3638 C.3     1  LIG1       -0.0392
      8 H           0.9395   -3.1038    0.1323 H       1  LIG1        0.0278
      9 H           0.1457   -3.1374   -1.4422 H       1  LIG1        0.0278
     10 H          -0.5993   -3.9541   -0.0615 H       1  LIG1        0.0278
     11 H           0.6319   -0.3046   -0.8404 H       1  LIG1        0.0632
     12 C          -0.9564    1.9634   -0.0559 C.ar    1  LIG1        0.0288
     13 C           0.1988    2.7114    0.0884 C.ar    1  LIG1       -0.0352
     14 C          -0.0341    4.1062   -0.1343 C.ar    1  LIG1       -0.0512
     15 C          -1.3311    4.4100   -0.4335 C.ar    1  LIG1       -0.0235
     16 S          -2.3218    2.9912   -0.4704 S.2     1  LIG1       -0.0959
     17 H          -1.7644    5.3804   -0.6315 H       1  LIG1        0.0693
     18 C           1.5490    2.1627    0.4643 C.3     1  LIG1       -0.0386
     19 H           2.0946    2.8761    1.0899 H       1  LIG1        0.0278
     20 H           2.1694    1.9697   -0.4201 H       1  LIG1        0.0278
     21 H           1.4594    1.2220    1.0132 H       1  LIG1        0.0278
     22 H           0.7485    4.8534   -0.0563 H       1  LIG1        0.0626
@<TRIPOS>BOND
     1     9     7    1
     2    11     3    1
     3    17    15    1
     4    16    15   ar
     5    16    12   ar
     6    15    14   ar
     7    20    18    1
     8     7    10    1
     9     7     2    1
    10     7     8    1
    11     3     2   ar
    12     3     4   ar
    13    14    22    1
    14    14    13   ar
    15    12     4    1
    16    12    13   ar
    17     2     1   ar
    18     4     5   ar
    19    13    18    1
    20    18    21    1
    21    18    19    1
    22     1     5   ar
    23     1     6    1
