@<TRIPOS>MOLECULE
mol_data/opt/b3lyp/geoms/mol2/5ia5ia5ia5ia.out
 42 45 0 0 0
SMALL
GASTEIGER

@<TRIPOS>ATOM
      1 C          -1.6463   -1.7312    1.5073 C.ar    1  LIG1       -0.0208
      2 C          -0.8516   -1.9154    0.4069 C.ar    1  LIG1       -0.0428
      3 C          -0.4549   -0.6683   -0.1719 C.ar    1  LIG1       -0.0435
      4 C          -0.9375    0.4418    0.4850 C.ar    1  LIG1        0.0264
      5 S          -1.9073   -0.0547    1.8659 S.2     1  LIG1       -0.0959
      6 H          -2.0969   -2.4906    2.1319 H       1  LIG1        0.0696
      7 C          -0.4520   -3.2576   -0.1446 C.3     1  LIG1       -0.0392
      8 H           0.6370   -3.3826   -0.1388 H       1  LIG1        0.0278
      9 H          -0.7851   -3.3769   -1.1820 H       1  LIG1        0.0278
     10 H          -0.8848   -4.0726    0.4412 H       1  LIG1        0.0278
     11 H           0.1395   -0.5987   -1.0755 H       1  LIG1        0.0632
     12 C          -0.7294    1.8462    0.1749 C.ar    1  LIG1        0.0294
     13 C           0.4018    2.4670   -0.3292 C.ar    1  LIG1       -0.0346
     14 C           0.2122    3.8674   -0.5112 C.ar    1  LIG1       -0.0429
     15 C          -1.0315    4.3367   -0.1464 C.ar    1  LIG1        0.0270
     16 S          -2.0198    3.0092    0.4352 S.2     1  LIG1       -0.0869
     17 C           1.7020    1.7782   -0.6470 C.3     1  LIG1       -0.0386
     18 H           2.5458    2.4567   -0.4890 H       1  LIG1        0.0278
     19 H           1.7434    1.4491   -1.6930 H       1  LIG1        0.0278
     20 H           1.8488    0.8949   -0.0201 H       1  LIG1        0.0278
     21 H           0.9788    4.5093   -0.9286 H       1  LIG1        0.0632
     22 C          -1.5427    5.6942   -0.1916 C.ar    1  LIG1        0.0294
     23 C          -0.8654    6.8871    0.0080 C.ar    1  LIG1       -0.0346
     24 C          -1.7183    8.0199   -0.1308 C.ar    1  LIG1       -0.0429
     25 C          -3.0330    7.7250   -0.4176 C.ar    1  LIG1        0.0270
     26 S          -3.2409    5.9881   -0.5348 S.2     1  LIG1       -0.0869
     27 C           0.5953    7.0119    0.3492 C.3     1  LIG1       -0.0386
     28 H           0.7753    7.9117    0.9450 H       1  LIG1        0.0278
     29 H           1.2191    7.0898   -0.5503 H       1  LIG1        0.0278
     30 H           0.9480    6.1474    0.9179 H       1  LIG1        0.0278
     31 H          -1.3561    9.0374   -0.0403 H       1  LIG1        0.0632
     32 C          -4.1506    8.6341   -0.6072 C.ar    1  LIG1        0.0288
     33 C          -4.4187    9.8291    0.0398 C.ar    1  LIG1       -0.0352
     34 C          -5.6256   10.4349   -0.4326 C.ar    1  LIG1       -0.0512
     35 C          -6.2610    9.7190   -1.4066 C.ar    1  LIG1       -0.0235
     36 S          -5.3937    8.2738   -1.7982 S.2     1  LIG1       -0.0959
     37 H          -7.1860    9.9517   -1.9152 H       1  LIG1        0.0693
     38 C          -3.5835   10.4319    1.1373 C.3     1  LIG1       -0.0386
     39 H          -4.2131   10.9897    1.8372 H       1  LIG1        0.0278
     40 H          -2.8386   11.1350    0.7433 H       1  LIG1        0.0278
     41 H          -3.0444    9.6641    1.6982 H       1  LIG1        0.0278
     42 H          -6.0072   11.3708   -0.0384 H       1  LIG1        0.0626
@<TRIPOS>BOND
     1    37    35    1
     2    36    35   ar
     3    36    32   ar
     4    19    17    1
     5    35    34   ar
     6     9     7    1
     7    11     3    1
     8    21    14    1
     9    17    18    1
    10    17    13    1
    11    17    20    1
    12    32    25    1
    13    32    33   ar
    14    29    27    1
    15    26    25   ar
    16    26    22   ar
    17    14    13   ar
    18    14    15   ar
    19    34    42    1
    20    34    33   ar
    21    25    24   ar
    22    13    12   ar
    23    22    15    1
    24    22    23   ar
    25     3     2   ar
    26     3     4   ar
    27    15    16   ar
    28     7     8    1
    29     7     2    1
    30     7    10    1
    31    24    31    1
    32    24    23   ar
    33    23    27    1
    34    33    38    1
    35    12    16   ar
    36    12     4    1
    37    27    30    1
    38    27    28    1
    39     2     1   ar
    40     4     5   ar
    41    40    38    1
    42    38    41    1
    43    38    39    1
    44     1     5   ar
    45     1     6    1
