@<TRIPOS>MOLECULE
mol_data/opt/b3lyp/geoms/mol2/5ia5ia-5ia.out
 32 34 0 0 0
SMALL
GASTEIGER

@<TRIPOS>ATOM
      1 C          -1.8277   -1.7945    1.0583 C.ar    1  LIG1       -0.0208
      2 C          -0.8154   -1.8962    0.1411 C.ar    1  LIG1       -0.0428
      3 C          -0.3658   -0.6088   -0.2930 C.ar    1  LIG1       -0.0435
      4 C          -1.0244    0.4498    0.2919 C.ar    1  LIG1        0.0264
      5 S          -2.2341   -0.1478    1.4202 S.2     1  LIG1       -0.0959
      6 H          -2.3622   -2.5992    1.5449 H       1  LIG1        0.0696
      7 C          -0.2496   -3.1947   -0.3678 C.3     1  LIG1       -0.0392
      8 H           0.8198   -3.2790   -0.1425 H       1  LIG1        0.0278
      9 H          -0.3577   -3.2768   -1.4554 H       1  LIG1        0.0278
     10 H          -0.7547   -4.0522    0.0840 H       1  LIG1        0.0278
     11 H           0.3987   -0.4735   -1.0492 H       1  LIG1        0.0632
     12 C          -0.8225    1.8744    0.0863 C.ar    1  LIG1        0.0294
     13 C           0.3590    2.5618   -0.1363 C.ar    1  LIG1       -0.0346
     14 C           0.1442    3.9610   -0.3067 C.ar    1  LIG1       -0.0429
     15 C          -1.1695    4.3619   -0.2064 C.ar    1  LIG1        0.0270
     16 S          -2.1940    2.9720    0.0990 S.2     1  LIG1       -0.0869
     17 C           1.7293    1.9410   -0.1869 C.3     1  LIG1       -0.0386
     18 H           2.4827    2.6394    0.1899 H       1  LIG1        0.0278
     19 H           2.0184    1.6764   -1.2119 H       1  LIG1        0.0278
     20 H           1.7764    1.0280    0.4122 H       1  LIG1        0.0278
     21 H           0.9500    4.6532   -0.5218 H       1  LIG1        0.0632
     22 C          -1.7246    5.7008   -0.3149 C.ar    1  LIG1        0.0288
     23 C          -1.1870    6.9025    0.1148 C.ar    1  LIG1       -0.0352
     24 C          -2.0444    8.0092   -0.1808 C.ar    1  LIG1       -0.0512
     25 C          -3.2037    7.6591   -0.8118 C.ar    1  LIG1       -0.0235
     26 S          -3.2858    5.9524   -1.0852 S.2     1  LIG1       -0.0959
     27 H          -4.0143    8.2996   -1.1301 H       1  LIG1        0.0693
     28 C           0.1226    7.0605    0.8395 C.3     1  LIG1       -0.0386
     29 H           0.0732    7.8949    1.5459 H       1  LIG1        0.0278
     30 H           0.9478    7.2725    0.1477 H       1  LIG1        0.0278
     31 H           0.3847    6.1560    1.3943 H       1  LIG1        0.0278
     32 H          -1.7993    9.0313    0.0880 H       1  LIG1        0.0626
@<TRIPOS>BOND
     1     9     7    1
     2    19    17    1
     3    27    25    1
     4    26    25   ar
     5    26    22   ar
     6    11     3    1
     7    25    24   ar
     8    21    14    1
     9     7     8    1
    10     7    10    1
    11     7     2    1
    12    22    15    1
    13    22    23   ar
    14    14    15   ar
    15    14    13   ar
    16     3     2   ar
    17     3     4   ar
    18    15    16   ar
    19    17    13    1
    20    17    18    1
    21    17    20    1
    22    24    32    1
    23    24    23   ar
    24    13    12   ar
    25    12    16   ar
    26    12     4    1
    27    23    28    1
    28     2     1   ar
    29    30    28    1
    30     4     5   ar
    31    28    31    1
    32    28    29    1
    33     1     5   ar
    34     1     6    1
