@<TRIPOS>MOLECULE
mol_data/opt/b3lyp/geoms/mol2/5ia5ia-5ia-5ia.out
 42 45 0 0 0
SMALL
GASTEIGER

@<TRIPOS>ATOM
      1 C          -1.6456   -1.7371    1.4971 C.ar    1  LIG1       -0.0208
      2 C          -0.8516   -1.9170    0.3954 C.ar    1  LIG1       -0.0428
      3 C          -0.4553   -0.6675   -0.1786 C.ar    1  LIG1       -0.0435
      4 C          -0.9373    0.4400    0.4832 C.ar    1  LIG1        0.0264
      5 S          -1.9062   -0.0621    1.8626 S.2     1  LIG1       -0.0959
      6 H          -2.0958   -2.4990    2.1189 H       1  LIG1        0.0696
      7 C          -0.4525   -3.2569   -0.1618 C.3     1  LIG1       -0.0392
      8 H           0.6365   -3.3821   -0.1570 H       1  LIG1        0.0278
      9 H          -0.7861   -3.3719   -1.1995 H       1  LIG1        0.0278
     10 H          -0.8851   -4.0742    0.4208 H       1  LIG1        0.0278
     11 H           0.1386   -0.5943   -1.0822 H       1  LIG1        0.0632
     12 C          -0.7293    1.8455    0.1786 C.ar    1  LIG1        0.0294
     13 C           0.4018    2.4684   -0.3232 C.ar    1  LIG1       -0.0346
     14 C           0.2122    3.8695   -0.4996 C.ar    1  LIG1       -0.0429
     15 C          -1.0315    4.3372   -0.1329 C.ar    1  LIG1        0.0270
     16 S          -2.0198    3.0074    0.4434 S.2     1  LIG1       -0.0869
     17 C           1.7020    1.7808   -0.6437 C.3     1  LIG1       -0.0386
     18 H           2.5458    2.4586   -0.4830 H       1  LIG1        0.0278
     19 H           1.7434    1.4559   -1.6910 H       1  LIG1        0.0278
     20 H           1.8488    0.8951   -0.0203 H       1  LIG1        0.0278
     21 H           0.9788    4.5130   -0.9145 H       1  LIG1        0.0632
     22 C          -1.5429    5.6948   -0.1727 C.ar    1  LIG1        0.0294
     23 C          -0.8655    6.8871    0.0307 C.ar    1  LIG1       -0.0346
     24 C          -1.7185    8.0204   -0.1034 C.ar    1  LIG1       -0.0429
     25 C          -3.0334    7.7265   -0.3903 C.ar    1  LIG1        0.0270
     26 S          -3.2413    5.9899   -0.5138 S.2     1  LIG1       -0.0869
     27 C           0.5954    7.0108    0.3715 C.3     1  LIG1       -0.0386
     28 H           0.7756    7.9084    0.9705 H       1  LIG1        0.0278
     29 H           1.2187    7.0920   -0.5280 H       1  LIG1        0.0278
     30 H           0.9485    6.1443    0.9369 H       1  LIG1        0.0278
     31 H          -1.3563    9.0375   -0.0094 H       1  LIG1        0.0632
     32 C          -4.1512    8.6361   -0.5758 C.ar    1  LIG1        0.0288
     33 C          -4.4189    9.8287    0.0758 C.ar    1  LIG1       -0.0352
     34 C          -5.6262   10.4362   -0.3935 C.ar    1  LIG1       -0.0512
     35 C          -6.2622    9.7239   -1.3697 C.ar    1  LIG1       -0.0235
     36 S          -5.3951    8.2802   -1.7673 S.2     1  LIG1       -0.0959
     37 H          -7.1876    9.9583   -1.8768 H       1  LIG1        0.0693
     38 C          -3.5831   10.4275    1.1750 C.3     1  LIG1       -0.0386
     39 H          -4.2123   10.9827    1.8774 H       1  LIG1        0.0278
     40 H          -2.8385   11.1321    0.7832 H       1  LIG1        0.0278
     41 H          -3.0435    9.6576    1.7327 H       1  LIG1        0.0278
     42 H          -6.0075   11.3706    0.0045 H       1  LIG1        0.0626
@<TRIPOS>BOND
     1    37    35    1
     2    36    35   ar
     3    36    32   ar
     4    19    17    1
     5    35    34   ar
     6     9     7    1
     7    11     3    1
     8    21    14    1
     9    17    18    1
    10    17    13    1
    11    17    20    1
    12    32    25    1
    13    32    33   ar
    14    29    27    1
    15    26    25   ar
    16    26    22   ar
    17    14    13   ar
    18    14    15   ar
    19    34    42    1
    20    34    33   ar
    21    25    24   ar
    22    13    12   ar
    23     3     2   ar
    24     3     4   ar
    25    22    15    1
    26    22    23   ar
    27     7     8    1
    28     7     2    1
    29     7    10    1
    30    15    16   ar
    31    24    31    1
    32    24    23   ar
    33    23    27    1
    34    33    38    1
    35    12    16   ar
    36    12     4    1
    37    27    30    1
    38    27    28    1
    39     2     1   ar
    40     4     5   ar
    41    40    38    1
    42    38    41    1
    43    38    39    1
    44     1     5   ar
    45     1     6    1
