@<TRIPOS>MOLECULE
mol_data/opt/b3lyp/geoms/mol2/5ia5ia-5ia-5ia-.out
 42 45 0 0 0
SMALL
GASTEIGER

@<TRIPOS>ATOM
      1 C          -1.6441   -1.7346    1.5037 C.ar    1  LIG1       -0.0208
      2 C          -0.8516   -1.9164    0.4012 C.ar    1  LIG1       -0.0428
      3 C          -0.4558   -0.6680   -0.1754 C.ar    1  LIG1       -0.0435
      4 C          -0.9369    0.4407    0.4851 C.ar    1  LIG1        0.0264
      5 S          -1.9042   -0.0589    1.8667 S.2     1  LIG1       -0.0959
      6 H          -2.0936   -2.4954    2.1273 H       1  LIG1        0.0696
      7 C          -0.4533   -3.2573   -0.1541 C.3     1  LIG1       -0.0392
      8 H           0.6357   -3.3826   -0.1505 H       1  LIG1        0.0278
      9 H          -0.7882   -3.3741   -1.1912 H       1  LIG1        0.0278
     10 H          -0.8852   -4.0736    0.4305 H       1  LIG1        0.0278
     11 H           0.1369   -0.5963   -1.0798 H       1  LIG1        0.0632
     12 C          -0.7292    1.8458    0.1779 C.ar    1  LIG1        0.0294
     13 C           0.4015    2.4677   -0.3259 C.ar    1  LIG1       -0.0346
     14 C           0.2117    3.8686   -0.5044 C.ar    1  LIG1       -0.0429
     15 C          -1.0316    4.3370   -0.1373 C.ar    1  LIG1        0.0270
     16 S          -2.0194    3.0081    0.4420 S.2     1  LIG1       -0.0869
     17 C           1.7013    1.7795   -0.6466 C.3     1  LIG1       -0.0386
     18 H           2.5454    2.4575   -0.4878 H       1  LIG1        0.0278
     19 H           1.7416    1.4529   -1.6934 H       1  LIG1        0.0278
     20 H           1.8486    0.8947   -0.0219 H       1  LIG1        0.0278
     21 H           0.9780    4.5114   -0.9212 H       1  LIG1        0.0632
     22 C          -1.5429    5.6945   -0.1790 C.ar    1  LIG1        0.0294
     23 C          -0.8653    6.8871    0.0220 C.ar    1  LIG1       -0.0346
     24 C          -1.7184    8.0202   -0.1133 C.ar    1  LIG1       -0.0429
     25 C          -3.0336    7.7259   -0.3986 C.ar    1  LIG1        0.0270
     26 S          -3.2416    5.9891   -0.5190 S.2     1  LIG1       -0.0869
     27 C           0.5959    7.0114    0.3612 C.3     1  LIG1       -0.0386
     28 H           0.7767    7.9099    0.9586 H       1  LIG1        0.0278
     29 H           1.2184    7.0911   -0.5391 H       1  LIG1        0.0278
     30 H           0.9495    6.1457    0.9277 H       1  LIG1        0.0278
     31 H          -1.3561    9.0374   -0.0213 H       1  LIG1        0.0632
     32 C          -4.1515    8.6353   -0.5847 C.ar    1  LIG1        0.0288
     33 C          -4.4185    9.8290    0.0649 C.ar    1  LIG1       -0.0352
     34 C          -5.6262   10.4358   -0.4045 C.ar    1  LIG1       -0.0512
     35 C          -6.2630    9.7217   -1.3788 C.ar    1  LIG1       -0.0235
     36 S          -5.3964    8.2772   -1.7745 S.2     1  LIG1       -0.0959
     37 H          -7.1888    9.9554   -1.8856 H       1  LIG1        0.0693
     38 C          -3.5817   10.4298    1.1622 C.3     1  LIG1       -0.0386
     39 H          -4.2102   10.9861    1.8644 H       1  LIG1        0.0278
     40 H          -2.8376   11.1339    0.7684 H       1  LIG1        0.0278
     41 H          -3.0414    9.6610    1.7207 H       1  LIG1        0.0278
     42 H          -6.0072   11.3709   -0.0079 H       1  LIG1        0.0626
@<TRIPOS>BOND
     1    37    35    1
     2    36    35   ar
     3    36    32   ar
     4    19    17    1
     5    35    34   ar
     6     9     7    1
     7    11     3    1
     8    21    14    1
     9    17    18    1
    10    17    13    1
    11    17    20    1
    12    32    25    1
    13    32    33   ar
    14    29    27    1
    15    26    25   ar
    16    26    22   ar
    17    14    13   ar
    18    14    15   ar
    19    34    42    1
    20    34    33   ar
    21    25    24   ar
    22    13    12   ar
    23    22    15    1
    24    22    23   ar
    25     3     2   ar
    26     3     4   ar
    27     7     8    1
    28     7     2    1
    29     7    10    1
    30    15    16   ar
    31    24    31    1
    32    24    23   ar
    33    23    27    1
    34    33    38    1
    35    12    16   ar
    36    12     4    1
    37    27    30    1
    38    27    28    1
    39     2     1   ar
    40     4     5   ar
    41    40    38    1
    42    38    41    1
    43    38    39    1
    44     1     5   ar
    45     1     6    1
