@<TRIPOS>MOLECULE
mol_data/opt/b3lyp/geoms/mol2/5ia5ia5ia-5ia-.out
 42 45 0 0 0
SMALL
GASTEIGER

@<TRIPOS>ATOM
      1 C          -1.6582   -1.7301    1.5029 C.ar    1  LIG1       -0.0208
      2 C          -0.8553   -1.9151    0.4086 C.ar    1  LIG1       -0.0428
      3 C          -0.4542   -0.6684   -0.1680 C.ar    1  LIG1       -0.0435
      4 C          -0.9415    0.4422    0.4846 C.ar    1  LIG1        0.0264
      5 S          -1.9217   -0.0533    1.8585 S.2     1  LIG1       -0.0959
      6 H          -2.1136   -2.4891    2.1246 H       1  LIG1        0.0696
      7 C          -0.4518   -3.2577   -0.1390 C.3     1  LIG1       -0.0392
      8 H           0.6371   -3.3830   -0.1246 H       1  LIG1        0.0278
      9 H          -0.7767   -3.3775   -1.1789 H       1  LIG1        0.0278
     10 H          -0.8893   -4.0723    0.4437 H       1  LIG1        0.0278
     11 H           0.1470   -0.5995   -1.0671 H       1  LIG1        0.0632
     12 C          -0.7310    1.8463    0.1752 C.ar    1  LIG1        0.0294
     13 C           0.4042    2.4667   -0.3204 C.ar    1  LIG1       -0.0346
     14 C           0.2162    3.8670   -0.5048 C.ar    1  LIG1       -0.0429
     15 C          -1.0303    4.3366   -0.1501 C.ar    1  LIG1        0.0270
     16 S          -2.0232    3.0095    0.4246 S.2     1  LIG1       -0.0869
     17 C           1.7068    1.7776   -0.6275 C.3     1  LIG1       -0.0386
     18 H           2.5494    2.4561   -0.4633 H       1  LIG1        0.0278
     19 H           1.7565    1.4478   -1.6729 H       1  LIG1        0.0278
     20 H           1.8486    0.8947    0.0012 H       1  LIG1        0.0278
     21 H           0.9861    4.5085   -0.9166 H       1  LIG1        0.0632
     22 C          -1.5411    5.6940   -0.2002 C.ar    1  LIG1        0.0294
     23 C          -0.8651    6.8872    0.0028 C.ar    1  LIG1       -0.0346
     24 C          -1.7170    8.0199   -0.1432 C.ar    1  LIG1       -0.0429
     25 C          -3.0297    7.7248   -0.4387 C.ar    1  LIG1        0.0270
     26 S          -3.2368    5.9877   -0.5556 S.2     1  LIG1       -0.0869
     27 C           0.5931    7.0124    0.3541 C.3     1  LIG1       -0.0386
     28 H           0.7689    7.9127    0.9503 H       1  LIG1        0.0278
     29 H           1.2233    7.0893   -0.5410 H       1  LIG1        0.0278
     30 H           0.9418    6.1485    0.9263 H       1  LIG1        0.0278
     31 H          -1.3554    9.0374   -0.0512 H       1  LIG1        0.0632
     32 C          -4.1459    8.6337   -0.6369 C.ar    1  LIG1        0.0288
     33 C          -4.4186    9.8291    0.0073 C.ar    1  LIG1       -0.0352
     34 C          -5.6221   10.4346   -0.4740 C.ar    1  LIG1       -0.0512
     35 C          -6.2505    9.7180   -1.4520 C.ar    1  LIG1       -0.0235
     36 S          -5.3804    8.2725   -1.8365 S.2     1  LIG1       -0.0959
     37 H          -7.1719    9.9503   -1.9674 H       1  LIG1        0.0693
     38 C          -3.5912   10.4326    1.1104 C.3     1  LIG1       -0.0386
     39 H          -4.2258   10.9911    1.8053 H       1  LIG1        0.0278
     40 H          -2.8434   11.1353    0.7212 H       1  LIG1        0.0278
     41 H          -3.0563    9.6652    1.6757 H       1  LIG1        0.0278
     42 H          -6.0065   11.3707   -0.0832 H       1  LIG1        0.0626
@<TRIPOS>BOND
     1    37    35    1
     2    36    35   ar
     3    36    32   ar
     4    19    17    1
     5    35    34   ar
     6     9     7    1
     7    11     3    1
     8    21    14    1
     9    32    25    1
    10    32    33   ar
    11    17    18    1
    12    17    13    1
    13    17    20    1
    14    26    25   ar
    15    26    22   ar
    16    29    27    1
    17    14    13   ar
    18    14    15   ar
    19    34    42    1
    20    34    33   ar
    21    25    24   ar
    22    13    12   ar
    23    22    15    1
    24    22    23   ar
    25     3     2   ar
    26     3     4   ar
    27    15    16   ar
    28    24    31    1
    29    24    23   ar
    30     7     8    1
    31     7     2    1
    32     7    10    1
    33    23    27    1
    34    33    38    1
    35    12    16   ar
    36    12     4    1
    37    27    30    1
    38    27    28    1
    39     2     1   ar
    40     4     5   ar
    41    40    38    1
    42    38    41    1
    43    38    39    1
    44     1     5   ar
    45     1     6    1
