@<TRIPOS>MOLECULE
mol_data/opt/b3lyp/geoms/mol2/5ia5ia5ia.out
 32 34 0 0 0
SMALL
GASTEIGER

@<TRIPOS>ATOM
      1 C          -1.8386   -1.7915    1.0542 C.ar    1  LIG1       -0.0208
      2 C          -0.8173   -1.8958    0.1474 C.ar    1  LIG1       -0.0428
      3 C          -0.3633   -0.6096   -0.2858 C.ar    1  LIG1       -0.0435
      4 C          -1.0275    0.4506    0.2897 C.ar    1  LIG1        0.0264
      5 S          -2.2483   -0.1437    1.4076 S.2     1  LIG1       -0.0959
      6 H          -2.3780   -2.5948    1.5377 H       1  LIG1        0.0696
      7 C          -0.2466   -3.1957   -0.3524 C.3     1  LIG1       -0.0392
      8 H           0.8204   -3.2798   -0.1159 H       1  LIG1        0.0278
      9 H          -0.3436   -3.2806   -1.4408 H       1  LIG1        0.0278
     10 H          -0.7566   -4.0520    0.0964 H       1  LIG1        0.0278
     11 H           0.4087   -0.4765   -1.0348 H       1  LIG1        0.0632
     12 C          -0.8234    1.8747    0.0822 C.ar    1  LIG1        0.0294
     13 C           0.3603    2.5613   -0.1308 C.ar    1  LIG1       -0.0346
     14 C           0.1474    3.9600   -0.3072 C.ar    1  LIG1       -0.0429
     15 C          -1.1672    4.3613   -0.2208 C.ar    1  LIG1        0.0270
     16 S          -2.1948    2.9724    0.0784 S.2     1  LIG1       -0.0869
     17 C           1.7310    1.9402   -0.1663 C.3     1  LIG1       -0.0386
     18 H           2.4808    2.6396    0.2160 H       1  LIG1        0.0278
     19 H           2.0301    1.6728   -1.1877 H       1  LIG1        0.0278
     20 H           1.7721    1.0289    0.4357 H       1  LIG1        0.0278
     21 H           0.9553    4.6515   -0.5163 H       1  LIG1        0.0632
     22 C          -1.7210    5.7000   -0.3384 C.ar    1  LIG1        0.0288
     23 C          -1.1875    6.9028    0.0933 C.ar    1  LIG1       -0.0352
     24 C          -2.0418    8.0088   -0.2138 C.ar    1  LIG1       -0.0512
     25 C          -3.1949    7.6571   -0.8551 C.ar    1  LIG1       -0.0235
     26 S          -3.2746    5.9497   -1.1246 S.2     1  LIG1       -0.0959
     27 H          -4.0023    8.2968   -1.1831 H       1  LIG1        0.0693
     28 C           0.1150    7.0627    0.8303 C.3     1  LIG1       -0.0386
     29 H           0.0589    7.8991    1.5338 H       1  LIG1        0.0278
     30 H           0.9470    7.2726    0.1461 H       1  LIG1        0.0278
     31 H           0.3714    6.1597    1.3902 H       1  LIG1        0.0278
     32 H          -1.7992    9.0316    0.0546 H       1  LIG1        0.0626
@<TRIPOS>BOND
     1     9     7    1
     2    19    17    1
     3    27    25    1
     4    26    25   ar
     5    26    22   ar
     6    11     3    1
     7    25    24   ar
     8    21    14    1
     9     7     8    1
    10     7    10    1
    11     7     2    1
    12    22    15    1
    13    22    23   ar
    14    14    15   ar
    15    14    13   ar
    16     3     2   ar
    17     3     4   ar
    18    15    16   ar
    19    24    32    1
    20    24    23   ar
    21    17    13    1
    22    17    18    1
    23    17    20    1
    24    13    12   ar
    25    16    12   ar
    26    12     4    1
    27    23    28    1
    28    30    28    1
    29     2     1   ar
    30     4     5   ar
    31    28    31    1
    32    28    29    1
    33     1     5   ar
    34     1     6    1
