@<TRIPOS>MOLECULE
mol_data/opt/b3lyp/geoms/mol2/5id.out
 13 13 0 0 0
SMALL
GASTEIGER

@<TRIPOS>ATOM
      1 C          -2.1321   -1.6639    0.0862 C.ar    1  LIG1       -0.0202
      2 C          -0.7674   -1.6706    0.0232 C.ar    1  LIG1       -0.0261
      3 C          -0.2491   -0.3217   -0.0367 C.ar    1  LIG1        0.0617
      4 C          -1.2303    0.6433   -0.0169 C.ar    1  LIG1       -0.0067
      5 S          -2.7991   -0.0589    0.0743 S.2     1  LIG1       -0.1035
      6 H          -2.7923   -2.5185    0.1395 H       1  LIG1        0.0696
      7 H          -1.0991    1.7151   -0.0514 H       1  LIG1        0.0706
      8 C           0.0990   -2.8978    0.0157 C.3     1  LIG1       -0.0380
      9 H           0.7905   -2.8985    0.8652 H       1  LIG1        0.0278
     10 H           0.7086   -2.9455   -0.8931 H       1  LIG1        0.0278
     11 H          -0.5065   -3.8053    0.0681 H       1  LIG1        0.0278
     12 N           2.2839    0.2061   -0.1679 N.1     1  LIG1       -0.1908
     13 C           1.1434   -0.0192   -0.1092 C.1     1  LIG1        0.0999
@<TRIPOS>BOND
     1    10     8    1
     2    12    13    3
     3    13     3    1
     4     7     4    1
     5     3     4   ar
     6     3     2   ar
     7     4     5   ar
     8     8     2    1
     9     8    11    1
    10     8     9    1
    11     2     1   ar
    12     5     1   ar
    13     1     6    1
