@<TRIPOS>MOLECULE
mol_data/opt/b3lyp/geoms/mol2/5id5id5id.out
 35 37 0 0 0
SMALL
GASTEIGER

@<TRIPOS>ATOM
      1 C          -1.6917   -1.6884    1.4243 C.ar    1  LIG1       -0.0196
      2 C          -0.8437   -1.8908    0.3726 C.ar    1  LIG1       -0.0255
      3 C          -0.3907   -0.6353   -0.1762 C.ar    1  LIG1        0.0699
      4 C          -0.8914    0.4842    0.4761 C.ar    1  LIG1        0.0438
      5 S          -1.9403   -0.0100    1.7797 S.2     1  LIG1       -0.0945
      6 H          -2.1903   -2.4414    2.0192 H       1  LIG1        0.0696
      7 C          -0.4365   -3.2308   -0.1712 C.3     1  LIG1       -0.0380
      8 H           0.6483   -3.3687   -0.1106 H       1  LIG1        0.0278
      9 H          -0.7140   -3.3295   -1.2260 H       1  LIG1        0.0278
     10 H          -0.9149   -4.0397    0.3853 H       1  LIG1        0.0278
     11 N           1.1260   -0.5298   -2.2720 N.1     1  LIG1       -0.1908
     12 C           0.4444   -0.5632   -1.3286 C.1     1  LIG1        0.1006
     13 C          -0.6538    1.8925    0.1909 C.ar    1  LIG1        0.0319
     14 C           0.5450    2.5532    0.0176 C.ar    1  LIG1       -0.0172
     15 C           0.3382    3.9499   -0.2654 C.ar    1  LIG1        0.0705
     16 C          -0.9921    4.3481   -0.2792 C.ar    1  LIG1        0.0444
     17 S          -2.0229    2.9832    0.0385 S.2     1  LIG1       -0.0856
     18 C           1.9132    1.9426    0.1216 C.3     1  LIG1       -0.0374
     19 H           2.6159    2.6503    0.5697 H       1  LIG1        0.0278
     20 H           2.2995    1.6690   -0.8659 H       1  LIG1        0.0278
     21 H           1.8943    1.0364    0.7306 H       1  LIG1        0.0278
     22 N           2.3133    5.5482   -0.7664 N.1     1  LIG1       -0.1908
     23 C           1.4184    4.8373   -0.5451 C.1     1  LIG1        0.1006
     24 C          -1.5502    5.6711   -0.5217 C.ar    1  LIG1        0.0313
     25 C          -1.2193    6.8744    0.0685 C.ar    1  LIG1       -0.0178
     26 C          -2.0223    7.9492   -0.4610 C.ar    1  LIG1        0.0623
     27 C          -2.9323    7.5484   -1.4126 C.ar    1  LIG1       -0.0061
     28 S          -2.8382    5.8613   -1.7069 S.2     1  LIG1       -0.0945
     29 H          -3.6404    8.1680   -1.9442 H       1  LIG1        0.0706
     30 C          -0.1984    7.0808    1.1502 C.3     1  LIG1       -0.0374
     31 H          -0.5327    7.8521    1.8493 H       1  LIG1        0.0278
     32 H           0.7604    7.4032    0.7305 H       1  LIG1        0.0278
     33 H          -0.0201    6.1585    1.7072 H       1  LIG1        0.0278
     34 N          -1.8088   10.3997    0.3530 N.1     1  LIG1       -0.1908
     35 C          -1.9074    9.3021   -0.0206 C.1     1  LIG1        0.1000
@<TRIPOS>BOND
     1    11    12    3
     2    29    27    1
     3    28    27   ar
     4    28    24   ar
     5    27    26   ar
     6    12     3    1
     7     9     7    1
     8    20    18    1
     9    22    23    3
    10    23    15    1
    11    24    16    1
    12    24    25   ar
    13    26    35    1
    14    26    25   ar
    15    16    15   ar
    16    16    17   ar
    17    15    14   ar
    18     3     2   ar
    19     3     4   ar
    20     7     8    1
    21     7     2    1
    22     7    10    1
    23    35    34    3
    24    14    18    1
    25    14    13   ar
    26    17    13   ar
    27    25    30    1
    28    18    19    1
    29    18    21    1
    30    13     4    1
    31     2     1   ar
    32     4     5   ar
    33    32    30    1
    34    30    33    1
    35    30    31    1
    36     1     5   ar
    37     1     6    1
