@<TRIPOS>MOLECULE
mol_data/opt/b3lyp/geoms/mol2/5id5id-5id-.out
 35 37 0 0 0
SMALL
GASTEIGER

@<TRIPOS>ATOM
      1 C          -1.6789   -1.6976    1.4161 C.ar    1  LIG1       -0.0196
      2 C          -0.8314   -1.8934    0.3627 C.ar    1  LIG1       -0.0255
      3 C          -0.3820   -0.6344   -0.1811 C.ar    1  LIG1        0.0699
      4 C          -0.8848    0.4811    0.4764 C.ar    1  LIG1        0.0438
      5 S          -1.9313   -0.0213    1.7790 S.2     1  LIG1       -0.0945
      6 H          -2.1751   -2.4543    2.0082 H       1  LIG1        0.0696
      7 C          -0.4215   -3.2299   -0.1873 C.3     1  LIG1       -0.0380
      8 H           0.6638   -3.3654   -0.1287 H       1  LIG1        0.0278
      9 H          -0.7001   -3.3250   -1.2421 H       1  LIG1        0.0278
     10 H          -0.8970   -4.0424    0.3664 H       1  LIG1        0.0278
     11 N           1.1330   -0.5166   -2.2775 N.1     1  LIG1       -0.1908
     12 C           0.4521   -0.5554   -1.3338 C.1     1  LIG1        0.1006
     13 C          -0.6510    1.8912    0.1972 C.ar    1  LIG1        0.0319
     14 C           0.5460    2.5558    0.0259 C.ar    1  LIG1       -0.0172
     15 C           0.3352    3.9531   -0.2511 C.ar    1  LIG1        0.0705
     16 C          -0.9962    4.3479   -0.2623 C.ar    1  LIG1        0.0444
     17 S          -2.0231    2.9790    0.0502 S.2     1  LIG1       -0.0856
     18 C           1.9158    1.9484    0.1261 C.3     1  LIG1       -0.0374
     19 H           2.6169    2.6558    0.5771 H       1  LIG1        0.0278
     20 H           2.3021    1.6804   -0.8629 H       1  LIG1        0.0278
     21 H           1.8998    1.0393    0.7309 H       1  LIG1        0.0278
     22 N           2.3058    5.5586   -0.7471 N.1     1  LIG1       -0.1908
     23 C           1.4129    4.8445   -0.5279 C.1     1  LIG1        0.1006
     24 C          -1.5577    5.6706   -0.4986 C.ar    1  LIG1        0.0313
     25 C          -1.2292    6.8720    0.0967 C.ar    1  LIG1       -0.0178
     26 C          -2.0356    7.9472   -0.4271 C.ar    1  LIG1        0.0623
     27 C          -2.9456    7.5484   -1.3795 C.ar    1  LIG1       -0.0061
     28 S          -2.8475    5.8628   -1.6815 S.2     1  LIG1       -0.0945
     29 H          -3.6558    8.1685   -1.9076 H       1  LIG1        0.0706
     30 C          -0.2077    7.0762    1.1781 C.3     1  LIG1       -0.0374
     31 H          -0.5430    7.8437    1.8809 H       1  LIG1        0.0278
     32 H           0.7499    7.4026    0.7588 H       1  LIG1        0.0278
     33 H          -0.0266    6.1520    1.7310 H       1  LIG1        0.0278
     34 N          -1.8275   10.3946    0.3976 N.1     1  LIG1       -0.1908
     35 C          -1.9236    9.2984    0.0192 C.1     1  LIG1        0.1000
@<TRIPOS>BOND
     1    11    12    3
     2    29    27    1
     3    28    27   ar
     4    28    24   ar
     5    27    26   ar
     6    12     3    1
     7     9     7    1
     8    20    18    1
     9    22    23    3
    10    23    15    1
    11    24    16    1
    12    24    25   ar
    13    26    35    1
    14    26    25   ar
    15    16    15   ar
    16    16    17   ar
    17    15    14   ar
    18     7     8    1
    19     7     2    1
    20     7    10    1
    21     3     2   ar
    22     3     4   ar
    23    35    34    3
    24    14    18    1
    25    14    13   ar
    26    17    13   ar
    27    25    30    1
    28    18    19    1
    29    18    21    1
    30    13     4    1
    31     2     1   ar
    32     4     5   ar
    33    32    30    1
    34    30    33    1
    35    30    31    1
    36     1     5   ar
    37     1     6    1
