@<TRIPOS>MOLECULE
mol_data/opt/b3lyp/geoms/mol2/5id5id5id5id-.out
 46 49 0 0 0
SMALL
GASTEIGER

@<TRIPOS>ATOM
      1 C          -1.2798   -1.5169    2.0987 C.ar    1  LIG1       -0.0196
      2 C          -0.8923   -1.8081    0.8213 C.ar    1  LIG1       -0.0255
      3 C          -0.5761   -0.6051    0.0897 C.ar    1  LIG1        0.0699
      4 C          -0.7164    0.5630    0.8282 C.ar    1  LIG1        0.0438
      5 S          -1.2519    0.1815    2.4440 S.2     1  LIG1       -0.0945
      6 H          -1.5825   -2.2144    2.8676 H       1  LIG1        0.0696
      7 C          -0.8141   -3.1862    0.2286 C.3     1  LIG1       -0.0380
      8 H           0.2064   -3.4203   -0.0931 H       1  LIG1        0.0278
      9 H          -1.4566   -3.2738   -0.6538 H       1  LIG1        0.0278
     10 H          -1.1247   -3.9414    0.9539 H       1  LIG1        0.0278
     11 N           0.0758   -0.6602   -2.4155 N.1     1  LIG1       -0.1908
     12 C          -0.2158   -0.6222   -1.2889 C.1     1  LIG1        0.1006
     13 C          -0.4923    1.9404    0.4111 C.ar    1  LIG1        0.0319
     14 C           0.6091    2.4904   -0.2124 C.ar    1  LIG1       -0.0172
     15 C           0.4201    3.8946   -0.4681 C.ar    1  LIG1        0.0705
     16 C          -0.7916    4.4071   -0.0226 C.ar    1  LIG1        0.0444
     17 S          -1.7378    3.1433    0.7076 S.2     1  LIG1       -0.0856
     18 C           1.8711    1.7636   -0.5793 C.3     1  LIG1       -0.0374
     19 H           2.7402    2.4140   -0.4490 H       1  LIG1        0.0278
     20 H           1.8500    1.4404   -1.6255 H       1  LIG1        0.0278
     21 H           2.0059    0.8729    0.0378 H       1  LIG1        0.0278
     22 N           2.1918    5.3077   -1.7213 N.1     1  LIG1       -0.1908
     23 C           1.3886    4.6796   -1.1595 C.1     1  LIG1        0.1006
     24 C          -1.3001    5.7683   -0.1180 C.ar    1  LIG1        0.0319
     25 C          -0.6908    6.9510    0.2487 C.ar    1  LIG1       -0.0172
     26 C          -1.5356    8.0833   -0.0294 C.ar    1  LIG1        0.0705
     27 C          -2.7735    7.7641   -0.5721 C.ar    1  LIG1        0.0444
     28 S          -2.9096    6.0414   -0.7685 S.2     1  LIG1       -0.0856
     29 C           0.6650    7.0903    0.8793 C.3     1  LIG1       -0.0374
     30 H           0.6629    7.8974    1.6169 H       1  LIG1        0.0278
     31 H           1.4264    7.3265    0.1284 H       1  LIG1        0.0278
     32 H           0.9670    6.1655    1.3750 H       1  LIG1        0.0278
     33 N          -0.7473   10.5119    0.4025 N.1     1  LIG1       -0.1908
     34 C          -1.1100    9.4241    0.2018 C.1     1  LIG1        0.1006
     35 C          -3.8579    8.6528   -0.9658 C.ar    1  LIG1        0.0313
     36 C          -4.4604    9.6611   -0.2403 C.ar    1  LIG1       -0.0178
     37 C          -5.5012   10.3000   -1.0077 C.ar    1  LIG1        0.0623
     38 C          -5.6704    9.7701   -2.2666 C.ar    1  LIG1       -0.0061
     39 S          -4.5695    8.4900   -2.5679 S.2     1  LIG1       -0.0945
     40 H          -6.3852   10.0777   -3.0165 H       1  LIG1        0.0706
     41 C          -4.1403   10.0502    1.1742 C.3     1  LIG1       -0.0374
     42 H          -5.0504   10.3423    1.7053 H       1  LIG1        0.0278
     43 H          -3.4502   10.9001    1.2023 H       1  LIG1        0.0278
     44 H          -3.6700    9.2264    1.7152 H       1  LIG1        0.0278
     45 N          -6.9565   12.2289   -0.0726 N.1     1  LIG1       -0.1908
     46 C          -6.3041   11.3659   -0.5012 C.1     1  LIG1        0.1000
@<TRIPOS>BOND
     1    40    38    1
     2    39    38   ar
     3    39    35   ar
     4    11    12    3
     5    38    37   ar
     6    22    23    3
     7    20    18    1
     8    12     3    1
     9    23    15    1
    10    37    46    1
    11    37    36   ar
    12    35    27    1
    13    35    36   ar
    14    28    27   ar
    15    28    24   ar
    16     9     7    1
    17    18    19    1
    18    18    14    1
    19    18    21    1
    20    27    26   ar
    21    46    45    3
    22    15    14   ar
    23    15    16   ar
    24    36    41    1
    25    14    13   ar
    26    24    16    1
    27    24    25   ar
    28     8     7    1
    29    26    34    1
    30    26    25   ar
    31    16    17   ar
    32     3     2   ar
    33     3     4   ar
    34    31    29    1
    35    34    33    3
    36     7     2    1
    37     7    10    1
    38    25    29    1
    39    13    17   ar
    40    13     4    1
    41     2     1   ar
    42     4     5   ar
    43    29    32    1
    44    29    30    1
    45    41    43    1
    46    41    42    1
    47    41    44    1
    48     1     5   ar
    49     1     6    1
