@<TRIPOS>MOLECULE
mol_data/opt/b3lyp/geoms/mol2/5id5id5id-.out
 35 37 0 0 0
SMALL
GASTEIGER

@<TRIPOS>ATOM
      1 C          -1.7051   -1.6913    1.4092 C.ar    1  LIG1       -0.0196
      2 C          -0.8431   -1.8917    0.3685 C.ar    1  LIG1       -0.0255
      3 C          -0.3843   -0.6351   -0.1730 C.ar    1  LIG1        0.0699
      4 C          -0.8948    0.4832    0.4737 C.ar    1  LIG1        0.0438
      5 S          -1.9602   -0.0136    1.7630 S.2     1  LIG1       -0.0945
      6 H          -2.2107   -2.4454    1.9967 H       1  LIG1        0.0696
      7 C          -0.4274   -3.2306   -0.1712 C.3     1  LIG1       -0.0380
      8 H           0.6568   -3.3673   -0.0967 H       1  LIG1        0.0278
      9 H          -0.6910   -3.3287   -1.2297 H       1  LIG1        0.0278
     10 H          -0.9119   -4.0406    0.3782 H       1  LIG1        0.0278
     11 N           1.1600   -0.5262   -2.2484 N.1     1  LIG1       -0.1908
     12 C           0.4660   -0.5610   -1.3142 C.1     1  LIG1        0.1006
     13 C          -0.6551    1.8920    0.1933 C.ar    1  LIG1        0.0319
     14 C           0.5452    2.5545    0.0367 C.ar    1  LIG1       -0.0172
     15 C           0.3404    3.9512   -0.2474 C.ar    1  LIG1        0.0705
     16 C          -0.9902    4.3478   -0.2785 C.ar    1  LIG1        0.0444
     17 S          -2.0233    2.9813    0.0239 S.2     1  LIG1       -0.0856
     18 C           1.9126    1.9455    0.1581 C.3     1  LIG1       -0.0374
     19 H           2.6084    2.6535    0.6163 H       1  LIG1        0.0278
     20 H           2.3123    1.6735   -0.8246 H       1  LIG1        0.0278
     21 H           1.8869    1.0385    0.7656 H       1  LIG1        0.0278
     22 N           2.3200    5.5525   -0.7205 N.1     1  LIG1       -0.1908
     23 C           1.4231    4.8403   -0.5118 C.1     1  LIG1        0.1006
     24 C          -1.5465    5.6705   -0.5268 C.ar    1  LIG1        0.0313
     25 C          -1.2248    6.8734    0.0691 C.ar    1  LIG1       -0.0178
     26 C          -2.0222    7.9479   -0.4694 C.ar    1  LIG1        0.0623
     27 C          -2.9193    7.5472   -1.4332 C.ar    1  LIG1       -0.0061
     28 S          -2.8193    5.8606   -1.7285 S.2     1  LIG1       -0.0945
     29 H          -3.6212    8.1666   -1.9732 H       1  LIG1        0.0706
     30 C          -0.2184    7.0797    1.1643 C.3     1  LIG1       -0.0374
     31 H          -0.5629    7.8496    1.8601 H       1  LIG1        0.0278
     32 H           0.7453    7.4041    0.7575 H       1  LIG1        0.0278
     33 H          -0.0459    6.1569    1.7222 H       1  LIG1        0.0278
     34 N          -1.8224   10.3977    0.3503 N.1     1  LIG1       -0.1908
     35 C          -1.9147    9.3004   -0.0259 C.1     1  LIG1        0.1000
@<TRIPOS>BOND
     1    11    12    3
     2    29    27    1
     3    28    27   ar
     4    28    24   ar
     5    27    26   ar
     6    12     3    1
     7     9     7    1
     8    20    18    1
     9    22    23    3
    10    24    16    1
    11    24    25   ar
    12    23    15    1
    13    26    35    1
    14    26    25   ar
    15    16    15   ar
    16    16    17   ar
    17    15    14   ar
    18     3     2   ar
    19     3     4   ar
    20     7     8    1
    21     7     2    1
    22     7    10    1
    23    35    34    3
    24    17    13   ar
    25    14    18    1
    26    14    13   ar
    27    25    30    1
    28    18    19    1
    29    18    21    1
    30    13     4    1
    31     2     1   ar
    32     4     5   ar
    33    32    30    1
    34    30    33    1
    35    30    31    1
    36     1     5   ar
    37     1     6    1
