@<TRIPOS>MOLECULE
mol_data/opt/b3lyp/geoms/mol2/5id5id-.out
 24 25 0 0 0
SMALL
GASTEIGER

@<TRIPOS>ATOM
      1 C          -1.9700   -1.7433    0.7695 C.ar    1  LIG1       -0.0196
      2 C          -0.7784   -1.8499    0.1105 C.ar    1  LIG1       -0.0255
      3 C          -0.2803   -0.5505   -0.2729 C.ar    1  LIG1        0.0699
      4 C          -1.0929    0.5074    0.1138 C.ar    1  LIG1        0.0438
      5 S          -2.4943   -0.1011    0.9566 S.2     1  LIG1       -0.0945
      6 H          -2.5767   -2.5476    1.1622 H       1  LIG1        0.0696
      7 C          -0.0694   -3.1369   -0.2023 C.3     1  LIG1       -0.0380
      8 H           0.9248   -3.1618    0.2565 H       1  LIG1        0.0278
      9 H           0.0726   -3.2577   -1.2815 H       1  LIG1        0.0278
     10 H          -0.6367   -3.9946    0.1659 H       1  LIG1        0.0278
     11 N           1.8859   -0.2794   -1.6652 N.1     1  LIG1       -0.1908
     12 C           0.9103   -0.3861   -1.0386 C.1     1  LIG1        0.1006
     13 C          -0.9037    1.9348   -0.1050 C.ar    1  LIG1        0.0313
     14 C           0.2051    2.7138    0.1573 C.ar    1  LIG1       -0.0178
     15 C          -0.0275    4.0890   -0.2113 C.ar    1  LIG1        0.0623
     16 C          -1.2826    4.3239   -0.7245 C.ar    1  LIG1       -0.0061
     17 S          -2.2171    2.8866   -0.7900 S.2     1  LIG1       -0.0945
     18 H          -1.6873    5.2681   -1.0603 H       1  LIG1        0.0706
     19 C           1.4894    2.2455    0.7789 C.3     1  LIG1       -0.0374
     20 H           1.9054    3.0206    1.4283 H       1  LIG1        0.0278
     21 H           2.2373    2.0150    0.0127 H       1  LIG1        0.0278
     22 H           1.3347    1.3404    1.3701 H       1  LIG1        0.0278
     23 N           1.7389    5.9555    0.1199 N.1     1  LIG1       -0.1908
     24 C           0.9423    5.1215   -0.0354 C.1     1  LIG1        0.1000
@<TRIPOS>BOND
     1    11    12    3
     2     9     7    1
     3    18    16    1
     4    12     3    1
     5    17    16   ar
     6    17    13   ar
     7    16    15   ar
     8     3     2   ar
     9     3     4   ar
    10    15    24    1
    11    15    14   ar
    12     7     2    1
    13     7    10    1
    14     7     8    1
    15    13     4    1
    16    13    14   ar
    17    24    23    3
    18    21    19    1
    19     2     1   ar
    20     4     5   ar
    21    14    19    1
    22     1     5   ar
    23     1     6    1
    24    19    22    1
    25    19    20    1
