@<TRIPOS>MOLECULE
mol_data/opt/b3lyp/geoms/mol2/5id5id5id-5id.out
 46 49 0 0 0
SMALL
GASTEIGER

@<TRIPOS>ATOM
      1 C          -1.3066   -1.5224    2.0854 C.ar    1  LIG1       -0.0196
      2 C          -0.9097   -1.8112    0.8104 C.ar    1  LIG1       -0.0255
      3 C          -0.5857   -0.6070    0.0842 C.ar    1  LIG1        0.0699
      4 C          -0.7297    0.5595    0.8244 C.ar    1  LIG1        0.0438
      5 S          -1.2784    0.1750    2.4350 S.2     1  LIG1       -0.0945
      6 H          -1.6163   -2.2214    2.8502 H       1  LIG1        0.0696
      7 C          -0.8293   -3.1881    0.2149 C.3     1  LIG1       -0.0380
      8 H           0.1930   -3.4229   -0.1002 H       1  LIG1        0.0278
      9 H          -1.4658   -3.2726   -0.6722 H       1  LIG1        0.0278
     10 H          -1.1462   -3.9444    0.9362 H       1  LIG1        0.0278
     11 N           0.0853   -0.6576   -2.4161 N.1     1  LIG1       -0.1908
     12 C          -0.2148   -0.6215   -1.2917 C.1     1  LIG1        0.1006
     13 C          -0.5001    1.9376    0.4125 C.ar    1  LIG1        0.0319
     14 C           0.6070    2.4875   -0.2011 C.ar    1  LIG1       -0.0172
     15 C           0.4220    3.8926   -0.4547 C.ar    1  LIG1        0.0705
     16 C          -0.7921    4.4059   -0.0171 C.ar    1  LIG1        0.0444
     17 S          -1.7459    3.1417    0.7026 S.2     1  LIG1       -0.0856
     18 C           1.8704    1.7595   -0.5604 C.3     1  LIG1       -0.0374
     19 H           2.7395    2.4084   -0.4227 H       1  LIG1        0.0278
     20 H           1.8563    1.4382   -1.6073 H       1  LIG1        0.0278
     21 H           1.9995    0.8674    0.0560 H       1  LIG1        0.0278
     22 N           2.2054    5.3062   -1.6908 N.1     1  LIG1       -0.1908
     23 C           1.3971    4.6779   -1.1367 C.1     1  LIG1        0.1006
     24 C          -1.2975    5.7682   -0.1129 C.ar    1  LIG1        0.0319
     25 C          -0.6891    6.9488    0.2619 C.ar    1  LIG1       -0.0172
     26 C          -1.5300    8.0833   -0.0193 C.ar    1  LIG1        0.0705
     27 C          -2.7643    7.7677   -0.5723 C.ar    1  LIG1        0.0444
     28 S          -2.9016    6.0458   -0.7747 S.2     1  LIG1       -0.0856
     29 C           0.6621    7.0841    0.9031 C.3     1  LIG1       -0.0374
     30 H           0.6563    7.8901    1.6418 H       1  LIG1        0.0278
     31 H           1.4298    7.3193    0.1585 H       1  LIG1        0.0278
     32 H           0.9579    6.1578    1.3999 H       1  LIG1        0.0278
     33 N          -0.7409   10.5094    0.4252 N.1     1  LIG1       -0.1908
     34 C          -1.1040    9.4228    0.2189 C.1     1  LIG1        0.1006
     35 C          -3.8441    8.6594   -0.9719 C.ar    1  LIG1        0.0313
     36 C          -4.4503    9.6668   -0.2484 C.ar    1  LIG1       -0.0178
     37 C          -5.4839   10.3098   -1.0220 C.ar    1  LIG1        0.0623
     38 C          -5.6444    9.7836   -2.2836 C.ar    1  LIG1       -0.0061
     39 S          -4.5436    8.5022   -2.5798 S.2     1  LIG1       -0.0945
     40 H          -6.3529   10.0945   -3.0382 H       1  LIG1        0.0706
     41 C          -4.1404   10.0517    1.1696 C.3     1  LIG1       -0.0374
     42 H          -5.0543   10.3418    1.6951 H       1  LIG1        0.0278
     43 H          -3.4509   10.9018    1.2051 H       1  LIG1        0.0278
     44 H          -3.6735    9.2264    1.7114 H       1  LIG1        0.0278
     45 N          -6.9428   12.2390   -0.0930 N.1     1  LIG1       -0.1908
     46 C          -6.2887   11.3759   -0.5188 C.1     1  LIG1        0.1000
@<TRIPOS>BOND
     1    40    38    1
     2    39    38   ar
     3    39    35   ar
     4    11    12    3
     5    38    37   ar
     6    22    23    3
     7    20    18    1
     8    12     3    1
     9    23    15    1
    10    37    46    1
    11    37    36   ar
    12    35    27    1
    13    35    36   ar
    14    28    27   ar
    15    28    24   ar
    16     9     7    1
    17    27    26   ar
    18    18    19    1
    19    18    14    1
    20    18    21    1
    21    46    45    3
    22    15    14   ar
    23    15    16   ar
    24    36    41    1
    25    14    13   ar
    26    24    16    1
    27    24    25   ar
    28     8     7    1
    29    26    34    1
    30    26    25   ar
    31    16    17   ar
    32     3     2   ar
    33     3     4   ar
    34    31    29    1
    35     7     2    1
    36     7    10    1
    37    34    33    3
    38    25    29    1
    39    13    17   ar
    40    13     4    1
    41     2     1   ar
    42     4     5   ar
    43    29    32    1
    44    29    30    1
    45    41    43    1
    46    41    42    1
    47    41    44    1
    48     1     5   ar
    49     1     6    1
