@<TRIPOS>MOLECULE
mol_data/opt/b3lyp/geoms/mol2/5id5id5id5id.out
 46 49 0 0 0
SMALL
GASTEIGER

@<TRIPOS>ATOM
      1 C          -1.2786   -1.5201    2.0921 C.ar    1  LIG1       -0.0196
      2 C          -0.8923   -1.8095    0.8140 C.ar    1  LIG1       -0.0255
      3 C          -0.5766   -0.6055    0.0838 C.ar    1  LIG1        0.0699
      4 C          -0.7161    0.5615    0.8241 C.ar    1  LIG1        0.0438
      5 S          -1.2500    0.1777    2.4399 S.2     1  LIG1       -0.0945
      6 H          -1.5807   -2.2188    2.8602 H       1  LIG1        0.0696
      7 C          -0.8149   -3.1868    0.2191 C.3     1  LIG1       -0.0380
      8 H           0.2053   -3.4206   -0.1037 H       1  LIG1        0.0278
      9 H          -1.4581   -3.2729   -0.6630 H       1  LIG1        0.0278
     10 H          -1.1252   -3.9430    0.9435 H       1  LIG1        0.0278
     11 N           0.0725   -0.6576   -2.4222 N.1     1  LIG1       -0.1908
     12 C          -0.2178   -0.6208   -1.2953 C.1     1  LIG1        0.1006
     13 C          -0.4921    1.9396    0.4091 C.ar    1  LIG1        0.0319
     14 C           0.6085    2.4906   -0.2151 C.ar    1  LIG1       -0.0172
     15 C           0.4192    3.8952   -0.4680 C.ar    1  LIG1        0.0705
     16 C          -0.7917    4.4071   -0.0198 C.ar    1  LIG1        0.0444
     17 S          -1.7370    3.1421    0.7096 S.2     1  LIG1       -0.0856
     18 C           1.8699    1.7644   -0.5851 C.3     1  LIG1       -0.0374
     19 H           2.7391    2.4148   -0.4558 H       1  LIG1        0.0278
     20 H           1.8469    1.4421   -1.6315 H       1  LIG1        0.0278
     21 H           2.0059    0.8730    0.0309 H       1  LIG1        0.0278
     22 N           2.1889    5.3104   -1.7218 N.1     1  LIG1       -0.1908
     23 C           1.3867    4.6814   -1.1597 C.1     1  LIG1        0.1006
     24 C          -1.3000    5.7686   -0.1120 C.ar    1  LIG1        0.0319
     25 C          -0.6897    6.9505    0.2555 C.ar    1  LIG1       -0.0172
     26 C          -1.5348    8.0834   -0.0191 C.ar    1  LIG1        0.0705
     27 C          -2.7739    7.7654   -0.5599 C.ar    1  LIG1        0.0444
     28 S          -2.9107    6.0431   -0.7589 S.2     1  LIG1       -0.0856
     29 C           0.6672    7.0885    0.8840 C.3     1  LIG1       -0.0374
     30 H           0.6668    7.8950    1.6221 H       1  LIG1        0.0278
     31 H           1.4276    7.3245    0.1321 H       1  LIG1        0.0278
     32 H           0.9692    6.1630    1.3786 H       1  LIG1        0.0278
     33 N          -0.7456   10.5112    0.4160 N.1     1  LIG1       -0.1908
     34 C          -1.1088    9.4238    0.2139 C.1     1  LIG1        0.1006
     35 C          -3.8587    8.6552   -0.9501 C.ar    1  LIG1        0.0313
     36 C          -4.4603    9.6615   -0.2213 C.ar    1  LIG1       -0.0178
     37 C          -5.5021   10.3023   -0.9857 C.ar    1  LIG1        0.0623
     38 C          -5.6729    9.7756   -2.2457 C.ar    1  LIG1       -0.0061
     39 S          -4.5724    8.4963   -2.5516 S.2     1  LIG1       -0.0945
     40 H          -6.3887   10.0851   -2.9940 H       1  LIG1        0.0706
     41 C          -4.1381   10.0474    1.1937 C.3     1  LIG1       -0.0374
     42 H          -5.0475   10.3371    1.7271 H       1  LIG1        0.0278
     43 H          -3.4488   10.8979    1.2225 H       1  LIG1        0.0278
     44 H          -3.6658    9.2227    1.7317 H       1  LIG1        0.0278
     45 N          -6.9562   12.2290   -0.0439 N.1     1  LIG1       -0.1908
     46 C          -6.3043   11.3671   -0.4755 C.1     1  LIG1        0.1000
@<TRIPOS>BOND
     1    40    38    1
     2    39    38   ar
     3    39    35   ar
     4    11    12    3
     5    38    37   ar
     6    22    23    3
     7    20    18    1
     8    12     3    1
     9    23    15    1
    10    37    46    1
    11    37    36   ar
    12    35    27    1
    13    35    36   ar
    14    28    27   ar
    15    28    24   ar
    16     9     7    1
    17    18    19    1
    18    18    14    1
    19    18    21    1
    20    27    26   ar
    21    46    45    3
    22    15    14   ar
    23    15    16   ar
    24    36    41    1
    25    14    13   ar
    26    24    16    1
    27    24    25   ar
    28     8     7    1
    29    16    17   ar
    30    26    34    1
    31    26    25   ar
    32     3     2   ar
    33     3     4   ar
    34    31    29    1
    35    34    33    3
    36     7     2    1
    37     7    10    1
    38    25    29    1
    39    13    17   ar
    40    13     4    1
    41     2     1   ar
    42     4     5   ar
    43    29    32    1
    44    29    30    1
    45    41    43    1
    46    41    42    1
    47    41    44    1
    48     1     5   ar
    49     1     6    1
