@<TRIPOS>MOLECULE
mol_data/opt/b3lyp/geoms/mol2/5id5id.out
 24 25 0 0 0
SMALL
GASTEIGER

@<TRIPOS>ATOM
      1 C          -1.9765   -1.7443    0.7579 C.ar    1  LIG1       -0.0196
      2 C          -0.7788   -1.8500    0.1099 C.ar    1  LIG1       -0.0255
      3 C          -0.2775   -0.5501   -0.2677 C.ar    1  LIG1        0.0699
      4 C          -1.0941    0.5071    0.1121 C.ar    1  LIG1        0.0438
      5 S          -2.5032   -0.1023    0.9411 S.2     1  LIG1       -0.0945
      6 H          -2.5870   -2.5490    1.1441 H       1  LIG1        0.0696
      7 C          -0.0665   -3.1365   -0.1975 C.3     1  LIG1       -0.0380
      8 H           0.9235   -3.1613    0.2703 H       1  LIG1        0.0278
      9 H           0.0854   -3.2562   -1.2755 H       1  LIG1        0.0278
     10 H          -0.6366   -3.9948    0.1647 H       1  LIG1        0.0278
     11 N           1.9023   -0.2777   -1.6382 N.1     1  LIG1       -0.1908
     12 C           0.9206   -0.3850   -1.0213 C.1     1  LIG1        0.1006
     13 C          -0.9030    1.9349   -0.1029 C.ar    1  LIG1        0.0313
     14 C           0.2030    2.7136    0.1717 C.ar    1  LIG1       -0.0178
     15 C          -0.0261    4.0893   -0.1976 C.ar    1  LIG1        0.0623
     16 C          -1.2760    4.3247   -0.7232 C.ar    1  LIG1       -0.0061
     17 S          -2.2093    2.8872   -0.8001 S.2     1  LIG1       -0.0945
     18 H          -1.6775    5.2691   -1.0619 H       1  LIG1        0.0706
     19 C           1.4807    2.2447    0.8060 C.3     1  LIG1       -0.0374
     20 H           1.8900    3.0191    1.4604 H       1  LIG1        0.0278
     21 H           2.2365    2.0147    0.0474 H       1  LIG1        0.0278
     22 H           1.3197    1.3391    1.3948 H       1  LIG1        0.0278
     23 N           1.7368    5.9553    0.1540 N.1     1  LIG1       -0.1908
     24 C           0.9417    5.1217   -0.0105 C.1     1  LIG1        0.1000
@<TRIPOS>BOND
     1    11    12    3
     2     9     7    1
     3    18    16    1
     4    12     3    1
     5    17    16   ar
     6    17    13   ar
     7    16    15   ar
     8     3     2   ar
     9     3     4   ar
    10    15    24    1
    11    15    14   ar
    12     7     2    1
    13     7    10    1
    14     7     8    1
    15    13     4    1
    16    13    14   ar
    17    24    23    3
    18    21    19    1
    19     2     1   ar
    20     4     5   ar
    21    14    19    1
    22     1     5   ar
    23     1     6    1
    24    19    22    1
    25    19    20    1
