@<TRIPOS>MOLECULE
mol_data/opt/b3lyp/geoms/mol2/5id5id-5id-5id.out
 46 49 0 0 0
SMALL
GASTEIGER

@<TRIPOS>ATOM
      1 C          -1.2583   -1.5294    2.0776 C.ar    1  LIG1       -0.0196
      2 C          -0.8862   -1.8132    0.7940 C.ar    1  LIG1       -0.0255
      3 C          -0.5777   -0.6061    0.0659 C.ar    1  LIG1        0.0699
      4 C          -0.7083    0.5576    0.8130 C.ar    1  LIG1        0.0438
      5 S          -1.2249    0.1668    2.4328 S.2     1  LIG1       -0.0945
      6 H          -1.5524   -2.2314    2.8458 H       1  LIG1        0.0696
      7 C          -0.8162   -3.1879    0.1922 C.3     1  LIG1       -0.0380
      8 H           0.2001   -3.4206   -0.1435 H       1  LIG1        0.0278
      9 H          -1.4696   -3.2699   -0.6828 H       1  LIG1        0.0278
     10 H          -1.1183   -3.9472    0.9167 H       1  LIG1        0.0278
     11 N           0.0444   -0.6472   -2.4471 N.1     1  LIG1       -0.1908
     12 C          -0.2338   -0.6154   -1.3170 C.1     1  LIG1        0.1006
     13 C          -0.4883    1.9375    0.4018 C.ar    1  LIG1        0.0319
     14 C           0.6058    2.4910   -0.2315 C.ar    1  LIG1       -0.0172
     15 C           0.4142    3.8967   -0.4763 C.ar    1  LIG1        0.0705
     16 C          -0.7918    4.4069   -0.0132 C.ar    1  LIG1        0.0444
     17 S          -1.7298    3.1390    0.7205 S.2     1  LIG1       -0.0856
     18 C           1.8628    1.7659   -0.6182 C.3     1  LIG1       -0.0374
     19 H           2.7337    2.4153   -0.4951 H       1  LIG1        0.0278
     20 H           1.8285    1.4487   -1.6659 H       1  LIG1        0.0278
     21 H           2.0049    0.8717   -0.0079 H       1  LIG1        0.0278
     22 N           2.1712    5.3168   -1.7423 N.1     1  LIG1       -0.1908
     23 C           1.3747    4.6857   -1.1746 C.1     1  LIG1        0.1006
     24 C          -1.3007    5.7689   -0.0942 C.ar    1  LIG1        0.0319
     25 C          -0.6865    6.9491    0.2724 C.ar    1  LIG1       -0.0172
     26 C          -1.5341    8.0833    0.0115 C.ar    1  LIG1        0.0705
     27 C          -2.7787    7.7680   -0.5179 C.ar    1  LIG1        0.0444
     28 S          -2.9179    6.0466   -0.7232 S.2     1  LIG1       -0.0856
     29 C           0.6770    7.0840    0.8872 C.3     1  LIG1       -0.0374
     30 H           0.6844    7.8868    1.6294 H       1  LIG1        0.0278
     31 H           1.4293    7.3238    0.1285 H       1  LIG1        0.0278
     32 H           0.9843    6.1561    1.3739 H       1  LIG1        0.0278
     33 N          -0.7397   10.5090    0.4491 N.1     1  LIG1       -0.1908
     34 C          -1.1053    9.4226    0.2460 C.1     1  LIG1        0.1006
     35 C          -3.8673    8.6596   -0.8932 C.ar    1  LIG1        0.0313
     36 C          -4.4607    9.6633   -0.1541 C.ar    1  LIG1       -0.0178
     37 C          -5.5101   10.3077   -0.9051 C.ar    1  LIG1        0.0623
     38 C          -5.6942    9.7862   -2.1654 C.ar    1  LIG1       -0.0061
     39 S          -4.5975    8.5076   -2.4878 S.2     1  LIG1       -0.0945
     40 H          -6.4175   10.0990   -2.9049 H       1  LIG1        0.0706
     41 C          -4.1238   10.0433    1.2590 C.3     1  LIG1       -0.0374
     42 H          -5.0275   10.3313    1.8030 H       1  LIG1        0.0278
     43 H          -3.4339   10.8935    1.2841 H       1  LIG1        0.0278
     44 H          -3.6463    9.2163    1.7887 H       1  LIG1        0.0278
     45 N          -6.9535   12.2311    0.0594 N.1     1  LIG1       -0.1908
     46 C          -6.3065   11.3707   -0.3823 C.1     1  LIG1        0.1000
@<TRIPOS>BOND
     1    40    38    1
     2    39    38   ar
     3    39    35   ar
     4    11    12    3
     5    38    37   ar
     6    22    23    3
     7    20    18    1
     8    12     3    1
     9    23    15    1
    10    37    46    1
    11    37    36   ar
    12    35    27    1
    13    35    36   ar
    14    28    27   ar
    15    28    24   ar
    16     9     7    1
    17    18    19    1
    18    18    14    1
    19    18    21    1
    20    27    26   ar
    21    15    14   ar
    22    15    16   ar
    23    46    45    3
    24    14    13   ar
    25    36    41    1
    26     8     7    1
    27    24    16    1
    28    24    25   ar
    29    16    17   ar
    30    26    34    1
    31    26    25   ar
    32     3     2   ar
    33     3     4   ar
    34    31    29    1
    35     7     2    1
    36     7    10    1
    37    34    33    3
    38    25    29    1
    39    13    17   ar
    40    13     4    1
    41     2     1   ar
    42     4     5   ar
    43    29    32    1
    44    29    30    1
    45    41    43    1
    46    41    44    1
    47    41    42    1
    48     1     5   ar
    49     1     6    1
