@<TRIPOS>MOLECULE
mol_data/opt/b3lyp/geoms/mol2/5id5id-5id.out
 35 37 0 0 0
SMALL
GASTEIGER

@<TRIPOS>ATOM
      1 C          -1.6799   -1.6915    1.4286 C.ar    1  LIG1       -0.0196
      2 C          -0.8310   -1.8918    0.3771 C.ar    1  LIG1       -0.0255
      3 C          -0.3813   -0.6351   -0.1718 C.ar    1  LIG1        0.0699
      4 C          -0.8853    0.4832    0.4801 C.ar    1  LIG1        0.0438
      5 S          -1.9334   -0.0138    1.7835 S.2     1  LIG1       -0.0945
      6 H          -2.1767   -2.4458    2.0234 H       1  LIG1        0.0696
      7 C          -0.4201   -3.2307   -0.1663 C.3     1  LIG1       -0.0380
      8 H           0.6652   -3.3656   -0.1057 H       1  LIG1        0.0278
      9 H          -0.6972   -3.3306   -1.2211 H       1  LIG1        0.0278
     10 H          -0.8961   -4.0408    0.3904 H       1  LIG1        0.0278
     11 N           1.1357   -0.5258   -2.2672 N.1     1  LIG1       -0.1908
     12 C           0.4540   -0.5609   -1.3239 C.1     1  LIG1        0.1006
     13 C          -0.6515    1.8920    0.1948 C.ar    1  LIG1        0.0319
     14 C           0.5456    2.5560    0.0215 C.ar    1  LIG1       -0.0172
     15 C           0.3351    3.9520   -0.2617 C.ar    1  LIG1        0.0705
     16 C          -0.9964    4.3467   -0.2756 C.ar    1  LIG1        0.0444
     17 S          -2.0235    2.9791    0.0421 S.2     1  LIG1       -0.0856
     18 C           1.9154    1.9491    0.1259 C.3     1  LIG1       -0.0374
     19 H           2.6160    2.6586    0.5744 H       1  LIG1        0.0278
     20 H           2.3029    1.6767   -0.8616 H       1  LIG1        0.0278
     21 H           1.8989    1.0427    0.7347 H       1  LIG1        0.0278
     22 N           2.3055    5.5559   -0.7634 N.1     1  LIG1       -0.1908
     23 C           1.4128    4.8424   -0.5417 C.1     1  LIG1        0.1006
     24 C          -1.5576    5.6684   -0.5181 C.ar    1  LIG1        0.0313
     25 C          -1.2295    6.8723    0.0724 C.ar    1  LIG1       -0.0178
     26 C          -2.0354    7.9452   -0.4563 C.ar    1  LIG1        0.0623
     27 C          -2.9448    7.5425   -1.4077 C.ar    1  LIG1       -0.0061
     28 S          -2.8466    5.8557   -1.7026 S.2     1  LIG1       -0.0945
     29 H          -3.6547    8.1604   -1.9388 H       1  LIG1        0.0706
     30 C          -0.2087    7.0808    1.1538 C.3     1  LIG1       -0.0374
     31 H          -0.5441    7.8519    1.8527 H       1  LIG1        0.0278
     32 H           0.7495    7.4045    0.7338 H       1  LIG1        0.0278
     33 H          -0.0287    6.1590    1.7112 H       1  LIG1        0.0278
     34 N          -1.8279   10.3960    0.3584 N.1     1  LIG1       -0.1908
     35 C          -1.9237    9.2983   -0.0156 C.1     1  LIG1        0.1000
@<TRIPOS>BOND
     1    11    12    3
     2    29    27    1
     3    28    27   ar
     4    28    24   ar
     5    27    26   ar
     6    12     3    1
     7     9     7    1
     8    20    18    1
     9    22    23    3
    10    23    15    1
    11    24    16    1
    12    24    25   ar
    13    26    35    1
    14    26    25   ar
    15    16    15   ar
    16    16    17   ar
    17    15    14   ar
    18     3     2   ar
    19     3     4   ar
    20     7     8    1
    21     7     2    1
    22     7    10    1
    23    35    34    3
    24    14    18    1
    25    14    13   ar
    26    17    13   ar
    27    25    30    1
    28    18    19    1
    29    18    21    1
    30    13     4    1
    31     2     1   ar
    32     4     5   ar
    33    32    30    1
    34    30    33    1
    35    30    31    1
    36     1     5   ar
    37     1     6    1
