@<TRIPOS>MOLECULE
mol_data/opt/b3lyp/geoms/mol2/5id5id5id-5id-.out
 46 49 0 0 0
SMALL
GASTEIGER

@<TRIPOS>ATOM
      1 C          -1.2722   -1.5168    2.0944 C.ar    1  LIG1       -0.0196
      2 C          -0.8973   -1.8090    0.8136 C.ar    1  LIG1       -0.0255
      3 C          -0.5854   -0.6068    0.0788 C.ar    1  LIG1        0.0699
      4 C          -0.7163    0.5617    0.8183 C.ar    1  LIG1        0.0438
      5 S          -1.2373    0.1816    2.4392 S.2     1  LIG1       -0.0945
      6 H          -1.5690   -2.2136    2.8663 H       1  LIG1        0.0696
      7 C          -0.8276   -3.1874    0.2205 C.3     1  LIG1       -0.0380
      8 H           0.1891   -3.4235   -0.1114 H       1  LIG1        0.0278
      9 H          -1.4791   -3.2740   -0.6555 H       1  LIG1        0.0278
     10 H          -1.1324   -3.9418    0.9490 H       1  LIG1        0.0278
     11 N           0.0428   -0.6641   -2.4324 N.1     1  LIG1       -0.1908
     12 C          -0.2381   -0.6250   -1.3032 C.1     1  LIG1        0.1006
     13 C          -0.4933    1.9386    0.3989 C.ar    1  LIG1        0.0319
     14 C           0.6033    2.4864   -0.2350 C.ar    1  LIG1       -0.0172
     15 C           0.4146    3.8909   -0.4890 C.ar    1  LIG1        0.0705
     16 C          -0.7918    4.4059   -0.0323 C.ar    1  LIG1        0.0444
     17 S          -1.7336    3.1439    0.7069 S.2     1  LIG1       -0.0856
     18 C           1.8603    1.7571   -0.6137 C.3     1  LIG1       -0.0374
     19 H           2.7318    2.4060   -0.4928 H       1  LIG1        0.0278
     20 H           1.8281    1.4328   -1.6593 H       1  LIG1        0.0278
     21 H           1.9996    0.8667    0.0029 H       1  LIG1        0.0278
     22 N           2.1774    5.3002   -1.7590 N.1     1  LIG1       -0.1908
     23 C           1.3782    4.6739   -1.1896 C.1     1  LIG1        0.1006
     24 C          -1.2986    5.7680   -0.1231 C.ar    1  LIG1        0.0319
     25 C          -0.6839    6.9496    0.2379 C.ar    1  LIG1       -0.0172
     26 C          -1.5293    8.0834   -0.0322 C.ar    1  LIG1        0.0705
     27 C          -2.7729    7.7663   -0.5632 C.ar    1  LIG1        0.0444
     28 S          -2.9138    6.0439   -0.7583 S.2     1  LIG1       -0.0856
     29 C           0.6781    7.0866    0.8554 C.3     1  LIG1       -0.0374
     30 H           0.6855    7.8956    1.5908 H       1  LIG1        0.0278
     31 H           1.4332    7.3182    0.0968 H       1  LIG1        0.0278
     32 H           0.9819    6.1621    1.3508 H       1  LIG1        0.0278
     33 N          -0.7332   10.5107    0.3923 N.1     1  LIG1       -0.1908
     34 C          -1.0995    9.4235    0.1951 C.1     1  LIG1        0.1006
     35 C          -3.8591    8.6573   -0.9468 C.ar    1  LIG1        0.0313
     36 C          -4.4528    9.6665   -0.2156 C.ar    1  LIG1       -0.0178
     37 C          -5.4992   10.3079   -0.9733 C.ar    1  LIG1        0.0623
     38 C          -5.6809    9.7789   -2.2308 C.ar    1  LIG1       -0.0061
     39 S          -4.5855    8.4965   -2.5424 S.2     1  LIG1       -0.0945
     40 H          -6.4018   10.0883   -2.9741 H       1  LIG1        0.0706
     41 C          -4.1192   10.0546    1.1961 C.3     1  LIG1       -0.0374
     42 H          -5.0242   10.3450    1.7365 H       1  LIG1        0.0278
     43 H          -3.4299   10.9053    1.2180 H       1  LIG1        0.0278
     44 H          -3.6424    9.2308    1.7316 H       1  LIG1        0.0278
     45 N          -6.9418   12.2397   -0.0244 N.1     1  LIG1       -0.1908
     46 C          -6.2951   11.3755   -0.4592 C.1     1  LIG1        0.1000
@<TRIPOS>BOND
     1    40    38    1
     2    39    38   ar
     3    39    35   ar
     4    11    12    3
     5    38    37   ar
     6    22    23    3
     7    20    18    1
     8    12     3    1
     9    23    15    1
    10    37    46    1
    11    37    36   ar
    12    35    27    1
    13    35    36   ar
    14    28    27   ar
    15    28    24   ar
    16     9     7    1
    17    18    19    1
    18    18    14    1
    19    18    21    1
    20    27    26   ar
    21    15    14   ar
    22    15    16   ar
    23    46    45    3
    24    14    13   ar
    25    36    41    1
    26    24    16    1
    27    24    25   ar
    28     8     7    1
    29    16    17   ar
    30    26    34    1
    31    26    25   ar
    32     3     2   ar
    33     3     4   ar
    34    31    29    1
    35    34    33    3
    36     7     2    1
    37     7    10    1
    38    25    29    1
    39    13    17   ar
    40    13     4    1
    41     2     1   ar
    42     4     5   ar
    43    29    32    1
    44    29    30    1
    45    41    43    1
    46    41    44    1
    47    41    42    1
    48     1     5   ar
    49     1     6    1
