@<TRIPOS>MOLECULE
mol_data/opt/b3lyp/geoms/mol2/5id5id-5id-5id-.out
 46 49 0 0 0
SMALL
GASTEIGER

@<TRIPOS>ATOM
      1 C          -1.2718   -1.5282    2.0779 C.ar    1  LIG1       -0.0196
      2 C          -0.8952   -1.8131    0.7959 C.ar    1  LIG1       -0.0255
      3 C          -0.5829   -0.6067    0.0682 C.ar    1  LIG1        0.0699
      4 C          -0.7153    0.5576    0.8141 C.ar    1  LIG1        0.0438
      5 S          -1.2382    0.1683    2.4321 S.2     1  LIG1       -0.0945
      6 H          -1.5693   -2.2294    2.8455 H       1  LIG1        0.0696
      7 C          -0.8241   -3.1882    0.1951 C.3     1  LIG1       -0.0380
      8 H           0.1933   -3.4221   -0.1363 H       1  LIG1        0.0278
      9 H          -1.4740   -3.2700   -0.6825 H       1  LIG1        0.0278
     10 H          -1.1300   -3.9467    0.9189 H       1  LIG1        0.0278
     11 N           0.0484   -0.6496   -2.4426 N.1     1  LIG1       -0.1908
     12 C          -0.2339   -0.6170   -1.3135 C.1     1  LIG1        0.1006
     13 C          -0.4924    1.9370    0.4027 C.ar    1  LIG1        0.0319
     14 C           0.6046    2.4888   -0.2270 C.ar    1  LIG1       -0.0172
     15 C           0.4155    3.8945   -0.4736 C.ar    1  LIG1        0.0705
     16 C          -0.7917    4.4064   -0.0155 C.ar    1  LIG1        0.0444
     17 S          -1.7337    3.1400    0.7159 S.2     1  LIG1       -0.0856
     18 C           1.8625    1.7623   -0.6082 C.3     1  LIG1       -0.0374
     19 H           2.7337    2.4104   -0.4805 H       1  LIG1        0.0278
     20 H           1.8328    1.4457   -1.6562 H       1  LIG1        0.0278
     21 H           2.0005    0.8674    0.0022 H       1  LIG1        0.0278
     22 N           2.1789    5.3117   -1.7340 N.1     1  LIG1       -0.1908
     23 C           1.3795    4.6818   -1.1689 C.1     1  LIG1        0.1006
     24 C          -1.2991    5.7688   -0.0994 C.ar    1  LIG1        0.0319
     25 C          -0.6853    6.9487    0.2686 C.ar    1  LIG1       -0.0172
     26 C          -1.5310    8.0835    0.0038 C.ar    1  LIG1        0.0705
     27 C          -2.7739    7.7687   -0.5300 C.ar    1  LIG1        0.0444
     28 S          -2.9137    6.0473   -0.7347 S.2     1  LIG1       -0.0856
     29 C           0.6761    7.0829    0.8882 C.3     1  LIG1       -0.0374
     30 H           0.6822    7.8879    1.6281 H       1  LIG1        0.0278
     31 H           1.4318    7.3191    0.1317 H       1  LIG1        0.0278
     32 H           0.9798    6.1558    1.3789 H       1  LIG1        0.0278
     33 N          -0.7365   10.5089    0.4423 N.1     1  LIG1       -0.1908
     34 C          -1.1020    9.4226    0.2388 C.1     1  LIG1        0.1006
     35 C          -3.8604    8.6610   -0.9098 C.ar    1  LIG1        0.0313
     36 C          -4.4555    9.6659   -0.1737 C.ar    1  LIG1       -0.0178
     37 C          -5.5017   10.3106   -0.9288 C.ar    1  LIG1        0.0623
     38 C          -5.6819    9.7882   -2.1893 C.ar    1  LIG1       -0.0061
     39 S          -4.5852    8.5083   -2.5069 S.2     1  LIG1       -0.0945
     40 H          -6.4024   10.1010   -2.9316 H       1  LIG1        0.0706
     41 C          -4.1232   10.0467    1.2403 C.3     1  LIG1       -0.0374
     42 H          -5.0287   10.3350    1.7811 H       1  LIG1        0.0278
     43 H          -3.4334   10.8968    1.2674 H       1  LIG1        0.0278
     44 H          -3.6476    9.2199    1.7722 H       1  LIG1        0.0278
     45 N          -6.9465   12.2362    0.0291 N.1     1  LIG1       -0.1908
     46 C          -6.2989   11.3748   -0.4097 C.1     1  LIG1        0.1000
@<TRIPOS>BOND
     1    40    38    1
     2    39    38   ar
     3    39    35   ar
     4    11    12    3
     5    38    37   ar
     6    22    23    3
     7    20    18    1
     8    12     3    1
     9    23    15    1
    10    37    46    1
    11    37    36   ar
    12    35    27    1
    13    35    36   ar
    14    28    27   ar
    15    28    24   ar
    16     9     7    1
    17    18    19    1
    18    18    14    1
    19    18    21    1
    20    27    26   ar
    21    15    14   ar
    22    15    16   ar
    23    46    45    3
    24    14    13   ar
    25    36    41    1
    26     8     7    1
    27    24    16    1
    28    24    25   ar
    29    16    17   ar
    30    26    34    1
    31    26    25   ar
    32     3     2   ar
    33     3     4   ar
    34    31    29    1
    35     7     2    1
    36     7    10    1
    37    34    33    3
    38    25    29    1
    39    13    17   ar
    40    13     4    1
    41     2     1   ar
    42     4     5   ar
    43    29    32    1
    44    29    30    1
    45    41    43    1
    46    41    44    1
    47    41    42    1
    48     1     5   ar
    49     1     6    1
