@<TRIPOS>MOLECULE
mol_data/opt/b3lyp/geoms/mol2/5id5id-5id5id-.out
 46 49 0 0 0
SMALL
GASTEIGER

@<TRIPOS>ATOM
      1 C          -1.2718   -1.5222    2.0987 C.ar    1  LIG1       -0.0196
      2 C          -0.8955   -1.8111    0.8175 C.ar    1  LIG1       -0.0255
      3 C          -0.5835   -0.6069    0.0860 C.ar    1  LIG1        0.0699
      4 C          -0.7159    0.5597    0.8282 C.ar    1  LIG1        0.0438
      5 S          -1.2383    0.1754    2.4476 S.2     1  LIG1       -0.0945
      6 H          -1.5691   -2.2210    2.8686 H       1  LIG1        0.0696
      7 C          -0.8244   -3.1881    0.2212 C.3     1  LIG1       -0.0380
      8 H           0.1928   -3.4227   -0.1103 H       1  LIG1        0.0278
      9 H          -1.4750   -3.2729   -0.6556 H       1  LIG1        0.0278
     10 H          -1.1295   -3.9444    0.9476 H       1  LIG1        0.0278
     11 N           0.0466   -0.6580   -2.4249 N.1     1  LIG1       -0.1908
     12 C          -0.2351   -0.6217   -1.2957 C.1     1  LIG1        0.1006
     13 C          -0.4932    1.9377    0.4125 C.ar    1  LIG1        0.0319
     14 C           0.6035    2.4877   -0.2194 C.ar    1  LIG1       -0.0172
     15 C           0.4144    3.8928   -0.4697 C.ar    1  LIG1        0.0705
     16 C          -0.7924    4.4061   -0.0121 C.ar    1  LIG1        0.0444
     17 S          -1.7341    3.1418    0.7233 S.2     1  LIG1       -0.0856
     18 C           1.8610    1.7598   -0.5994 C.3     1  LIG1       -0.0374
     19 H           2.7321    2.4090   -0.4767 H       1  LIG1        0.0278
     20 H           1.8294    1.4379   -1.6457 H       1  LIG1        0.0278
     21 H           2.0006    0.8681    0.0153 H       1  LIG1        0.0278
     22 N           2.1774    5.3063   -1.7347 N.1     1  LIG1       -0.1908
     23 C           1.3781    4.6781   -1.1675 C.1     1  LIG1        0.1006
     24 C          -1.2995    5.7683   -0.0993 C.ar    1  LIG1        0.0319
     25 C          -0.6853    6.9490    0.2655 C.ar    1  LIG1       -0.0172
     26 C          -1.5307    8.0834   -0.0021 C.ar    1  LIG1        0.0705
     27 C          -2.7738    7.7676   -0.5350 C.ar    1  LIG1        0.0444
     28 S          -2.9141    6.0457   -0.7351 S.2     1  LIG1       -0.0856
     29 C           0.6762    7.0845    0.8846 C.3     1  LIG1       -0.0374
     30 H           0.6823    7.8904    1.6234 H       1  LIG1        0.0278
     31 H           1.4316    7.3200    0.1275 H       1  LIG1        0.0278
     32 H           0.9804    6.1582    1.3763 H       1  LIG1        0.0278
     33 N          -0.7353   10.5097    0.4298 N.1     1  LIG1       -0.1908
     34 C          -1.1012    9.4230    0.2293 C.1     1  LIG1        0.1006
     35 C          -3.8599    8.6593   -0.9169 C.ar    1  LIG1        0.0313
     36 C          -4.4543    9.6664   -0.1832 C.ar    1  LIG1       -0.0178
     37 C          -5.5004   10.3097   -0.9397 C.ar    1  LIG1        0.0623
     38 C          -5.6813    9.7840   -2.1988 C.ar    1  LIG1       -0.0061
     39 S          -4.5853    8.5028   -2.5133 S.2     1  LIG1       -0.0945
     40 H          -6.4018   10.0953   -2.9416 H       1  LIG1        0.0706
     41 C          -4.1217   10.0506    1.2298 C.3     1  LIG1       -0.0374
     42 H          -5.0272   10.3398    1.7702 H       1  LIG1        0.0278
     43 H          -3.4321   10.9010    1.2547 H       1  LIG1        0.0278
     44 H          -3.6457    9.2252    1.7635 H       1  LIG1        0.0278
     45 N          -6.9440   12.2384    0.0136 N.1     1  LIG1       -0.1908
     46 C          -6.2969   11.3756   -0.4231 C.1     1  LIG1        0.1000
@<TRIPOS>BOND
     1    40    38    1
     2    39    38   ar
     3    39    35   ar
     4    11    12    3
     5    38    37   ar
     6    22    23    3
     7    20    18    1
     8    12     3    1
     9    23    15    1
    10    37    46    1
    11    37    36   ar
    12    35    27    1
    13    35    36   ar
    14    28    27   ar
    15    28    24   ar
    16     9     7    1
    17    18    19    1
    18    18    14    1
    19    18    21    1
    20    27    26   ar
    21    15    14   ar
    22    15    16   ar
    23    46    45    3
    24    14    13   ar
    25    36    41    1
    26     8     7    1
    27    24    16    1
    28    24    25   ar
    29    16    17   ar
    30    26    34    1
    31    26    25   ar
    32     3     2   ar
    33     3     4   ar
    34    31    29    1
    35     7     2    1
    36     7    10    1
    37    34    33    3
    38    25    29    1
    39    13    17   ar
    40    13     4    1
    41     2     1   ar
    42     4     5   ar
    43    29    32    1
    44    29    30    1
    45    41    43    1
    46    41    44    1
    47    41    42    1
    48     1     5   ar
    49     1     6    1
