@<TRIPOS>MOLECULE
mol_data/opt/b3lyp/geoms/mol2/5id5id-5id5id.out
 46 49 0 0 0
SMALL
GASTEIGER

@<TRIPOS>ATOM
      1 C          -1.2573   -1.5251    2.0941 C.ar    1  LIG1       -0.0196
      2 C          -0.8831   -1.8114    0.8116 C.ar    1  LIG1       -0.0255
      3 C          -0.5745   -0.6056    0.0814 C.ar    1  LIG1        0.0699
      4 C          -0.7070    0.5596    0.8258 C.ar    1  LIG1        0.0438
      5 S          -1.2257    0.1719    2.4456 S.2     1  LIG1       -0.0945
      6 H          -1.5519   -2.2256    2.8634 H       1  LIG1        0.0696
      7 C          -0.8113   -3.1873    0.2129 C.3     1  LIG1       -0.0380
      8 H           0.2055   -3.4198   -0.1214 H       1  LIG1        0.0278
      9 H          -1.4639   -3.2718   -0.6625 H       1  LIG1        0.0278
     10 H          -1.1134   -3.9452    0.9388 H       1  LIG1        0.0278
     11 N           0.0511   -0.6517   -2.4307 N.1     1  LIG1       -0.1908
     12 C          -0.2286   -0.6176   -1.3010 C.1     1  LIG1        0.1006
     13 C          -0.4874    1.9387    0.4118 C.ar    1  LIG1        0.0319
     14 C           0.6072    2.4916   -0.2212 C.ar    1  LIG1       -0.0172
     15 C           0.4150    3.8967   -0.4692 C.ar    1  LIG1        0.0705
     16 C          -0.7918    4.4071   -0.0087 C.ar    1  LIG1        0.0444
     17 S          -1.7299    3.1401    0.7265 S.2     1  LIG1       -0.0856
     18 C           1.8652    1.7665   -0.6046 C.3     1  LIG1       -0.0374
     19 H           2.7355    2.4166   -0.4812 H       1  LIG1        0.0278
     20 H           1.8328    1.4474   -1.6517 H       1  LIG1        0.0278
     21 H           2.0068    0.8734    0.0076 H       1  LIG1        0.0278
     22 N           2.1728    5.3154   -1.7358 N.1     1  LIG1       -0.1908
     23 C           1.3759    4.6848   -1.1679 C.1     1  LIG1        0.1006
     24 C          -1.3014    5.7686   -0.0932 C.ar    1  LIG1        0.0319
     25 C          -0.6885    6.9498    0.2724 C.ar    1  LIG1       -0.0172
     26 C          -1.5364    8.0831    0.0083 C.ar    1  LIG1        0.0705
     27 C          -2.7799    7.7661   -0.5227 C.ar    1  LIG1        0.0444
     28 S          -2.9177    6.0443   -0.7254 S.2     1  LIG1       -0.0856
     29 C           0.6739    7.0864    0.8891 C.3     1  LIG1       -0.0374
     30 H           0.6807    7.8925    1.6276 H       1  LIG1        0.0278
     31 H           1.4278    7.3223    0.1306 H       1  LIG1        0.0278
     32 H           0.9796    6.1604    1.3804 H       1  LIG1        0.0278
     33 N          -0.7441   10.5100    0.4428 N.1     1  LIG1       -0.1908
     34 C          -1.1087    9.4231    0.2411 C.1     1  LIG1        0.1006
     35 C          -3.8685    8.6564   -0.9014 C.ar    1  LIG1        0.0313
     36 C          -4.4634    9.6615   -0.1655 C.ar    1  LIG1       -0.0178
     37 C          -5.5116   10.3041   -0.9196 C.ar    1  LIG1        0.0623
     38 C          -5.6934    9.7799   -2.1792 C.ar    1  LIG1       -0.0061
     39 S          -4.5960    8.5008   -2.4970 S.2     1  LIG1       -0.0945
     40 H          -6.4157   10.0909   -2.9205 H       1  LIG1        0.0706
     41 C          -4.1292   10.0445    1.2474 C.3     1  LIG1       -0.0374
     42 H          -5.0344   10.3305    1.7900 H       1  LIG1        0.0278
     43 H          -3.4419   10.8969    1.2721 H       1  LIG1        0.0278
     44 H          -3.6498    9.2198    1.7789 H       1  LIG1        0.0278
     45 N          -6.9570   12.2292    0.0384 N.1     1  LIG1       -0.1908
     46 C          -6.3092   11.3680   -0.4004 C.1     1  LIG1        0.1000
@<TRIPOS>BOND
     1    40    38    1
     2    39    38   ar
     3    39    35   ar
     4    11    12    3
     5    38    37   ar
     6    22    23    3
     7    20    18    1
     8    12     3    1
     9    23    15    1
    10    37    46    1
    11    37    36   ar
    12    35    27    1
    13    35    36   ar
    14    28    27   ar
    15    28    24   ar
    16     9     7    1
    17    18    19    1
    18    18    14    1
    19    18    21    1
    20    27    26   ar
    21    15    14   ar
    22    15    16   ar
    23    46    45    3
    24    14    13   ar
    25    36    41    1
    26     8     7    1
    27    24    16    1
    28    24    25   ar
    29    16    17   ar
    30    26    34    1
    31    26    25   ar
    32     3     2   ar
    33     3     4   ar
    34    31    29    1
    35     7     2    1
    36     7    10    1
    37    34    33    3
    38    25    29    1
    39    13    17   ar
    40    13     4    1
    41     2     1   ar
    42     4     5   ar
    43    29    32    1
    44    29    30    1
    45    41    43    1
    46    41    44    1
    47    41    42    1
    48     1     5   ar
    49     1     6    1
