@<TRIPOS>MOLECULE
mol_data/opt/b3lyp/geoms/mol2/5ie.out
 14 14 0 0 0
SMALL
GASTEIGER

@<TRIPOS>ATOM
      1 C          -2.1406   -1.6671    0.0648 C.ar    1  LIG1       -0.0202
      2 C          -0.7756   -1.6709    0.0261 C.ar    1  LIG1       -0.0281
      3 C          -0.2424   -0.3235   -0.0163 C.ar    1  LIG1        0.0346
      4 C          -1.2292    0.6368   -0.0074 C.ar    1  LIG1       -0.0087
      5 S          -2.8064   -0.0615    0.0516 S.2     1  LIG1       -0.1036
      6 H          -2.8013   -2.5225    0.1009 H       1  LIG1        0.0696
      7 H          -1.0991    1.7088   -0.0326 H       1  LIG1        0.0706
      8 C           0.0875   -2.9000    0.0259 C.3     1  LIG1       -0.0380
      9 H           0.7660   -2.9051    0.8860 H       1  LIG1        0.0278
     10 H           0.7134   -2.9420   -0.8722 H       1  LIG1        0.0278
     11 H          -0.5186   -3.8084    0.0632 H       1  LIG1        0.0278
     12 C           1.1501   -0.0304   -0.0618 C.1     1  LIG1       -0.0689
     13 C           2.3386    0.1966   -0.1003 C.1     1  LIG1       -0.1139
     14 H           3.3822    0.4073   -0.1332 H       1  LIG1        0.1232
@<TRIPOS>BOND
     1    10     8    1
     2    14    13    1
     3    13    12    3
     4    12     3    1
     5     7     4    1
     6     3     4   ar
     7     3     2   ar
     8     4     5   ar
     9     8     2    1
    10     8    11    1
    11     8     9    1
    12     2     1   ar
    13     5     1   ar
    14     1     6    1
