@<TRIPOS>MOLECULE
mol_data/opt/b3lyp/geoms/mol2/5ie5ie5ie-.out
 38 40 0 0 0
SMALL
GASTEIGER

@<TRIPOS>ATOM
      1 C          -1.7588   -1.6301    1.4807 C.ar    1  LIG1       -0.0196
      2 C          -0.8222   -1.8524    0.5124 C.ar    1  LIG1       -0.0274
      3 C          -0.3073   -0.6129   -0.0281 C.ar    1  LIG1        0.0428
      4 C          -0.8625    0.5168    0.5609 C.ar    1  LIG1        0.0418
      5 S          -2.0309    0.0560    1.7783 S.2     1  LIG1       -0.0946
      6 H          -2.3112   -2.3712    2.0422 H       1  LIG1        0.0696
      7 C          -0.3790   -3.2054    0.0342 C.3     1  LIG1       -0.0380
      8 H           0.6974   -3.3440    0.1835 H       1  LIG1        0.0278
      9 H          -0.5689   -3.3257   -1.0378 H       1  LIG1        0.0278
     10 H          -0.9037   -4.0021    0.5670 H       1  LIG1        0.0278
     11 C           0.6253   -0.5797   -1.1010 C.1     1  LIG1       -0.0682
     12 C           1.4125   -0.5959   -2.0211 C.1     1  LIG1       -0.1139
     13 H           2.0946   -0.5959   -2.8396 H       1  LIG1        0.1232
     14 C          -0.5965    1.9208    0.2769 C.ar    1  LIG1        0.0318
     15 C           0.6096    2.5868    0.2540 C.ar    1  LIG1       -0.0191
     16 C           0.4558    3.9799   -0.0932 C.ar    1  LIG1        0.0435
     17 C          -0.8643    4.3629   -0.2981 C.ar    1  LIG1        0.0424
     18 S          -1.9324    3.0003   -0.0918 S.2     1  LIG1       -0.0856
     19 C           1.9451    1.9784    0.5686 C.3     1  LIG1       -0.0374
     20 H           2.5582    2.6803    1.1410 H       1  LIG1        0.0278
     21 H           2.4929    1.7316   -0.3473 H       1  LIG1        0.0278
     22 H           1.8326    1.0556    1.1411 H       1  LIG1        0.0278
     23 C           1.5686    4.8521   -0.2489 C.1     1  LIG1       -0.0682
     24 C           2.5396    5.5637   -0.3808 C.1     1  LIG1       -0.1139
     25 H           3.3871    6.1952   -0.5142 H       1  LIG1        0.1232
     26 C          -1.3918    5.6749   -0.6486 C.ar    1  LIG1        0.0312
     27 C          -1.1942    6.8860   -0.0207 C.ar    1  LIG1       -0.0198
     28 C          -1.8972    7.9599   -0.6873 C.ar    1  LIG1        0.0352
     29 C          -2.6137    7.5345   -1.7839 C.ar    1  LIG1       -0.0081
     30 S          -2.4485    5.8426   -2.0475 S.2     1  LIG1       -0.0946
     31 H          -3.2248    8.1397   -2.4381 H       1  LIG1        0.0706
     32 C          -0.3930    7.1007    1.2299 C.3     1  LIG1       -0.0374
     33 H          -0.8889    7.8289    1.8782 H       1  LIG1        0.0278
     34 H           0.6047    7.4892    0.9984 H       1  LIG1        0.0278
     35 H          -0.2606    6.1673    1.7806 H       1  LIG1        0.0278
     36 C          -1.8695    9.3125   -0.2432 C.1     1  LIG1       -0.0688
     37 C          -1.8382   10.4582    0.1462 C.1     1  LIG1       -0.1139
     38 H          -1.8151   11.4690    0.4817 H       1  LIG1        0.1232
@<TRIPOS>BOND
     1    13    12    1
     2    31    29    1
     3    30    29   ar
     4    30    26   ar
     5    12    11    3
     6    29    28   ar
     7    11     3    1
     8     9     7    1
     9    28    36    1
    10    28    27   ar
    11    26    17    1
    12    26    27   ar
    13    25    24    1
    14    24    23    3
    15    21    19    1
    16    17    16   ar
    17    17    18   ar
    18    23    16    1
    19    36    37    3
    20    16    15   ar
    21    18    14   ar
    22     3     2   ar
    23     3     4   ar
    24    27    32    1
    25     7     8    1
    26     7     2    1
    27     7    10    1
    28    37    38    1
    29    15    14   ar
    30    15    19    1
    31    14     4    1
    32     2     1   ar
    33     4     5   ar
    34    19    20    1
    35    19    22    1
    36    34    32    1
    37    32    35    1
    38    32    33    1
    39     1     5   ar
    40     1     6    1
