@<TRIPOS>MOLECULE
mol_data/opt/b3lyp/geoms/mol2/5ie5ie5ie-5ie.out
 50 53 0 0 0
SMALL
GASTEIGER

@<TRIPOS>ATOM
      1 C          -1.2540   -1.4433    2.2904 C.ar    1  LIG1       -0.0196
      2 C          -0.8354   -1.7384    1.0248 C.ar    1  LIG1       -0.0274
      3 C          -0.4915   -0.5444    0.2833 C.ar    1  LIG1        0.0428
      4 C          -0.6473    0.6239    1.0195 C.ar    1  LIG1        0.0418
      5 S          -1.2291    0.2570    2.6276 S.2     1  LIG1       -0.0946
      6 H          -1.5795   -2.1378    3.0530 H       1  LIG1        0.0696
      7 C          -0.7521   -3.1206    0.4430 C.3     1  LIG1       -0.0380
      8 H           0.2711   -3.3563    0.1305 H       1  LIG1        0.0278
      9 H          -1.3848   -3.2123   -0.4464 H       1  LIG1        0.0278
     10 H          -1.0702   -3.8728    1.1689 H       1  LIG1        0.0278
     11 C          -0.0981   -0.5839   -1.0825 C.1     1  LIG1       -0.0682
     12 C           0.2244   -0.6613   -2.2473 C.1     1  LIG1       -0.1139
     13 H           0.4958   -0.7141   -3.2761 H       1  LIG1        0.1232
     14 C          -0.4055    2.0010    0.6096 C.ar    1  LIG1        0.0318
     15 C           0.7322    2.5550    0.0638 C.ar    1  LIG1       -0.0191
     16 C           0.5679    3.9594   -0.2275 C.ar    1  LIG1        0.0435
     17 C          -0.6775    4.4626    0.1294 C.ar    1  LIG1        0.0424
     18 S          -1.6740    3.2003    0.8031 S.2     1  LIG1       -0.0856
     19 C           2.0181    1.8249   -0.1932 C.3     1  LIG1       -0.0374
     20 H           2.8732    2.4615    0.0511 H       1  LIG1        0.0278
     21 H           2.1076    1.5411   -1.2474 H       1  LIG1        0.0278
     22 H           2.0761    0.9090    0.3980 H       1  LIG1        0.0278
     23 C           1.5825    4.7278   -0.8626 C.1     1  LIG1       -0.0682
     24 C           2.4651    5.3489   -1.4119 C.1     1  LIG1       -0.1139
     25 H           3.2286    5.9016   -1.9084 H       1  LIG1        0.1232
     26 C          -1.1888    5.8196   -0.0119 C.ar    1  LIG1        0.0318
     27 C          -0.6386    7.0039    0.4284 C.ar    1  LIG1       -0.0191
     28 C          -1.4456    8.1458    0.0684 C.ar    1  LIG1        0.0435
     29 C          -2.6127    7.8147   -0.6097 C.ar    1  LIG1        0.0424
     30 S          -2.7171    6.0891   -0.8357 S.2     1  LIG1       -0.0856
     31 C           0.6332    7.1350    1.2143 C.3     1  LIG1       -0.0374
     32 H           0.5186    7.8870    2.0003 H       1  LIG1        0.0278
     33 H           1.4634    7.4512    0.5735 H       1  LIG1        0.0278
     34 H           0.9152    6.1843    1.6706 H       1  LIG1        0.0278
     35 C          -1.0419    9.4801    0.3510 C.1     1  LIG1       -0.0682
     36 C          -0.6617   10.6023    0.6008 C.1     1  LIG1       -0.1139
     37 H          -0.3305   11.5946    0.8026 H       1  LIG1        0.1232
     38 C          -3.6571    8.6952   -1.1160 C.ar    1  LIG1        0.0312
     39 C          -4.3776    9.6620   -0.4478 C.ar    1  LIG1       -0.0198
     40 C          -5.3258   10.3240   -1.3165 C.ar    1  LIG1        0.0352
     41 C          -5.3081    9.8353   -2.6040 C.ar    1  LIG1       -0.0081
     42 S          -4.1459    8.5829   -2.8042 S.2     1  LIG1       -0.0946
     43 H          -5.9244   10.1561   -3.4315 H       1  LIG1        0.0706
     44 C          -4.2581    9.9886    1.0121 C.3     1  LIG1       -0.0374
     45 H          -5.2459   10.1843    1.4392 H       1  LIG1        0.0278
     46 H          -3.6469   10.8842    1.1681 H       1  LIG1        0.0278
     47 H          -3.7881    9.1723    1.5640 H       1  LIG1        0.0278
     48 C          -6.2021   11.3582   -0.8806 C.1     1  LIG1       -0.0688
     49 C          -6.9424   12.2354   -0.4964 C.1     1  LIG1       -0.1139
     50 H          -7.5967   13.0086   -0.1665 H       1  LIG1        0.1232
@<TRIPOS>BOND
     1    43    41    1
     2    13    12    1
     3    42    41   ar
     4    42    38   ar
     5    41    40   ar
     6    12    11    3
     7    25    24    1
     8    24    23    3
     9    40    48    1
    10    40    39   ar
    11    21    19    1
    12    38    29    1
    13    38    39   ar
    14    11     3    1
    15    48    49    3
    16    23    16    1
    17    30    29   ar
    18    30    26   ar
    19    29    28   ar
    20    49    50    1
    21    39    44    1
    22     9     7    1
    23    16    15   ar
    24    16    17   ar
    25    19    20    1
    26    19    15    1
    27    19    22    1
    28    26    17    1
    29    26    27   ar
    30    15    14   ar
    31    28    35    1
    32    28    27   ar
    33    17    18   ar
    34     8     7    1
    35     3     4   ar
    36     3     2   ar
    37    35    36    3
    38    27    31    1
    39     7     2    1
    40     7    10    1
    41    33    31    1
    42    36    37    1
    43    14    18   ar
    44    14     4    1
    45    44    46    1
    46    44    45    1
    47    44    47    1
    48     4     5   ar
    49     2     1   ar
    50    31    34    1
    51    31    32    1
    52     1     5   ar
    53     1     6    1
