@<TRIPOS>MOLECULE
mol_data/opt/b3lyp/geoms/mol2/5ie5ie-5ie-5ie.out
 50 53 0 0 0
SMALL
GASTEIGER

@<TRIPOS>ATOM
      1 C          -1.2184   -1.4548    2.2732 C.ar    1  LIG1       -0.0196
      2 C          -0.8155   -1.7431    1.0009 C.ar    1  LIG1       -0.0274
      3 C          -0.4824   -0.5450    0.2612 C.ar    1  LIG1        0.0428
      4 C          -0.6300    0.6195    1.0051 C.ar    1  LIG1        0.0418
      5 S          -1.1909    0.2438    2.6186 S.2     1  LIG1       -0.0946
      6 H          -1.5334   -2.1534    3.0363 H       1  LIG1        0.0696
      7 C          -0.7382   -3.1222    0.4111 C.3     1  LIG1       -0.0380
      8 H           0.2812   -3.3553    0.0847 H       1  LIG1        0.0278
      9 H          -1.3819   -3.2101   -0.4707 H       1  LIG1        0.0278
     10 H          -1.0465   -3.8784    1.1372 H       1  LIG1        0.0278
     11 C          -0.1065   -0.5772   -1.1099 C.1     1  LIG1       -0.0682
     12 C           0.2011   -0.6485   -2.2790 C.1     1  LIG1       -0.1139
     13 H           0.4593   -0.6960   -3.3115 H       1  LIG1        0.1232
     14 C          -0.3948    1.9988    0.5992 C.ar    1  LIG1        0.0318
     15 C           0.7352    2.5568    0.0414 C.ar    1  LIG1       -0.0191
     16 C           0.5657    3.9626   -0.2404 C.ar    1  LIG1        0.0435
     17 C          -0.6754    4.4627    0.1356 C.ar    1  LIG1        0.0424
     18 S          -1.6618    3.1960    0.8157 S.2     1  LIG1       -0.0856
     19 C           2.0182    1.8294   -0.2363 C.3     1  LIG1       -0.0374
     20 H           2.8759    2.4657   -0.0003 H       1  LIG1        0.0278
     21 H           2.0940    1.5509   -1.2930 H       1  LIG1        0.0278
     22 H           2.0850    0.9106    0.3496 H       1  LIG1        0.0278
     23 C           1.5711    4.7352   -0.8849 C.1     1  LIG1       -0.0682
     24 C           2.4457    5.3600   -1.4427 C.1     1  LIG1       -0.1139
     25 H           3.2021    5.9161   -1.9464 H       1  LIG1        0.1232
     26 C          -1.1897    5.8199    0.0082 C.ar    1  LIG1        0.0318
     27 C          -0.6345    7.0025    0.4470 C.ar    1  LIG1       -0.0191
     28 C          -1.4475    8.1454    0.1039 C.ar    1  LIG1        0.0435
     29 C          -2.6234    7.8166   -0.5598 C.ar    1  LIG1        0.0424
     30 S          -2.7294    6.0921   -0.7931 S.2     1  LIG1       -0.0856
     31 C           0.6477    7.1309    1.2163 C.3     1  LIG1       -0.0374
     32 H           0.5429    7.8786    2.0077 H       1  LIG1        0.0278
     33 H           1.4687    7.4513    0.5660 H       1  LIG1        0.0278
     34 H           0.9367    6.1781    1.6638 H       1  LIG1        0.0278
     35 C          -1.0415    9.4786    0.3879 C.1     1  LIG1       -0.0682
     36 C          -0.6591   10.6000    0.6384 C.1     1  LIG1       -0.1139
     37 H          -0.3264   11.5917    0.8408 H       1  LIG1        0.1232
     38 C          -3.6754    8.6988   -1.0473 C.ar    1  LIG1        0.0312
     39 C          -4.3881    9.6608   -0.3640 C.ar    1  LIG1       -0.0198
     40 C          -5.3484   10.3267   -1.2162 C.ar    1  LIG1        0.0352
     41 C          -5.3470    9.8456   -2.5067 C.ar    1  LIG1       -0.0081
     42 S          -4.1862    8.5957   -2.7295 S.2     1  LIG1       -0.0946
     43 H          -5.9745   10.1705   -3.3242 H       1  LIG1        0.0706
     44 C          -4.2494    9.9791    1.0960 C.3     1  LIG1       -0.0374
     45 H          -5.2316   10.1713    1.5375 H       1  LIG1        0.0278
     46 H          -3.6370   10.8745    1.2489 H       1  LIG1        0.0278
     47 H          -3.7712    9.1602    1.6368 H       1  LIG1        0.0278
     48 C          -6.2200   11.3573   -0.7628 C.1     1  LIG1       -0.0688
     49 C          -6.9562   12.2314   -0.3637 C.1     1  LIG1       -0.1139
     50 H          -7.6070   13.0019   -0.0208 H       1  LIG1        0.1232
@<TRIPOS>BOND
     1    43    41    1
     2    13    12    1
     3    42    41   ar
     4    42    38   ar
     5    41    40   ar
     6    12    11    3
     7    25    24    1
     8    24    23    3
     9    21    19    1
    10    40    48    1
    11    40    39   ar
    12    11     3    1
    13    38    29    1
    14    38    39   ar
    15    23    16    1
    16    30    29   ar
    17    30    26   ar
    18    48    49    3
    19    29    28   ar
    20     9     7    1
    21    39    44    1
    22    49    50    1
    23    16    15   ar
    24    16    17   ar
    25    19    20    1
    26    19    15    1
    27    19    22    1
    28    26    17    1
    29    26    27   ar
    30    15    14   ar
    31     8     7    1
    32    28    35    1
    33    28    27   ar
    34    17    18   ar
    35     3     2   ar
    36     3     4   ar
    37    35    36    3
    38     7     2    1
    39     7    10    1
    40    27    31    1
    41    33    31    1
    42    14    18   ar
    43    14     4    1
    44    36    37    1
    45     2     1   ar
    46     4     5   ar
    47    44    46    1
    48    44    45    1
    49    44    47    1
    50    31    34    1
    51    31    32    1
    52     1     5   ar
    53     1     6    1
