@<TRIPOS>MOLECULE
mol_data/opt/b3lyp/geoms/mol2/5ie5ie5ie.out
 38 40 0 0 0
SMALL
GASTEIGER

@<TRIPOS>ATOM
      1 C          -1.7537   -1.6274    1.4902 C.ar    1  LIG1       -0.0196
      2 C          -0.8224   -1.8513    0.5173 C.ar    1  LIG1       -0.0274
      3 C          -0.3095   -0.6128   -0.0273 C.ar    1  LIG1        0.0428
      4 C          -0.8611    0.5178    0.5634 C.ar    1  LIG1        0.0418
      5 S          -2.0232    0.0593    1.7874 S.2     1  LIG1       -0.0946
      6 H          -2.3035   -2.3675    2.0556 H       1  LIG1        0.0696
      7 C          -0.3828   -3.2052    0.0380 C.3     1  LIG1       -0.0380
      8 H           0.6953   -3.3421    0.1759 H       1  LIG1        0.0278
      9 H          -0.5843   -3.3285   -1.0316 H       1  LIG1        0.0278
     10 H          -0.9009   -4.0011    0.5784 H       1  LIG1        0.0278
     11 C           0.6181   -0.5813   -1.1045 C.1     1  LIG1       -0.0682
     12 C           1.4012   -0.5987   -2.0280 C.1     1  LIG1       -0.1139
     13 H           2.0800   -0.5997   -2.8492 H       1  LIG1        0.1232
     14 C          -0.5959    1.9214    0.2756 C.ar    1  LIG1        0.0318
     15 C           0.6104    2.5867    0.2454 C.ar    1  LIG1       -0.0191
     16 C           0.4557    3.9791   -0.1045 C.ar    1  LIG1        0.0435
     17 C          -0.8652    4.3622   -0.3040 C.ar    1  LIG1        0.0424
     18 S          -1.9329    3.0006   -0.0893 S.2     1  LIG1       -0.0856
     19 C           1.9473    1.9791    0.5555 C.3     1  LIG1       -0.0374
     20 H           2.5571    2.6766    1.1369 H       1  LIG1        0.0278
     21 H           2.4977    1.7451   -0.3623 H       1  LIG1        0.0278
     22 H           1.8371    1.0497    1.1174 H       1  LIG1        0.0278
     23 C           1.5684    4.8498   -0.2677 C.1     1  LIG1       -0.0682
     24 C           2.5396    5.5599   -0.4060 C.1     1  LIG1       -0.1139
     25 H           3.3873    6.1900   -0.5449 H       1  LIG1        0.1232
     26 C          -1.3939    5.6736   -0.6554 C.ar    1  LIG1        0.0312
     27 C          -1.1924    6.8862   -0.0317 C.ar    1  LIG1       -0.0198
     28 C          -1.8983    7.9587   -0.6974 C.ar    1  LIG1        0.0352
     29 C          -2.6208    7.5307   -1.7891 C.ar    1  LIG1       -0.0081
     30 S          -2.4576    5.8381   -2.0491 S.2     1  LIG1       -0.0946
     31 H          -3.2350    8.1345   -2.4417 H       1  LIG1        0.0706
     32 C          -0.3845    7.1039    1.2143 C.3     1  LIG1       -0.0374
     33 H          -0.8763    7.8346    1.8628 H       1  LIG1        0.0278
     34 H           0.6125    7.4906    0.9764 H       1  LIG1        0.0278
     35 H          -0.2501    6.1720    1.7670 H       1  LIG1        0.0278
     36 C          -1.8675    9.3124   -0.2572 C.1     1  LIG1       -0.0688
     37 C          -1.8338   10.4592    0.1290 C.1     1  LIG1       -0.1139
     38 H          -1.8086   11.4708    0.4617 H       1  LIG1        0.1232
@<TRIPOS>BOND
     1    13    12    1
     2    31    29    1
     3    30    29   ar
     4    30    26   ar
     5    12    11    3
     6    29    28   ar
     7    11     3    1
     8     9     7    1
     9    28    36    1
    10    28    27   ar
    11    26    17    1
    12    26    27   ar
    13    25    24    1
    14    24    23    3
    15    21    19    1
    16    17    16   ar
    17    17    18   ar
    18    23    16    1
    19    36    37    3
    20    16    15   ar
    21    18    14   ar
    22    27    32    1
    23     3     2   ar
    24     3     4   ar
    25     7     8    1
    26     7     2    1
    27     7    10    1
    28    37    38    1
    29    15    14   ar
    30    15    19    1
    31    14     4    1
    32     2     1   ar
    33    19    22    1
    34    19    20    1
    35     4     5   ar
    36    34    32    1
    37    32    35    1
    38    32    33    1
    39     1     5   ar
    40     1     6    1
