@<TRIPOS>MOLECULE
mol_data/opt/b3lyp/geoms/mol2/5ie5ie-.out
 26 27 0 0 0
SMALL
GASTEIGER

@<TRIPOS>ATOM
      1 C          -2.0018   -1.7060    0.7578 C.ar    1  LIG1       -0.0196
      2 C          -0.7584   -1.8373    0.2096 C.ar    1  LIG1       -0.0274
      3 C          -0.2130   -0.5587   -0.1923 C.ar    1  LIG1        0.0428
      4 C          -1.0586    0.5102    0.0790 C.ar    1  LIG1        0.0418
      5 S          -2.5360   -0.0577    0.8236 S.2     1  LIG1       -0.0946
      6 H          -2.6414   -2.4942    1.1312 H       1  LIG1        0.0696
      7 C          -0.0323   -3.1381    0.0179 C.3     1  LIG1       -0.0380
      8 H           0.9197   -3.1422    0.5599 H       1  LIG1        0.0278
      9 H           0.2033   -3.3059   -1.0385 H       1  LIG1        0.0278
     10 H          -0.6321   -3.9794    0.3735 H       1  LIG1        0.0278
     11 C           1.0389   -0.4409   -0.8564 C.1     1  LIG1       -0.0682
     12 C           2.1055   -0.3865   -1.4274 C.1     1  LIG1       -0.1139
     13 H           3.0363   -0.3257   -1.9421 H       1  LIG1        0.1232
     14 C          -0.8525    1.9289   -0.1805 C.ar    1  LIG1        0.0312
     15 C           0.2044    2.7335    0.1876 C.ar    1  LIG1       -0.0198
     16 C           0.0313    4.0945   -0.2704 C.ar    1  LIG1        0.0352
     17 C          -1.1486    4.2859   -0.9544 C.ar    1  LIG1       -0.0081
     18 S          -2.0670    2.8361   -1.0765 S.2     1  LIG1       -0.0946
     19 H          -1.5106    5.2087   -1.3843 H       1  LIG1        0.0706
     20 C           1.3884    2.3003    1.0018 C.3     1  LIG1       -0.0374
     21 H           1.6778    3.0895    1.7017 H       1  LIG1        0.0278
     22 H           2.2529    2.0913    0.3623 H       1  LIG1        0.0278
     23 H           1.1700    1.3896    1.5631 H       1  LIG1        0.0278
     24 C           0.9718    5.1340   -0.0208 C.1     1  LIG1       -0.0688
     25 C           1.7790    6.0087    0.1997 C.1     1  LIG1       -0.1139
     26 H           2.4849    6.7839    0.3884 H       1  LIG1        0.1232
@<TRIPOS>BOND
     1    13    12    1
     2    12    11    3
     3    19    17    1
     4    18    17   ar
     5    18    14   ar
     6     9     7    1
     7    17    16   ar
     8    11     3    1
     9    16    24    1
    10    16    15   ar
    11     3     4   ar
    12     3     2   ar
    13    14     4    1
    14    14    15   ar
    15    24    25    3
    16     7     2    1
    17     7    10    1
    18     7     8    1
    19     4     5   ar
    20    15    20    1
    21    25    26    1
    22     2     1   ar
    23    22    20    1
    24     1     5   ar
    25     1     6    1
    26    20    23    1
    27    20    21    1
