@<TRIPOS>MOLECULE
mol_data/opt/b3lyp/geoms/mol2/5ie5ie5ie5ie.out
 50 53 0 0 0
SMALL
GASTEIGER

@<TRIPOS>ATOM
      1 C          -1.2316   -1.4416    2.2972 C.ar    1  LIG1       -0.0196
      2 C          -0.8296   -1.7381    1.0265 C.ar    1  LIG1       -0.0274
      3 C          -0.4940   -0.5451    0.2797 C.ar    1  LIG1        0.0428
      4 C          -0.6390    0.6240    1.0169 C.ar    1  LIG1        0.0418
      5 S          -1.2005    0.2590    2.6326 S.2     1  LIG1       -0.0946
      6 H          -1.5480   -2.1350    3.0644 H       1  LIG1        0.0696
      7 C          -0.7554   -3.1208    0.4448 C.3     1  LIG1       -0.0380
      8 H           0.2634   -3.3580    0.1194 H       1  LIG1        0.0278
      9 H          -1.3995   -3.2126   -0.4364 H       1  LIG1        0.0278
     10 H          -1.0650   -3.8721    1.1753 H       1  LIG1        0.0278
     11 C          -0.1182   -0.5861   -1.0910 C.1     1  LIG1       -0.0682
     12 C           0.1892   -0.6647   -2.2597 C.1     1  LIG1       -0.1139
     13 H           0.4474   -0.7186   -3.2920 H       1  LIG1        0.1232
     14 C          -0.4009    2.0005    0.6028 C.ar    1  LIG1        0.0318
     15 C           0.7304    2.5527    0.0421 C.ar    1  LIG1       -0.0191
     16 C           0.5639    3.9571   -0.2483 C.ar    1  LIG1        0.0435
     17 C          -0.6763    4.4620    0.1241 C.ar    1  LIG1        0.0424
     18 S          -1.6656    3.2014    0.8114 S.2     1  LIG1       -0.0856
     19 C           2.0120    1.8209   -0.2307 C.3     1  LIG1       -0.0374
     20 H           2.8709    2.4567    0.0020 H       1  LIG1        0.0278
     21 H           2.0877    1.5361   -1.2857 H       1  LIG1        0.0278
     22 H           2.0765    0.9055    0.3606 H       1  LIG1        0.0278
     23 C           1.5712    4.7237   -0.8971 C.1     1  LIG1       -0.0682
     24 C           2.4473    5.3433   -1.4582 C.1     1  LIG1       -0.1139
     25 H           3.2051    5.8946   -1.9650 H       1  LIG1        0.1232
     26 C          -1.1878    5.8194   -0.0117 C.ar    1  LIG1        0.0318
     27 C          -0.6304    7.0035    0.4201 C.ar    1  LIG1       -0.0191
     28 C          -1.4408    8.1461    0.0697 C.ar    1  LIG1        0.0435
     29 C          -2.6172    7.8156   -0.5925 C.ar    1  LIG1        0.0424
     30 S          -2.7266    6.0900   -0.8154 S.2     1  LIG1       -0.0856
     31 C           0.6518    7.1339    1.1891 C.3     1  LIG1       -0.0374
     32 H           0.5485    7.8871    1.9755 H       1  LIG1        0.0278
     33 H           1.4739    7.4481    0.5370 H       1  LIG1        0.0278
     34 H           0.9384    6.1834    1.6429 H       1  LIG1        0.0278
     35 C          -1.0320    9.4801    0.3457 C.1     1  LIG1       -0.0682
     36 C          -0.6472   10.6021    0.5894 C.1     1  LIG1       -0.1139
     37 H          -0.3123   11.5943    0.7857 H       1  LIG1        0.1232
     38 C          -3.6672    8.6970   -1.0857 C.ar    1  LIG1        0.0312
     39 C          -4.3779    9.6650   -0.4087 C.ar    1  LIG1       -0.0198
     40 C          -5.3368   10.3273   -1.2653 C.ar    1  LIG1        0.0352
     41 C          -5.3365    9.8377   -2.5525 C.ar    1  LIG1       -0.0081
     42 S          -4.1784    8.5839   -2.7671 S.2     1  LIG1       -0.0946
     43 H          -5.9633   10.1585   -3.3722 H       1  LIG1        0.0706
     44 C          -4.2387    9.9926    1.0492 C.3     1  LIG1       -0.0374
     45 H          -5.2205   10.1900    1.4892 H       1  LIG1        0.0278
     46 H          -3.6242   10.8875    1.1964 H       1  LIG1        0.0278
     47 H          -3.7625    9.1761    1.5955 H       1  LIG1        0.0278
     48 C          -6.2061   11.3628   -0.8186 C.1     1  LIG1       -0.0688
     49 C          -6.9404   12.2411   -0.4253 C.1     1  LIG1       -0.1139
     50 H          -7.5894   13.0152   -0.0873 H       1  LIG1        0.1232
@<TRIPOS>BOND
     1    43    41    1
     2    13    12    1
     3    42    41   ar
     4    42    38   ar
     5    41    40   ar
     6    12    11    3
     7    25    24    1
     8    24    23    3
     9    21    19    1
    10    40    48    1
    11    40    39   ar
    12    11     3    1
    13    38    29    1
    14    38    39   ar
    15    23    16    1
    16    48    49    3
    17    30    29   ar
    18    30    26   ar
    19    29    28   ar
    20     9     7    1
    21    49    50    1
    22    39    44    1
    23    16    15   ar
    24    16    17   ar
    25    19    20    1
    26    19    15    1
    27    19    22    1
    28    26    17    1
    29    26    27   ar
    30    15    14   ar
    31    28    35    1
    32    28    27   ar
    33     8     7    1
    34    17    18   ar
    35     3     4   ar
    36     3     2   ar
    37    35    36    3
    38    27    31    1
    39     7     2    1
    40     7    10    1
    41    33    31    1
    42    36    37    1
    43    14    18   ar
    44    14     4    1
    45     4     5   ar
    46     2     1   ar
    47    44    46    1
    48    44    45    1
    49    44    47    1
    50    31    34    1
    51    31    32    1
    52     1     5   ar
    53     1     6    1
