@<TRIPOS>MOLECULE
mol_data/opt/b3lyp/geoms/mol2/5ie5ie.out
 26 27 0 0 0
SMALL
GASTEIGER

@<TRIPOS>ATOM
      1 C          -2.0053   -1.7088    0.7493 C.ar    1  LIG1       -0.0196
      2 C          -0.7581   -1.8381    0.2093 C.ar    1  LIG1       -0.0274
      3 C          -0.2111   -0.5583   -0.1868 C.ar    1  LIG1        0.0428
      4 C          -1.0594    0.5093    0.0807 C.ar    1  LIG1        0.0418
      5 S          -2.5413   -0.0610    0.8144 S.2     1  LIG1       -0.0946
      6 H          -2.6469   -2.4979    1.1170 H       1  LIG1        0.0696
      7 C          -0.0299   -3.1380    0.0200 C.3     1  LIG1       -0.0380
      8 H           0.9202   -3.1412    0.5654 H       1  LIG1        0.0278
      9 H           0.2096   -3.3054   -1.0357 H       1  LIG1        0.0278
     10 H          -0.6300   -3.9801    0.3733 H       1  LIG1        0.0278
     11 C           1.0452   -0.4385   -0.8421 C.1     1  LIG1       -0.0682
     12 C           2.1157   -0.3822   -1.4056 C.1     1  LIG1       -0.1139
     13 H           3.0499   -0.3198   -1.9138 H       1  LIG1        0.1232
     14 C          -0.8523    1.9287   -0.1750 C.ar    1  LIG1        0.0312
     15 C           0.2018    2.7330    0.2017 C.ar    1  LIG1       -0.0198
     16 C           0.0315    4.0946   -0.2557 C.ar    1  LIG1        0.0352
     17 C          -1.1435    4.2866   -0.9478 C.ar    1  LIG1       -0.0081
     18 S          -2.0607    2.8368   -1.0782 S.2     1  LIG1       -0.0946
     19 H          -1.5027    5.2099   -1.3790 H       1  LIG1        0.0706
     20 C           1.3800    2.2994    1.0238 C.3     1  LIG1       -0.0374
     21 H           1.6605    3.0858    1.7305 H       1  LIG1        0.0278
     22 H           2.2509    2.0970    0.3908 H       1  LIG1        0.0278
     23 H           1.1601    1.3849    1.5783 H       1  LIG1        0.0278
     24 C           0.9701    5.1338    0.0020 C.1     1  LIG1       -0.0688
     25 C           1.7756    6.0083    0.2295 C.1     1  LIG1       -0.1139
     26 H           2.4801    6.7833    0.4242 H       1  LIG1        0.1232
@<TRIPOS>BOND
     1    13    12    1
     2    12    11    3
     3    19    17    1
     4    18    17   ar
     5    18    14   ar
     6     9     7    1
     7    17    16   ar
     8    11     3    1
     9    16    24    1
    10    16    15   ar
    11     3     4   ar
    12     3     2   ar
    13    14     4    1
    14    14    15   ar
    15    24    25    3
    16     7     2    1
    17     7    10    1
    18     7     8    1
    19     4     5   ar
    20    15    20    1
    21     2     1   ar
    22    25    26    1
    23    22    20    1
    24     1     5   ar
    25     1     6    1
    26    20    23    1
    27    20    21    1
