@<TRIPOS>MOLECULE
mol_data/opt/b3lyp/geoms/mol2/5ie5ie-5ie5ie.out
 50 53 0 0 0
SMALL
GASTEIGER

@<TRIPOS>ATOM
      1 C          -1.2014   -1.4478    2.2961 C.ar    1  LIG1       -0.0196
      2 C          -0.8071   -1.7398    1.0219 C.ar    1  LIG1       -0.0274
      3 C          -0.4792   -0.5439    0.2764 C.ar    1  LIG1        0.0428
      4 C          -0.6220    0.6227    1.0179 C.ar    1  LIG1        0.0418
      5 S          -1.1719    0.2518    2.6362 S.2     1  LIG1       -0.0946
      6 H          -1.5111   -2.1443    3.0634 H       1  LIG1        0.0696
      7 C          -0.7335   -3.1207    0.4358 C.3     1  LIG1       -0.0380
      8 H           0.2837   -3.3547    0.1033 H       1  LIG1        0.0278
      9 H          -1.3830   -3.2113   -0.4416 H       1  LIG1        0.0278
     10 H          -1.0368   -3.8748    1.1661 H       1  LIG1        0.0278
     11 C          -0.1124   -0.5801   -1.0969 C.1     1  LIG1       -0.0682
     12 C           0.1875   -0.6547   -2.2678 C.1     1  LIG1       -0.1139
     13 H           0.4392   -0.7050   -3.3019 H       1  LIG1        0.1232
     14 C          -0.3898    2.0010    0.6063 C.ar    1  LIG1        0.0318
     15 C           0.7364    2.5575    0.0397 C.ar    1  LIG1       -0.0191
     16 C           0.5647    3.9624   -0.2455 C.ar    1  LIG1        0.0435
     17 C          -0.6743    4.4632    0.1366 C.ar    1  LIG1        0.0424
     18 S          -1.6560    3.1983    0.8267 S.2     1  LIG1       -0.0856
     19 C           2.0179    1.8296   -0.2438 C.3     1  LIG1       -0.0374
     20 H           2.8768    2.4669   -0.0151 H       1  LIG1        0.0278
     21 H           2.0871    1.5478   -1.3000 H       1  LIG1        0.0278
     22 H           2.0886    0.9127    0.3446 H       1  LIG1        0.0278
     23 C           1.5659    4.7334   -0.8984 C.1     1  LIG1       -0.0682
     24 C           2.4369    5.3567   -1.4634 C.1     1  LIG1       -0.1139
     25 H           3.1900    5.9114   -1.9734 H       1  LIG1        0.1232
     26 C          -1.1899    5.8198    0.0081 C.ar    1  LIG1        0.0318
     27 C          -0.6328    7.0039    0.4402 C.ar    1  LIG1       -0.0191
     28 C          -1.4481    8.1455    0.0983 C.ar    1  LIG1        0.0435
     29 C          -2.6277    7.8143   -0.5578 C.ar    1  LIG1        0.0424
     30 S          -2.7342    6.0890   -0.7853 S.2     1  LIG1       -0.0856
     31 C           0.6538    7.1351    1.2016 C.3     1  LIG1       -0.0374
     32 H           0.5534    7.8853    1.9913 H       1  LIG1        0.0278
     33 H           1.4709    7.4540    0.5455 H       1  LIG1        0.0278
     34 H           0.9458    6.1839    1.6502 H       1  LIG1        0.0278
     35 C          -1.0409    9.4798    0.3758 C.1     1  LIG1       -0.0682
     36 C          -0.6574   10.6020    0.6206 C.1     1  LIG1       -0.1139
     37 H          -0.3236   11.5943    0.8180 H       1  LIG1        0.1232
     38 C          -3.6828    8.6945   -1.0421 C.ar    1  LIG1        0.0312
     39 C          -4.3917    9.6588   -0.3579 C.ar    1  LIG1       -0.0198
     40 C          -5.3573   10.3213   -1.2068 C.ar    1  LIG1        0.0352
     41 C          -5.3636    9.8354   -2.4955 C.ar    1  LIG1       -0.0081
     42 S          -4.2039    8.5850   -2.7207 S.2     1  LIG1       -0.0946
     43 H          -5.9962   10.1571   -3.3103 H       1  LIG1        0.0706
     44 C          -4.2444    9.9825    1.1000 C.3     1  LIG1       -0.0374
     45 H          -5.2240   10.1760    1.5466 H       1  LIG1        0.0278
     46 H          -3.6313   10.8785    1.2461 H       1  LIG1        0.0278
     47 H          -3.7628    9.1656    1.6410 H       1  LIG1        0.0278
     48 C          -6.2264   11.3533   -0.7519 C.1     1  LIG1       -0.0688
     49 C          -6.9604   12.2287   -0.3515 C.1     1  LIG1       -0.1139
     50 H          -7.6093   13.0002   -0.0073 H       1  LIG1        0.1232
@<TRIPOS>BOND
     1    43    41    1
     2    13    12    1
     3    42    41   ar
     4    42    38   ar
     5    41    40   ar
     6    12    11    3
     7    25    24    1
     8    24    23    3
     9    21    19    1
    10    40    48    1
    11    40    39   ar
    12    11     3    1
    13    38    29    1
    14    38    39   ar
    15    23    16    1
    16    30    29   ar
    17    30    26   ar
    18    48    49    3
    19    29    28   ar
    20     9     7    1
    21    39    44    1
    22    49    50    1
    23    16    15   ar
    24    16    17   ar
    25    19    20    1
    26    19    15    1
    27    19    22    1
    28    26    17    1
    29    26    27   ar
    30    15    14   ar
    31    28    35    1
    32    28    27   ar
    33     8     7    1
    34    17    18   ar
    35     3     4   ar
    36     3     2   ar
    37    35    36    3
    38     7     2    1
    39     7    10    1
    40    27    31    1
    41    33    31    1
    42    14    18   ar
    43    14     4    1
    44    36    37    1
    45     4     5   ar
    46     2     1   ar
    47    44    46    1
    48    44    45    1
    49    44    47    1
    50    31    34    1
    51    31    32    1
    52     1     5   ar
    53     1     6    1
