@<TRIPOS>MOLECULE
mol_data/opt/b3lyp/geoms/mol2/5ie5ie-5ie5ie-.out
 50 53 0 0 0
SMALL
GASTEIGER

@<TRIPOS>ATOM
      1 C          -1.2044   -1.4428    2.3045 C.ar    1  LIG1       -0.0196
      2 C          -0.8105   -1.7379    1.0310 C.ar    1  LIG1       -0.0274
      3 C          -0.4822   -0.5438    0.2827 C.ar    1  LIG1        0.0428
      4 C          -0.6244    0.6246    1.0216 C.ar    1  LIG1        0.0418
      5 S          -1.1741    0.2575    2.6409 S.2     1  LIG1       -0.0946
      6 H          -1.5143   -2.1374    3.0735 H       1  LIG1        0.0696
      7 C          -0.7376   -3.1201    0.4479 C.3     1  LIG1       -0.0380
      8 H           0.2795   -3.3552    0.1156 H       1  LIG1        0.0278
      9 H          -1.3874   -3.2125   -0.4289 H       1  LIG1        0.0278
     10 H          -1.0409   -3.8724    1.1801 H       1  LIG1        0.0278
     11 C          -0.1157   -0.5833   -1.0907 C.1     1  LIG1       -0.0682
     12 C           0.1839   -0.6608   -2.2614 C.1     1  LIG1       -0.1139
     13 H           0.4351   -0.7136   -3.2955 H       1  LIG1        0.1232
     14 C          -0.3916    2.0018    0.6067 C.ar    1  LIG1        0.0318
     15 C           0.7347    2.5564    0.0384 C.ar    1  LIG1       -0.0191
     16 C           0.5638    3.9607   -0.2498 C.ar    1  LIG1        0.0435
     17 C          -0.6748    4.4631    0.1317 C.ar    1  LIG1        0.0424
     18 S          -1.6569    3.2003    0.8252 S.2     1  LIG1       -0.0856
     19 C           2.0157    1.8271   -0.2439 C.3     1  LIG1       -0.0374
     20 H           2.8751    2.4644   -0.0170 H       1  LIG1        0.0278
     21 H           2.0843    1.5429   -1.2996 H       1  LIG1        0.0278
     22 H           2.0862    0.9115    0.3465 H       1  LIG1        0.0278
     23 C           1.5651    4.7296   -0.9050 C.1     1  LIG1       -0.0682
     24 C           2.4362    5.3511   -1.4718 C.1     1  LIG1       -0.1139
     25 H           3.1894    5.9042   -1.9833 H       1  LIG1        0.1232
     26 C          -1.1896    5.8197    0.0004 C.ar    1  LIG1        0.0318
     27 C          -0.6315    7.0045    0.4295 C.ar    1  LIG1       -0.0191
     28 C          -1.4463    8.1458    0.0854 C.ar    1  LIG1        0.0435
     29 C          -2.6264    7.8138   -0.5694 C.ar    1  LIG1        0.0424
     30 S          -2.7341    6.0881   -0.7930 S.2     1  LIG1       -0.0856
     31 C           0.6555    7.1365    1.1900 C.3     1  LIG1       -0.0374
     32 H           0.5560    7.8887    1.9779 H       1  LIG1        0.0278
     33 H           1.4726    7.4530    0.5328 H       1  LIG1        0.0278
     34 H           0.9470    6.1862    1.6410 H       1  LIG1        0.0278
     35 C          -1.0380    9.4804    0.3596 C.1     1  LIG1       -0.0682
     36 C          -0.6536   10.6029    0.6017 C.1     1  LIG1       -0.1139
     37 H          -0.3192   11.5955    0.7966 H       1  LIG1        0.1232
     38 C          -3.6812    8.6937   -1.0549 C.ar    1  LIG1        0.0312
     39 C          -4.3889    9.6600   -0.3724 C.ar    1  LIG1       -0.0198
     40 C          -5.3546   10.3213   -1.2220 C.ar    1  LIG1        0.0352
     41 C          -5.3622    9.8327   -2.5096 C.ar    1  LIG1       -0.0081
     42 S          -4.2034    8.5810   -2.7330 S.2     1  LIG1       -0.0946
     43 H          -5.9950   10.1531   -3.3248 H       1  LIG1        0.0706
     44 C          -4.2406    9.9865    1.0849 C.3     1  LIG1       -0.0374
     45 H          -5.2198   10.1816    1.5316 H       1  LIG1        0.0278
     46 H          -3.6269   10.8824    1.2288 H       1  LIG1        0.0278
     47 H          -3.7593    9.1704    1.6272 H       1  LIG1        0.0278
     48 C          -6.2227   11.3549   -0.7687 C.1     1  LIG1       -0.0688
     49 C          -6.9558   12.2317   -0.3698 C.1     1  LIG1       -0.1139
     50 H          -7.6039   13.0044   -0.0269 H       1  LIG1        0.1232
@<TRIPOS>BOND
     1    43    41    1
     2    13    12    1
     3    42    41   ar
     4    42    38   ar
     5    41    40   ar
     6    12    11    3
     7    25    24    1
     8    24    23    3
     9    21    19    1
    10    40    48    1
    11    40    39   ar
    12    11     3    1
    13    38    29    1
    14    38    39   ar
    15    23    16    1
    16    30    29   ar
    17    30    26   ar
    18    48    49    3
    19    29    28   ar
    20     9     7    1
    21    39    44    1
    22    49    50    1
    23    16    15   ar
    24    16    17   ar
    25    19    20    1
    26    19    15    1
    27    19    22    1
    28    26    17    1
    29    26    27   ar
    30    15    14   ar
    31    28    35    1
    32    28    27   ar
    33     8     7    1
    34    17    18   ar
    35     3     4   ar
    36     3     2   ar
    37    35    36    3
    38    27    31    1
    39     7     2    1
    40     7    10    1
    41    33    31    1
    42    36    37    1
    43    14    18   ar
    44    14     4    1
    45     4     5   ar
    46     2     1   ar
    47    44    46    1
    48    44    45    1
    49    44    47    1
    50    31    34    1
    51    31    32    1
    52     1     5   ar
    53     1     6    1
