@<TRIPOS>MOLECULE
mol_data/opt/b3lyp/geoms/mol2/5ie5ie-5ie-.out
 38 40 0 0 0
SMALL
GASTEIGER

@<TRIPOS>ATOM
      1 C          -1.7236   -1.6366    1.4983 C.ar    1  LIG1       -0.0196
      2 C          -0.8015   -1.8547    0.5153 C.ar    1  LIG1       -0.0274
      3 C          -0.2982   -0.6129   -0.0308 C.ar    1  LIG1        0.0428
      4 C          -0.8472    0.5142    0.5688 C.ar    1  LIG1        0.0418
      5 S          -1.9954    0.0483    1.8033 S.2     1  LIG1       -0.0946
      6 H          -2.2653   -2.3802    2.0670 H       1  LIG1        0.0696
      7 C          -0.3623   -3.2057    0.0278 C.3     1  LIG1       -0.0380
      8 H           0.7167   -3.3417    0.1600 H       1  LIG1        0.0278
      9 H          -0.5686   -3.3245   -1.0413 H       1  LIG1        0.0278
     10 H          -0.8765   -4.0047    0.5672 H       1  LIG1        0.0278
     11 C           0.6175   -0.5753   -1.1180 C.1     1  LIG1       -0.0682
     12 C           1.3902   -0.5878   -2.0504 C.1     1  LIG1       -0.1139
     13 H           2.0594   -0.5843   -2.8794 H       1  LIG1        0.1232
     14 C          -0.5893    1.9194    0.2832 C.ar    1  LIG1        0.0318
     15 C           0.6147    2.5885    0.2425 C.ar    1  LIG1       -0.0191
     16 C           0.4520    3.9819   -0.0995 C.ar    1  LIG1        0.0435
     17 C          -0.8721    4.3620   -0.2826 C.ar    1  LIG1        0.0424
     18 S          -1.9335    2.9964   -0.0621 S.2     1  LIG1       -0.0856
     19 C           1.9565    1.9829    0.5350 C.3     1  LIG1       -0.0374
     20 H           2.5767    2.6852    1.0991 H       1  LIG1        0.0278
     21 H           2.4904    1.7391   -0.3899 H       1  LIG1        0.0278
     22 H           1.8553    1.0587    1.1074 H       1  LIG1        0.0278
     23 C           1.5601    4.8571   -0.2710 C.1     1  LIG1       -0.0682
     24 C           2.5270    5.5714   -0.4168 C.1     1  LIG1       -0.1139
     25 H           3.3708    6.2053   -0.5624 H       1  LIG1        0.1232
     26 C          -1.4083    5.6734   -0.6221 C.ar    1  LIG1        0.0312
     27 C          -1.2039    6.8837    0.0052 C.ar    1  LIG1       -0.0198
     28 C          -1.9200    7.9571   -0.6479 C.ar    1  LIG1        0.0352
     29 C          -2.6526    7.5322   -1.7340 C.ar    1  LIG1       -0.0081
     30 S          -2.4872    5.8413   -2.0039 S.2     1  LIG1       -0.0946
     31 H          -3.2754    8.1372   -2.3772 H       1  LIG1        0.0706
     32 C          -0.3836    7.0977    1.2435 C.3     1  LIG1       -0.0374
     33 H          -0.8708    7.8233    1.9011 H       1  LIG1        0.0278
     34 H           0.6095    7.4891    0.9970 H       1  LIG1        0.0278
     35 H          -0.2402    6.1635    1.7900 H       1  LIG1        0.0278
     36 C          -1.8887    9.3088   -0.2014 C.1     1  LIG1       -0.0688
     37 C          -1.8542   10.4538    0.1899 C.1     1  LIG1       -0.1139
     38 H          -1.8283   11.4640    0.5271 H       1  LIG1        0.1232
@<TRIPOS>BOND
     1    13    12    1
     2    31    29    1
     3    12    11    3
     4    30    29   ar
     5    30    26   ar
     6    29    28   ar
     7    11     3    1
     8     9     7    1
     9    28    36    1
    10    28    27   ar
    11    26    17    1
    12    26    27   ar
    13    25    24    1
    14    24    23    3
    15    21    19    1
    16    17    16   ar
    17    17    18   ar
    18    23    16    1
    19    36    37    3
    20    16    15   ar
    21    18    14   ar
    22     3     2   ar
    23     3     4   ar
    24    27    32    1
    25     7     8    1
    26     7     2    1
    27     7    10    1
    28    37    38    1
    29    15    14   ar
    30    15    19    1
    31    14     4    1
    32     2     1   ar
    33    19    20    1
    34    19    22    1
    35     4     5   ar
    36    34    32    1
    37    32    35    1
    38    32    33    1
    39     1     5   ar
    40     1     6    1
