@<TRIPOS>MOLECULE
mol_data/opt/b3lyp/geoms/mol2/5ie5ie5ie-5ie-.out
 50 53 0 0 0
SMALL
GASTEIGER

@<TRIPOS>ATOM
      1 C          -1.2569   -1.4412    2.2904 C.ar    1  LIG1       -0.0196
      2 C          -0.8432   -1.7383    1.0236 C.ar    1  LIG1       -0.0274
      3 C          -0.5000   -0.5457    0.2797 C.ar    1  LIG1        0.0428
      4 C          -0.6512    0.6237    1.0152 C.ar    1  LIG1        0.0418
      5 S          -1.2279    0.2594    2.6257 S.2     1  LIG1       -0.0946
      6 H          -1.5808   -2.1343    3.0549 H       1  LIG1        0.0696
      7 C          -0.7641   -3.1212    0.4430 C.3     1  LIG1       -0.0380
      8 H           0.2576   -3.3590    0.1276 H       1  LIG1        0.0278
      9 H          -1.3998   -3.2128   -0.4442 H       1  LIG1        0.0278
     10 H          -1.0811   -3.8721    1.1708 H       1  LIG1        0.0278
     11 C          -0.1117   -0.5872   -1.0876 C.1     1  LIG1       -0.0682
     12 C           0.2064   -0.6663   -2.2534 C.1     1  LIG1       -0.1139
     13 H           0.4741   -0.7207   -3.2832 H       1  LIG1        0.1232
     14 C          -0.4085    2.0000    0.6030 C.ar    1  LIG1        0.0318
     15 C           0.7281    2.5513    0.0521 C.ar    1  LIG1       -0.0191
     16 C           0.5652    3.9558   -0.2398 C.ar    1  LIG1        0.0435
     17 C          -0.6778    4.4617    0.1217 C.ar    1  LIG1        0.0424
     18 S          -1.6740    3.2019    0.8005 S.2     1  LIG1       -0.0856
     19 C           2.0116    1.8186   -0.2092 C.3     1  LIG1       -0.0374
     20 H           2.8688    2.4539    0.0313 H       1  LIG1        0.0278
     21 H           2.0965    1.5337   -1.2634 H       1  LIG1        0.0278
     22 H           2.0702    0.9032    0.3828 H       1  LIG1        0.0278
     23 C           1.5788    4.7217   -0.8796 C.1     1  LIG1       -0.0682
     24 C           2.4604    5.3405   -1.4329 C.1     1  LIG1       -0.1139
     25 H           3.2232    5.8912   -1.9328 H       1  LIG1        0.1232
     26 C          -1.1871    5.8194   -0.0189 C.ar    1  LIG1        0.0318
     27 C          -0.6331    7.0031    0.4182 C.ar    1  LIG1       -0.0191
     28 C          -1.4394    8.1462    0.0603 C.ar    1  LIG1        0.0435
     29 C          -2.6096    7.8166   -0.6131 C.ar    1  LIG1        0.0424
     30 S          -2.7180    6.0910   -0.8372 S.2     1  LIG1       -0.0856
     31 C           0.6419    7.1326    1.1992 C.3     1  LIG1       -0.0374
     32 H           0.5318    7.8856    1.9848 H       1  LIG1        0.0278
     33 H           1.4702    7.4466    0.5548 H       1  LIG1        0.0278
     34 H           0.9238    6.1819    1.6554 H       1  LIG1        0.0278
     35 C          -1.0323    9.4800    0.3402 C.1     1  LIG1       -0.0682
     36 C          -0.6491   10.6017    0.5878 C.1     1  LIG1       -0.1139
     37 H          -0.3153   11.5935    0.7874 H       1  LIG1        0.1232
     38 C          -3.6543    8.6987   -1.1163 C.ar    1  LIG1        0.0312
     39 C          -4.3709    9.6670   -0.4460 C.ar    1  LIG1       -0.0198
     40 C          -5.3212   10.3299   -1.3116 C.ar    1  LIG1        0.0352
     41 C          -5.3088    9.8405   -2.5989 C.ar    1  LIG1       -0.0081
     42 S          -4.1495    8.5860   -2.8026 S.2     1  LIG1       -0.0946
     43 H          -5.9275   10.1619   -3.4245 H       1  LIG1        0.0706
     44 C          -4.2454    9.9944    1.0132 C.3     1  LIG1       -0.0374
     45 H          -5.2313   10.1921    1.4439 H       1  LIG1        0.0278
     46 H          -3.6320   10.8890    1.1663 H       1  LIG1        0.0278
     47 H          -3.7748    9.1776    1.5639 H       1  LIG1        0.0278
     48 C          -6.1942   11.3658   -0.8732 C.1     1  LIG1       -0.0688
     49 C          -6.9316   12.2446   -0.4868 C.1     1  LIG1       -0.1139
     50 H          -7.5835   13.0189   -0.1548 H       1  LIG1        0.1232
@<TRIPOS>BOND
     1    43    41    1
     2    13    12    1
     3    42    41   ar
     4    42    38   ar
     5    41    40   ar
     6    12    11    3
     7    25    24    1
     8    24    23    3
     9    40    48    1
    10    40    39   ar
    11    21    19    1
    12    38    29    1
    13    38    39   ar
    14    11     3    1
    15    23    16    1
    16    48    49    3
    17    30    29   ar
    18    30    26   ar
    19    29    28   ar
    20    49    50    1
    21    39    44    1
    22     9     7    1
    23    16    15   ar
    24    16    17   ar
    25    19    20    1
    26    19    15    1
    27    19    22    1
    28    26    17    1
    29    26    27   ar
    30    15    14   ar
    31    28    35    1
    32    28    27   ar
    33    17    18   ar
    34     8     7    1
    35     3     4   ar
    36     3     2   ar
    37    35    36    3
    38    27    31    1
    39     7     2    1
    40     7    10    1
    41    33    31    1
    42    36    37    1
    43    14    18   ar
    44    14     4    1
    45    44    46    1
    46    44    45    1
    47    44    47    1
    48     4     5   ar
    49     2     1   ar
    50    31    34    1
    51    31    32    1
    52     1     5   ar
    53     1     6    1
