@<TRIPOS>MOLECULE
mol_data/opt/b3lyp/geoms/mol2/5ie5ie5ie5ie-.out
 50 53 0 0 0
SMALL
GASTEIGER

@<TRIPOS>ATOM
      1 C          -1.2339   -1.4356    2.3072 C.ar    1  LIG1       -0.0196
      2 C          -0.8237   -1.7348    1.0397 C.ar    1  LIG1       -0.0274
      3 C          -0.4859   -0.5432    0.2918 C.ar    1  LIG1        0.0428
      4 C          -0.6375    0.6276    1.0250 C.ar    1  LIG1        0.0418
      5 S          -1.2080    0.2658    2.6383 S.2     1  LIG1       -0.0946
      6 H          -1.5536   -2.1277    3.0744 H       1  LIG1        0.0696
      7 C          -0.7434   -3.1189    0.4622 C.3     1  LIG1       -0.0380
      8 H           0.2779   -3.3552    0.1441 H       1  LIG1        0.0278
      9 H          -1.3816   -3.2141   -0.4229 H       1  LIG1        0.0278
     10 H          -1.0565   -3.8688    1.1927 H       1  LIG1        0.0278
     11 C          -0.1022   -0.5872   -1.0767 C.1     1  LIG1       -0.0682
     12 C           0.2121   -0.6685   -2.2434 C.1     1  LIG1       -0.1139
     13 H           0.4761   -0.7247   -3.2740 H       1  LIG1        0.1232
     14 C          -0.3994    2.0035    0.6088 C.ar    1  LIG1        0.0318
     15 C           0.7337    2.5562    0.0523 C.ar    1  LIG1       -0.0191
     16 C           0.5664    3.9597   -0.2421 C.ar    1  LIG1        0.0435
     17 C          -0.6765    4.4634    0.1229 C.ar    1  LIG1        0.0424
     18 S          -1.6671    3.2028    0.8083 S.2     1  LIG1       -0.0856
     19 C           2.0181    1.8261   -0.2120 C.3     1  LIG1       -0.0374
     20 H           2.8746    2.4640    0.0239 H       1  LIG1        0.0278
     21 H           2.0999    1.5390   -1.2659 H       1  LIG1        0.0278
     22 H           2.0811    0.9122    0.3817 H       1  LIG1        0.0278
     23 C           1.5756    4.7265   -0.8876 C.1     1  LIG1       -0.0682
     24 C           2.4535    5.3463   -1.4457 C.1     1  LIG1       -0.1139
     25 H           3.2130    5.8978   -1.9498 H       1  LIG1        0.1232
     26 C          -1.1894    5.8197   -0.0187 C.ar    1  LIG1        0.0318
     27 C          -0.6364    7.0056    0.4137 C.ar    1  LIG1       -0.0191
     28 C          -1.4466    8.1460    0.0564 C.ar    1  LIG1        0.0435
     29 C          -2.6188    7.8123   -0.6117 C.ar    1  LIG1        0.0424
     30 S          -2.7242    6.0861   -0.8315 S.2     1  LIG1       -0.0856
     31 C           0.6414    7.1396    1.1894 C.3     1  LIG1       -0.0374
     32 H           0.5326    7.8942    1.9737 H       1  LIG1        0.0278
     33 H           1.4665    7.4539    0.5412 H       1  LIG1        0.0278
     34 H           0.9271    6.1906    1.6467 H       1  LIG1        0.0278
     35 C          -1.0416    9.4814    0.3318 C.1     1  LIG1       -0.0682
     36 C          -0.6601   10.6046    0.5753 C.1     1  LIG1       -0.1139
     37 H          -0.3281   11.5977    0.7713 H       1  LIG1        0.1232
     38 C          -3.6673    8.6910   -1.1126 C.ar    1  LIG1        0.0312
     39 C          -4.3834    9.6592   -0.4415 C.ar    1  LIG1       -0.0198
     40 C          -5.3384   10.3183   -1.3048 C.ar    1  LIG1        0.0352
     41 C          -5.3300    9.8263   -2.5911 C.ar    1  LIG1       -0.0081
     42 S          -4.1687    8.5739   -2.7968 S.2     1  LIG1       -0.0946
     43 H          -5.9527   10.1446   -3.4149 H       1  LIG1        0.0706
     44 C          -4.2530    9.9896    1.0166 C.3     1  LIG1       -0.0374
     45 H          -5.2377   10.1858    1.4507 H       1  LIG1        0.0278
     46 H          -3.6412   10.8860    1.1656 H       1  LIG1        0.0278
     47 H          -3.7783    9.1751    1.5670 H       1  LIG1        0.0278
     48 C          -6.2120   11.3532   -0.8651 C.1     1  LIG1       -0.0688
     49 C          -6.9498   12.2311   -0.4776 C.1     1  LIG1       -0.1139
     50 H          -7.6021   13.0049   -0.1449 H       1  LIG1        0.1232
@<TRIPOS>BOND
     1    43    41    1
     2    13    12    1
     3    42    41   ar
     4    42    38   ar
     5    41    40   ar
     6    12    11    3
     7    25    24    1
     8    24    23    3
     9    40    48    1
    10    40    39   ar
    11    21    19    1
    12    38    29    1
    13    38    39   ar
    14    11     3    1
    15    23    16    1
    16    48    49    3
    17    30    29   ar
    18    30    26   ar
    19    29    28   ar
    20    49    50    1
    21    39    44    1
    22     9     7    1
    23    16    15   ar
    24    16    17   ar
    25    19    20    1
    26    19    15    1
    27    19    22    1
    28    26    17    1
    29    26    27   ar
    30    15    14   ar
    31    28    35    1
    32    28    27   ar
    33    17    18   ar
    34     8     7    1
    35     3     4   ar
    36     3     2   ar
    37    35    36    3
    38    27    31    1
    39     7     2    1
    40     7    10    1
    41    33    31    1
    42    36    37    1
    43    14    18   ar
    44    14     4    1
    45    44    46    1
    46    44    45    1
    47    44    47    1
    48     4     5   ar
    49     2     1   ar
    50    31    34    1
    51    31    32    1
    52     1     5   ar
    53     1     6    1
