@<TRIPOS>MOLECULE
mol_data/opt/b3lyp/geoms/mol2/5ie5ie-5ie.out
 38 40 0 0 0
SMALL
GASTEIGER

@<TRIPOS>ATOM
      1 C          -1.7400   -1.6287    1.5006 C.ar    1  LIG1       -0.0196
      2 C          -0.8149   -1.8519    0.5216 C.ar    1  LIG1       -0.0274
      3 C          -0.3068   -0.6129   -0.0266 C.ar    1  LIG1        0.0428
      4 C          -0.8552    0.5173    0.5676 C.ar    1  LIG1        0.0418
      5 S          -2.0091    0.0578    1.7993 S.2     1  LIG1       -0.0946
      6 H          -2.2854   -2.3692    2.0696 H       1  LIG1        0.0696
      7 C          -0.3770   -3.2054    0.0398 C.3     1  LIG1       -0.0380
      8 H           0.7011   -3.3436    0.1765 H       1  LIG1        0.0278
      9 H          -0.5796   -3.3270   -1.0298 H       1  LIG1        0.0278
     10 H          -0.8952   -4.0016    0.5797 H       1  LIG1        0.0278
     11 C           0.6130   -0.5809   -1.1105 C.1     1  LIG1       -0.0682
     12 C           1.3891   -0.5981   -2.0400 C.1     1  LIG1       -0.1139
     13 H           2.0614   -0.5989   -2.8665 H       1  LIG1        0.1232
     14 C          -0.5931    1.9210    0.2786 C.ar    1  LIG1        0.0318
     15 C           0.6126    2.5873    0.2405 C.ar    1  LIG1       -0.0191
     16 C           0.4543    3.9800   -0.1065 C.ar    1  LIG1        0.0435
     17 C          -0.8682    4.3625   -0.2958 C.ar    1  LIG1        0.0424
     18 S          -1.9334    2.9999   -0.0752 S.2     1  LIG1       -0.0856
     19 C           1.9519    1.9796    0.5397 C.3     1  LIG1       -0.0374
     20 H           2.5716    2.6822    1.1041 H       1  LIG1        0.0278
     21 H           2.4888    1.7320   -0.3824 H       1  LIG1        0.0278
     22 H           1.8465    1.0573    1.1145 H       1  LIG1        0.0278
     23 C           1.5650    4.8522   -0.2766 C.1     1  LIG1       -0.0682
     24 C           2.5342    5.5637   -0.4209 C.1     1  LIG1       -0.1139
     25 H           3.3800    6.1952   -0.5652 H       1  LIG1        0.1232
     26 C          -1.4002    5.6740   -0.6414 C.ar    1  LIG1        0.0312
     27 C          -1.1953    6.8858   -0.0171 C.ar    1  LIG1       -0.0198
     28 C          -1.9065    7.9588   -0.6762 C.ar    1  LIG1        0.0352
     29 C          -2.6361    7.5322   -1.7637 C.ar    1  LIG1       -0.0081
     30 S          -2.4737    5.8401   -2.0276 S.2     1  LIG1       -0.0946
     31 H          -3.2551    8.1366   -2.4111 H       1  LIG1        0.0706
     32 C          -0.3791    7.1019    1.2235 C.3     1  LIG1       -0.0374
     33 H          -0.8673    7.8305    1.8771 H       1  LIG1        0.0278
     34 H           0.6156    7.4906    0.9796 H       1  LIG1        0.0278
     35 H          -0.2396    6.1691    1.7734 H       1  LIG1        0.0278
     36 C          -1.8737    9.3119   -0.2339 C.1     1  LIG1       -0.0688
     37 C          -1.8380   10.4580    0.1539 C.1     1  LIG1       -0.1139
     38 H          -1.8110   11.4691    0.4880 H       1  LIG1        0.1232
@<TRIPOS>BOND
     1    13    12    1
     2    31    29    1
     3    12    11    3
     4    30    29   ar
     5    30    26   ar
     6    29    28   ar
     7    11     3    1
     8     9     7    1
     9    28    36    1
    10    28    27   ar
    11    26    17    1
    12    26    27   ar
    13    25    24    1
    14    24    23    3
    15    21    19    1
    16    17    16   ar
    17    17    18   ar
    18    23    16    1
    19    36    37    3
    20    16    15   ar
    21    18    14   ar
    22     3     2   ar
    23     3     4   ar
    24    27    32    1
    25     7     8    1
    26     7     2    1
    27     7    10    1
    28    37    38    1
    29    15    14   ar
    30    15    19    1
    31    14     4    1
    32     2     1   ar
    33    19    20    1
    34    19    22    1
    35     4     5   ar
    36    34    32    1
    37    32    35    1
    38    32    33    1
    39     1     5   ar
    40     1     6    1
