@<TRIPOS>MOLECULE
mol_data/opt/b3lyp/geoms/mol2/5ie5ie-5ie-5ie-.out
 50 53 0 0 0
SMALL
GASTEIGER

@<TRIPOS>ATOM
      1 C          -1.2192   -1.4499    2.2821 C.ar    1  LIG1       -0.0196
      2 C          -0.8207   -1.7415    1.0092 C.ar    1  LIG1       -0.0274
      3 C          -0.4884   -0.5456    0.2657 C.ar    1  LIG1        0.0428
      4 C          -0.6323    0.6208    1.0074 C.ar    1  LIG1        0.0418
      5 S          -1.1886    0.2495    2.6235 S.2     1  LIG1       -0.0946
      6 H          -1.5327   -2.1464    3.0478 H       1  LIG1        0.0696
      7 C          -0.7469   -3.1221    0.4224 C.3     1  LIG1       -0.0380
      8 H           0.2712   -3.3572    0.0932 H       1  LIG1        0.0278
      9 H          -1.3935   -3.2113   -0.4572 H       1  LIG1        0.0278
     10 H          -1.0537   -3.8763    1.1511 H       1  LIG1        0.0278
     11 C          -0.1168   -0.5815   -1.1064 C.1     1  LIG1       -0.0682
     12 C           0.1871   -0.6558   -2.2763 C.1     1  LIG1       -0.1139
     13 H           0.4421   -0.7058   -3.3095 H       1  LIG1        0.1232
     14 C          -0.3967    1.9989    0.5976 C.ar    1  LIG1        0.0318
     15 C           0.7321    2.5542    0.0350 C.ar    1  LIG1       -0.0191
     16 C           0.5635    3.9596   -0.2495 C.ar    1  LIG1        0.0435
     17 C          -0.6758    4.4620    0.1292 C.ar    1  LIG1        0.0424
     18 S          -1.6616    3.1980    0.8153 S.2     1  LIG1       -0.0856
     19 C           2.0135    1.8246   -0.2451 C.3     1  LIG1       -0.0374
     20 H           2.8726    2.4604   -0.0129 H       1  LIG1        0.0278
     21 H           2.0857    1.5438   -1.3014 H       1  LIG1        0.0278
     22 H           2.0809    0.9071    0.3426 H       1  LIG1        0.0278
     23 C           1.5678    4.7296   -0.8989 C.1     1  LIG1       -0.0682
     24 C           2.4414    5.3521   -1.4607 C.1     1  LIG1       -0.1139
     25 H           3.1969    5.9061   -1.9680 H       1  LIG1        0.1232
     26 C          -1.1888    5.8195    0.0003 C.ar    1  LIG1        0.0318
     27 C          -0.6308    7.0024    0.4348 C.ar    1  LIG1       -0.0191
     28 C          -1.4432    8.1456    0.0916 C.ar    1  LIG1        0.0435
     29 C          -2.6215    7.8169   -0.5680 C.ar    1  LIG1        0.0424
     30 S          -2.7305    6.0921   -0.7971 S.2     1  LIG1       -0.0856
     31 C           0.6538    7.1307    1.2001 C.3     1  LIG1       -0.0374
     32 H           0.5524    7.8804    1.9901 H       1  LIG1        0.0278
     33 H           1.4734    7.4486    0.5466 H       1  LIG1        0.0278
     34 H           0.9429    6.1786    1.6488 H       1  LIG1        0.0278
     35 C          -1.0345    9.4790    0.3713 C.1     1  LIG1       -0.0682
     36 C          -0.6499   10.6004    0.6181 C.1     1  LIG1       -0.1139
     37 H          -0.3152   11.5920    0.8173 H       1  LIG1        0.1232
     38 C          -3.6738    8.6994   -1.0544 C.ar    1  LIG1        0.0312
     39 C          -4.3831    9.6641   -0.3712 C.ar    1  LIG1       -0.0198
     40 C          -5.3451   10.3292   -1.2222 C.ar    1  LIG1        0.0352
     41 C          -5.3483    9.8449   -2.5115 C.ar    1  LIG1       -0.0081
     42 S          -4.1900    8.5929   -2.7348 S.2     1  LIG1       -0.0946
     43 H          -5.9779   10.1687   -3.3278 H       1  LIG1        0.0706
     44 C          -4.2396    9.9858    1.0876 C.3     1  LIG1       -0.0374
     45 H          -5.2202   10.1804    1.5315 H       1  LIG1        0.0278
     46 H          -3.6255   10.8807    1.2365 H       1  LIG1        0.0278
     47 H          -3.7609    9.1675    1.6290 H       1  LIG1        0.0278
     48 C          -6.2139   11.3621   -0.7686 C.1     1  LIG1       -0.0688
     49 C          -6.9476   12.2382   -0.3694 C.1     1  LIG1       -0.1139
     50 H          -7.5962   13.0105   -0.0263 H       1  LIG1        0.1232
@<TRIPOS>BOND
     1    43    41    1
     2    13    12    1
     3    42    41   ar
     4    42    38   ar
     5    41    40   ar
     6    12    11    3
     7    25    24    1
     8    24    23    3
     9    21    19    1
    10    40    48    1
    11    40    39   ar
    12    11     3    1
    13    38    29    1
    14    38    39   ar
    15    23    16    1
    16    30    29   ar
    17    30    26   ar
    18    48    49    3
    19    29    28   ar
    20     9     7    1
    21    39    44    1
    22    49    50    1
    23    16    15   ar
    24    16    17   ar
    25    19    20    1
    26    19    15    1
    27    19    22    1
    28    26    17    1
    29    26    27   ar
    30    15    14   ar
    31    28    35    1
    32    28    27   ar
    33     8     7    1
    34    17    18   ar
    35     3     4   ar
    36     3     2   ar
    37    35    36    3
    38     7     2    1
    39     7    10    1
    40    27    31    1
    41    33    31    1
    42    14    18   ar
    43    14     4    1
    44    36    37    1
    45     4     5   ar
    46     2     1   ar
    47    44    46    1
    48    44    45    1
    49    44    47    1
    50    31    34    1
    51    31    32    1
    52     1     5   ar
    53     1     6    1
