@<TRIPOS>MOLECULE
mol_data/opt/b3lyp/geoms/mol2/5if.out
 13 13 0 0 0
SMALL
GASTEIGER

@<TRIPOS>ATOM
      1 C          -2.1339   -1.6580    0.0980 C.ar    1  LIG1       -0.0179
      2 C          -0.7695   -1.6544    0.0230 C.ar    1  LIG1       -0.0020
      3 C          -0.2618   -0.3096   -0.0420 C.ar    1  LIG1        0.1267
      4 C          -1.2315    0.6551   -0.0156 C.ar    1  LIG1        0.0174
      5 S          -2.8150   -0.0601    0.0911 S.2     1  LIG1       -0.1011
      6 H          -2.7854   -2.5189    0.1576 H       1  LIG1        0.0697
      7 H          -1.1130    1.7290   -0.0518 H       1  LIG1        0.0730
      8 C           0.1199   -2.8641    0.0075 C.3     1  LIG1       -0.0357
      9 H           0.8209   -2.8499    0.8494 H       1  LIG1        0.0279
     10 H           0.7237   -2.8987   -0.9061 H       1  LIG1        0.0279
     11 H          -0.4666   -3.7844    0.0655 H       1  LIG1        0.0279
     12 O           1.0913   -0.1237   -0.1214 O.3     1  LIG1       -0.5060
     13 H           1.2791    0.8228   -0.1578 H       1  LIG1        0.2922
@<TRIPOS>BOND
     1    10     8    1
     2    13    12    1
     3    12     3    1
     4     7     4    1
     5     3     4   ar
     6     3     2   ar
     7     4     5   ar
     8     8     2    1
     9     8    11    1
    10     8     9    1
    11     2     1   ar
    12     5     1   ar
    13     1     6    1
