@<TRIPOS>MOLECULE
mol_data/opt/b3lyp/geoms/mol2/5if5if-5if5if.out
 46 49 0 0 0
SMALL
GASTEIGER

@<TRIPOS>ATOM
      1 C          -0.9413   -1.6764    2.0481 C.ar    1  LIG1       -0.0172
      2 C          -0.7229   -1.8695    0.7123 C.ar    1  LIG1       -0.0014
      3 C          -0.5713   -0.6151    0.0331 C.ar    1  LIG1        0.1350
      4 C          -0.6604    0.4961    0.8456 C.ar    1  LIG1        0.0679
      5 S          -0.9587   -0.0030    2.5056 S.2     1  LIG1       -0.0921
      6 H          -1.0967   -2.4376    2.8005 H       1  LIG1        0.0697
      7 C          -0.6629   -3.1931    0.0064 C.3     1  LIG1       -0.0357
      8 H           0.3083   -3.3393   -0.4791 H       1  LIG1        0.0279
      9 H          -1.4227   -3.2535   -0.7805 H       1  LIG1        0.0279
     10 H          -0.8248   -4.0186    0.7040 H       1  LIG1        0.0279
     11 O          -0.3873   -0.6011   -1.3168 O.3     1  LIG1       -0.5053
     12 H          -0.4371    0.3182   -1.6191 H       1  LIG1        0.2922
     13 C          -0.5547    1.8868    0.4333 C.ar    1  LIG1        0.0365
     14 C           0.4540    2.4804   -0.3035 C.ar    1  LIG1        0.0070
     15 C           0.1781    3.8622   -0.5559 C.ar    1  LIG1        0.1356
     16 C          -0.9917    4.3355    0.0001 C.ar    1  LIG1        0.0685
     17 S          -1.8292    3.0323    0.8271 S.2     1  LIG1       -0.0831
     18 C           1.7271    1.8210   -0.7566 C.3     1  LIG1       -0.0351
     19 H           2.5797    2.4792   -0.5646 H       1  LIG1        0.0279
     20 H           1.7276    1.6182   -1.8347 H       1  LIG1        0.0279
     21 H           1.8866    0.8760   -0.2337 H       1  LIG1        0.0279
     22 O           1.0544    4.5918   -1.3013 O.3     1  LIG1       -0.5053
     23 H           0.6696    5.4692   -1.4473 H       1  LIG1        0.2922
     24 C          -1.5027    5.6951   -0.0771 C.ar    1  LIG1        0.0365
     25 C          -0.8455    6.8702    0.2399 C.ar    1  LIG1        0.0070
     26 C          -1.6633    8.0163   -0.0196 C.ar    1  LIG1        0.1356
     27 C          -2.9291    7.7365   -0.4890 C.ar    1  LIG1        0.0685
     28 S          -3.1284    6.0023   -0.6722 S.2     1  LIG1       -0.0831
     29 C           0.5278    6.9854    0.8411 C.3     1  LIG1       -0.0351
     30 H           0.5186    7.7103    1.6605 H       1  LIG1        0.0279
     31 H           1.2687    7.3456    0.1166 H       1  LIG1        0.0279
     32 H           0.8697    6.0232    1.2270 H       1  LIG1        0.0279
     33 O          -1.1586    9.2614    0.2051 O.3     1  LIG1       -0.5053
     34 H          -1.8094    9.9102   -0.1029 H       1  LIG1        0.2922
     35 C          -3.9691    8.7025   -0.8083 C.ar    1  LIG1        0.0359
     36 C          -4.4690    9.7115   -0.0068 C.ar    1  LIG1        0.0064
     37 C          -5.4612   10.4896   -0.6946 C.ar    1  LIG1        0.1273
     38 C          -5.7182   10.0723   -1.9717 C.ar    1  LIG1        0.0180
     39 S          -4.7251    8.7123   -2.3970 S.2     1  LIG1       -0.0920
     40 H          -6.4326   10.4750   -2.6764 H       1  LIG1        0.0730
     41 C          -4.1146    9.9578    1.4334 C.3     1  LIG1       -0.0351
     42 H          -5.0229   10.1363    2.0166 H       1  LIG1        0.0279
     43 H          -3.4848   10.8472    1.5593 H       1  LIG1        0.0279
     44 H          -3.5849    9.1036    1.8595 H       1  LIG1        0.0279
     45 O          -6.0544   11.5245   -0.0276 O.3     1  LIG1       -0.5060
     46 H          -6.7345   11.9176   -0.5897 H       1  LIG1        0.2922
@<TRIPOS>BOND
     1    40    38    1
     2    39    38   ar
     3    39    35   ar
     4    38    37   ar
     5    20    18    1
     6    12    11    1
     7    23    22    1
     8    11     3    1
     9    22    15    1
    10    35    27    1
    11    35    36   ar
    12     9     7    1
    13    18    19    1
    14    18    14    1
    15    18    21    1
    16    37    45    1
    17    37    36   ar
    18    28    27   ar
    19    28    24   ar
    20    46    45    1
    21    15    14   ar
    22    15    16   ar
    23    27    26   ar
    24     8     7    1
    25    14    13   ar
    26    34    33    1
    27    24    16    1
    28    24    25   ar
    29    26    33    1
    30    26    25   ar
    31    36    41    1
    32    16    17   ar
    33     7    10    1
    34     7     2    1
    35     3     2   ar
    36     3     4   ar
    37    31    29    1
    38    25    29    1
    39    13    17   ar
    40    13     4    1
    41     2     1   ar
    42    29    32    1
    43    29    30    1
    44     4     5   ar
    45    41    43    1
    46    41    44    1
    47    41    42    1
    48     1     5   ar
    49     1     6    1
