@<TRIPOS>MOLECULE
mol_data/opt/b3lyp/geoms/mol2/5if5if-5if.out
 35 37 0 0 0
SMALL
GASTEIGER

@<TRIPOS>ATOM
      1 C          -1.4988   -1.7819    1.4668 C.ar    1  LIG1       -0.0172
      2 C          -0.7803   -1.8873    0.3083 C.ar    1  LIG1       -0.0014
      3 C          -0.4579   -0.5902   -0.2124 C.ar    1  LIG1        0.1350
      4 C          -0.9131    0.4671    0.5477 C.ar    1  LIG1        0.0679
      5 S          -1.7862   -0.1400    1.9486 S.2     1  LIG1       -0.0921
      6 H          -1.8820   -2.5914    2.0730 H       1  LIG1        0.0697
      7 C          -0.3782   -3.1637   -0.3724 C.3     1  LIG1       -0.0357
      8 H           0.7118   -3.2465   -0.4462 H       1  LIG1        0.0279
      9 H          -0.7687   -3.2033   -1.3950 H       1  LIG1        0.0279
     10 H          -0.7515   -4.0345    0.1722 H       1  LIG1        0.0279
     11 O           0.2212   -0.4894   -1.3895 O.3     1  LIG1       -0.5053
     12 H           0.2361    0.4437   -1.6505 H       1  LIG1        0.2922
     13 C          -0.7434    1.8824    0.2597 C.ar    1  LIG1        0.0365
     14 C           0.4309    2.5581   -0.0185 C.ar    1  LIG1        0.0070
     15 C           0.1876    3.9393   -0.3063 C.ar    1  LIG1        0.1356
     16 C          -1.1313    4.3310   -0.2182 C.ar    1  LIG1        0.0685
     17 S          -2.1382    2.9505    0.1850 S.2     1  LIG1       -0.0831
     18 C           1.8178    1.9786    0.0208 C.3     1  LIG1       -0.0351
     19 H           2.4948    2.6602    0.5445 H       1  LIG1        0.0279
     20 H           2.2361    1.8358   -0.9833 H       1  LIG1        0.0279
     21 H           1.8247    1.0136    0.5312 H       1  LIG1        0.0279
     22 O           1.2337    4.7476   -0.6360 O.3     1  LIG1       -0.5053
     23 H           0.8777    5.6150   -0.8813 H       1  LIG1        0.2922
     24 C          -1.6541    5.6714   -0.4336 C.ar    1  LIG1        0.0359
     25 C          -1.2453    6.8505    0.1604 C.ar    1  LIG1        0.0064
     26 C          -1.9742    7.9788   -0.3482 C.ar    1  LIG1        0.1273
     27 C          -2.9194    7.6626   -1.2851 C.ar    1  LIG1        0.0180
     28 S          -2.9346    5.9556   -1.6065 S.2     1  LIG1       -0.0920
     29 H          -3.6063    8.3255   -1.7930 H       1  LIG1        0.0730
     30 C          -0.2295    6.9825    1.2609 C.3     1  LIG1       -0.0351
     31 H          -0.6054    7.6543    2.0384 H       1  LIG1        0.0279
     32 H           0.7137    7.4156    0.9053 H       1  LIG1        0.0279
     33 H          -0.0092    6.0122    1.7103 H       1  LIG1        0.0279
     34 O          -1.6851    9.2188    0.1491 O.3     1  LIG1       -0.5060
     35 H          -2.2828    9.8670   -0.2453 H       1  LIG1        0.2922
@<TRIPOS>BOND
     1    29    27    1
     2    12    11    1
     3    28    27   ar
     4    28    24   ar
     5     9     7    1
     6    11     3    1
     7    27    26   ar
     8    20    18    1
     9    23    22    1
    10    22    15    1
    11     8     7    1
    12    24    16    1
    13    24    25   ar
    14     7    10    1
    15     7     2    1
    16    26    34    1
    17    26    25   ar
    18    15    16   ar
    19    15    14   ar
    20    35    34    1
    21    16    17   ar
    22     3     2   ar
    23     3     4   ar
    24    14    18    1
    25    14    13   ar
    26    18    21    1
    27    18    19    1
    28    25    30    1
    29    17    13   ar
    30    13     4    1
    31     2     1   ar
    32     4     5   ar
    33    32    30    1
    34    30    33    1
    35    30    31    1
    36     1     5   ar
    37     1     6    1
