@<TRIPOS>MOLECULE
mol_data/opt/b3lyp/geoms/mol2/5if5if-5if-5if.out
 46 49 0 0 0
SMALL
GASTEIGER

@<TRIPOS>ATOM
      1 C          -0.9529   -1.6769    2.0454 C.ar    1  LIG1       -0.0172
      2 C          -0.7229   -1.8691    0.7114 C.ar    1  LIG1       -0.0014
      3 C          -0.5672   -0.6142    0.0341 C.ar    1  LIG1        0.1350
      4 C          -0.6646    0.4965    0.8462 C.ar    1  LIG1        0.0679
      5 S          -0.9761   -0.0037    2.5035 S.2     1  LIG1       -0.0921
      6 H          -1.1138   -2.4386    2.7962 H       1  LIG1        0.0697
      7 C          -0.6556   -3.1924    0.0054 C.3     1  LIG1       -0.0357
      8 H           0.3195   -3.3369   -0.4727 H       1  LIG1        0.0279
      9 H          -1.4092   -3.2535   -0.7873 H       1  LIG1        0.0279
     10 H          -0.8215   -4.0183    0.7015 H       1  LIG1        0.0279
     11 O          -0.3720   -0.5994   -1.3143 O.3     1  LIG1       -0.5053
     12 H          -0.4204    0.3200   -1.6166 H       1  LIG1        0.2922
     13 C          -0.5569    1.8874    0.4353 C.ar    1  LIG1        0.0365
     14 C           0.4570    2.4818   -0.2938 C.ar    1  LIG1        0.0070
     15 C           0.1823    3.8636   -0.5476 C.ar    1  LIG1        0.1356
     16 C          -0.9919    4.3360   -0.0002 C.ar    1  LIG1        0.0685
     17 S          -1.8349    3.0320    0.8201 S.2     1  LIG1       -0.0831
     18 C           1.7338    1.8232   -0.7375 C.3     1  LIG1       -0.0351
     19 H           2.5843    2.4832   -0.5422 H       1  LIG1        0.0279
     20 H           1.7411    1.6171   -1.8149 H       1  LIG1        0.0279
     21 H           1.8915    0.8798   -0.2110 H       1  LIG1        0.0279
     22 O           1.0636    4.5940   -1.2862 O.3     1  LIG1       -0.5053
     23 H           0.6796    5.4713   -1.4344 H       1  LIG1        0.2922
     24 C          -1.5030    5.6953   -0.0807 C.ar    1  LIG1        0.0365
     25 C          -0.8485    6.8707    0.2409 C.ar    1  LIG1        0.0070
     26 C          -1.6653    8.0163   -0.0233 C.ar    1  LIG1        0.1356
     27 C          -2.9279    7.7360   -0.5009 C.ar    1  LIG1        0.0685
     28 S          -3.1251    6.0018   -0.6860 S.2     1  LIG1       -0.0831
     29 C           0.5208    6.9863    0.8510 C.3     1  LIG1       -0.0351
     30 H           0.5063    7.7120    1.6697 H       1  LIG1        0.0279
     31 H           1.2666    7.3456    0.1311 H       1  LIG1        0.0279
     32 H           0.8601    6.0243    1.2400 H       1  LIG1        0.0279
     33 O          -1.1629    9.2617    0.2052 O.3     1  LIG1       -0.5053
     34 H          -1.8124    9.9102   -0.1063 H       1  LIG1        0.2922
     35 C          -3.9662    8.7018   -0.8265 C.ar    1  LIG1        0.0359
     36 C          -4.4725    9.7094   -0.0272 C.ar    1  LIG1        0.0064
     37 C          -5.4603   10.4876   -0.7210 C.ar    1  LIG1        0.1273
     38 C          -5.7082   10.0716   -2.0003 C.ar    1  LIG1        0.0180
     39 S          -4.7112    8.7128   -2.4203 S.2     1  LIG1       -0.0920
     40 H          -6.4177   10.4749   -2.7097 H       1  LIG1        0.0730
     41 C          -4.1282    9.9544    1.4156 C.3     1  LIG1       -0.0351
     42 H          -5.0410   10.1268    1.9937 H       1  LIG1        0.0279
     43 H          -3.5041   10.8470    1.5469 H       1  LIG1        0.0279
     44 H          -3.5965    9.1022    1.8432 H       1  LIG1        0.0279
     45 O          -6.0588   11.5214   -0.0569 O.3     1  LIG1       -0.5060
     46 H          -6.7358   11.9142   -0.6230 H       1  LIG1        0.2922
@<TRIPOS>BOND
     1    40    38    1
     2    39    38   ar
     3    39    35   ar
     4    38    37   ar
     5    20    18    1
     6    12    11    1
     7    23    22    1
     8    11     3    1
     9    22    15    1
    10    35    27    1
    11    35    36   ar
    12     9     7    1
    13    18    19    1
    14    18    14    1
    15    18    21    1
    16    37    45    1
    17    37    36   ar
    18    28    27   ar
    19    28    24   ar
    20    46    45    1
    21    15    14   ar
    22    15    16   ar
    23    27    26   ar
    24     8     7    1
    25    14    13   ar
    26    34    33    1
    27    24    16    1
    28    24    25   ar
    29    36    41    1
    30    26    33    1
    31    26    25   ar
    32    16    17   ar
    33     7    10    1
    34     7     2    1
    35     3     2   ar
    36     3     4   ar
    37    31    29    1
    38    25    29    1
    39    13    17   ar
    40    13     4    1
    41     2     1   ar
    42     4     5   ar
    43    29    32    1
    44    29    30    1
    45    41    43    1
    46    41    44    1
    47    41    42    1
    48     1     5   ar
    49     1     6    1
