@<TRIPOS>MOLECULE
mol_data/opt/b3lyp/geoms/mol2/5if5if-5if-.out
 35 37 0 0 0
SMALL
GASTEIGER

@<TRIPOS>ATOM
      1 C          -1.5049   -1.7902    1.4419 C.ar    1  LIG1       -0.0172
      2 C          -0.7772   -1.8891    0.2885 C.ar    1  LIG1       -0.0014
      3 C          -0.4519   -0.5891   -0.2231 C.ar    1  LIG1        0.1350
      4 C          -0.9141    0.4639    0.5386 C.ar    1  LIG1        0.0679
      5 S          -1.7976   -0.1510    1.9297 S.2     1  LIG1       -0.0921
      6 H          -1.8922   -2.6031    2.0409 H       1  LIG1        0.0697
      7 C          -0.3686   -3.1616   -0.3954 C.3     1  LIG1       -0.0357
      8 H           0.7220   -3.2433   -0.4606 H       1  LIG1        0.0279
      9 H          -0.7506   -3.1961   -1.4215 H       1  LIG1        0.0279
     10 H          -0.7458   -4.0356    0.1414 H       1  LIG1        0.0279
     11 O           0.2366   -0.4818   -1.3940 O.3     1  LIG1       -0.5053
     12 H           0.2533    0.4527   -1.6499 H       1  LIG1        0.2922
     13 C          -0.7436    1.8809    0.2593 C.ar    1  LIG1        0.0365
     14 C           0.4320    2.5597   -0.0052 C.ar    1  LIG1        0.0070
     15 C           0.1892    3.9419   -0.2885 C.ar    1  LIG1        0.1356
     16 C          -1.1310    4.3312   -0.2104 C.ar    1  LIG1        0.0685
     17 S          -2.1394    2.9474    0.1772 S.2     1  LIG1       -0.0831
     18 C           1.8195    1.9824    0.0432 C.3     1  LIG1       -0.0351
     19 H           2.4889    2.6584    0.5836 H       1  LIG1        0.0279
     20 H           2.2497    1.8535   -0.9577 H       1  LIG1        0.0279
     21 H           1.8226    1.0110    0.5415 H       1  LIG1        0.0279
     22 O           1.2370    4.7532   -0.6051 O.3     1  LIG1       -0.5053
     23 H           0.8819    5.6212   -0.8497 H       1  LIG1        0.2922
     24 C          -1.6537    5.6720   -0.4239 C.ar    1  LIG1        0.0359
     25 C          -1.2517    6.8486    0.1794 C.ar    1  LIG1        0.0064
     26 C          -1.9777    7.9784   -0.3297 C.ar    1  LIG1        0.1273
     27 C          -2.9144    7.6656   -1.2763 C.ar    1  LIG1        0.0180
     28 S          -2.9246    5.9602   -1.6061 S.2     1  LIG1       -0.0920
     29 H          -3.5978    8.3301   -1.7870 H       1  LIG1        0.0730
     30 C          -0.2454    6.9762    1.2893 C.3     1  LIG1       -0.0351
     31 H          -0.6265    7.6478    2.0643 H       1  LIG1        0.0279
     32 H           0.7022    7.4071    0.9430 H       1  LIG1        0.0279
     33 H          -0.0319    6.0045    1.7390 H       1  LIG1        0.0279
     34 O          -1.6945    9.2164    0.1760 O.3     1  LIG1       -0.5060
     35 H          -2.2909    9.8654   -0.2190 H       1  LIG1        0.2922
@<TRIPOS>BOND
     1    29    27    1
     2    12    11    1
     3    28    27   ar
     4    28    24   ar
     5     9     7    1
     6    11     3    1
     7    27    26   ar
     8    20    18    1
     9    23    22    1
    10    22    15    1
    11     8     7    1
    12    24    16    1
    13    24    25   ar
    14     7    10    1
    15     7     2    1
    16    26    34    1
    17    26    25   ar
    18    15    16   ar
    19    15    14   ar
    20     3     2   ar
    21     3     4   ar
    22    35    34    1
    23    16    17   ar
    24    14    18    1
    25    14    13   ar
    26    18    21    1
    27    18    19    1
    28    17    13   ar
    29    25    30    1
    30    13     4    1
    31     2     1   ar
    32     4     5   ar
    33    32    30    1
    34    30    33    1
    35    30    31    1
    36     1     5   ar
    37     1     6    1
