@<TRIPOS>MOLECULE
mol_data/opt/b3lyp/geoms/mol2/5if5if-5if5if-.out
 46 49 0 0 0
SMALL
GASTEIGER

@<TRIPOS>ATOM
      1 C          -0.9284   -1.6702    2.0569 C.ar    1  LIG1       -0.0172
      2 C          -0.7125   -1.8664    0.7211 C.ar    1  LIG1       -0.0014
      3 C          -0.5642   -0.6136    0.0384 C.ar    1  LIG1        0.1350
      4 C          -0.6533    0.4996    0.8481 C.ar    1  LIG1        0.0679
      5 S          -0.9472    0.0043    2.5101 S.2     1  LIG1       -0.0921
      6 H          -1.0811   -2.4297    2.8117 H       1  LIG1        0.0697
      7 C          -0.6522   -3.1918    0.0185 C.3     1  LIG1       -0.0357
      8 H           0.3181   -3.3378   -0.4689 H       1  LIG1        0.0279
      9 H          -1.4137   -3.2554   -0.7664 H       1  LIG1        0.0279
     10 H          -0.8111   -4.0157    0.7188 H       1  LIG1        0.0279
     11 O          -0.3835   -0.6028   -1.3120 O.3     1  LIG1       -0.5053
     12 H          -0.4357    0.3156   -1.6166 H       1  LIG1        0.2922
     13 C          -0.5503    1.8893    0.4322 C.ar    1  LIG1        0.0365
     14 C           0.4556    2.4820   -0.3094 C.ar    1  LIG1        0.0070
     15 C           0.1776    3.8630   -0.5642 C.ar    1  LIG1        0.1356
     16 C          -0.9909    4.3365   -0.0056 C.ar    1  LIG1        0.0685
     17 S          -1.8245    3.0347    0.8273 S.2     1  LIG1       -0.0831
     18 C           1.7278    1.8226   -0.7648 C.3     1  LIG1       -0.0351
     19 H           2.5795    2.4849   -0.5835 H       1  LIG1        0.0279
     20 H           1.7224    1.6103   -1.8410 H       1  LIG1        0.0279
     21 H           1.8931    0.8825   -0.2349 H       1  LIG1        0.0279
     22 O           1.0509    4.5917   -1.3141 O.3     1  LIG1       -0.5053
     23 H           0.6650    5.4685   -1.4606 H       1  LIG1        0.2922
     24 C          -1.5036    5.6954   -0.0845 C.ar    1  LIG1        0.0365
     25 C          -0.8468    6.8722    0.2271 C.ar    1  LIG1        0.0070
     26 C          -1.6669    8.0165   -0.0326 C.ar    1  LIG1        0.1356
     27 C          -2.9338    7.7339   -0.4971 C.ar    1  LIG1        0.0685
     28 S          -3.1317    5.9990   -0.6750 S.2     1  LIG1       -0.0831
     29 C           0.5282    6.9908    0.8237 C.3     1  LIG1       -0.0351
     30 H           0.5198    7.7152    1.6437 H       1  LIG1        0.0279
     31 H           1.2655    7.3537    0.0969 H       1  LIG1        0.0279
     32 H           0.8742    6.0294    1.2079 H       1  LIG1        0.0279
     33 O          -1.1631    9.2628    0.1873 O.3     1  LIG1       -0.5053
     34 H          -1.8161    9.9100   -0.1194 H       1  LIG1        0.2922
     35 C          -3.9762    8.6980   -0.8153 C.ar    1  LIG1        0.0359
     36 C          -4.4760    9.7071   -0.0140 C.ar    1  LIG1        0.0064
     37 C          -5.4708   10.4828   -0.7005 C.ar    1  LIG1        0.1273
     38 C          -5.7299   10.0634   -1.9766 C.ar    1  LIG1        0.0180
     39 S          -4.7357    8.7045   -2.4024 S.2     1  LIG1       -0.0920
     40 H          -6.4464   10.4643   -2.6802 H       1  LIG1        0.0730
     41 C          -4.1184    9.9561    1.4249 C.3     1  LIG1       -0.0351
     42 H          -5.0257   10.1308    2.0109 H       1  LIG1        0.0279
     43 H          -3.4926   10.8487    1.5480 H       1  LIG1        0.0279
     44 H          -3.5833    9.1048    1.8502 H       1  LIG1        0.0279
     45 O          -6.0642   11.5176   -0.0335 O.3     1  LIG1       -0.5060
     46 H          -6.7465   11.9087   -0.5944 H       1  LIG1        0.2922
@<TRIPOS>BOND
     1    40    38    1
     2    39    38   ar
     3    39    35   ar
     4    38    37   ar
     5    20    18    1
     6    12    11    1
     7    23    22    1
     8    22    15    1
     9    11     3    1
    10    35    27    1
    11    35    36   ar
    12     9     7    1
    13    18    19    1
    14    18    14    1
    15    18    21    1
    16    37    45    1
    17    37    36   ar
    18    28    27   ar
    19    28    24   ar
    20    46    45    1
    21    15    14   ar
    22    15    16   ar
    23    27    26   ar
    24     8     7    1
    25    14    13   ar
    26    34    33    1
    27    24    16    1
    28    24    25   ar
    29    26    33    1
    30    26    25   ar
    31    36    41    1
    32    16    17   ar
    33     7    10    1
    34     7     2    1
    35     3     2   ar
    36     3     4   ar
    37    31    29    1
    38    25    29    1
    39    13    17   ar
    40    13     4    1
    41     2     1   ar
    42    29    32    1
    43    29    30    1
    44     4     5   ar
    45    41    43    1
    46    41    44    1
    47    41    42    1
    48     1     5   ar
    49     1     6    1
