@<TRIPOS>MOLECULE
mol_data/opt/b3lyp/geoms/mol2/5if5if5if-.out
 35 37 0 0 0
SMALL
GASTEIGER

@<TRIPOS>ATOM
      1 C          -1.5171   -1.7867    1.4412 C.ar    1  LIG1       -0.0172
      2 C          -0.7791   -1.8884    0.2947 C.ar    1  LIG1       -0.0014
      3 C          -0.4496   -0.5896   -0.2173 C.ar    1  LIG1        0.1350
      4 C          -0.9189    0.4652    0.5375 C.ar    1  LIG1        0.0679
      5 S          -1.8147   -0.1464    1.9220 S.2     1  LIG1       -0.0921
      6 H          -1.9094   -2.5982    2.0390 H       1  LIG1        0.0697
      7 C          -0.3643   -3.1626   -0.3824 C.3     1  LIG1       -0.0357
      8 H           0.7269   -3.2424   -0.4411 H       1  LIG1        0.0279
      9 H          -0.7403   -3.2014   -1.4105 H       1  LIG1        0.0279
     10 H          -0.7429   -4.0353    0.1554 H       1  LIG1        0.0279
     11 O           0.2494   -0.4852   -1.3823 O.3     1  LIG1       -0.5053
     12 H           0.2683    0.4487   -1.6404 H       1  LIG1        0.2922
     13 C          -0.7459    1.8815    0.2561 C.ar    1  LIG1        0.0365
     14 C           0.4321    2.5595    0.0004 C.ar    1  LIG1        0.0070
     15 C           0.1919    3.9411   -0.2884 C.ar    1  LIG1        0.1356
     16 C          -1.1289    4.3306   -0.2232 C.ar    1  LIG1        0.0685
     17 S          -2.1408    2.9478    0.1588 S.2     1  LIG1       -0.0831
     18 C           1.8190    1.9821    0.0627 C.3     1  LIG1       -0.0351
     19 H           2.4845    2.6611    0.6041 H       1  LIG1        0.0279
     20 H           2.2567    1.8470   -0.9341 H       1  LIG1        0.0279
     21 H           1.8178    1.0136    0.5666 H       1  LIG1        0.0279
     22 O           1.2426    4.7515   -0.5975 O.3     1  LIG1       -0.5053
     23 H           0.8898    5.6191   -0.8469 H       1  LIG1        0.2922
     24 C          -1.6498    5.6707   -0.4451 C.ar    1  LIG1        0.0359
     25 C          -1.2536    6.8492    0.1587 C.ar    1  LIG1        0.0064
     26 C          -1.9748    7.9775   -0.3606 C.ar    1  LIG1        0.1273
     27 C          -2.9023    7.6619   -1.3152 C.ar    1  LIG1        0.0180
     28 S          -2.9093    5.9555   -1.6402 S.2     1  LIG1       -0.0920
     29 H          -3.5808    8.3249   -1.8343 H       1  LIG1        0.0730
     30 C          -0.2581    6.9804    1.2778 C.3     1  LIG1       -0.0351
     31 H          -0.6502    7.6481    2.0508 H       1  LIG1        0.0279
     32 H           0.6897    7.4179    0.9407 H       1  LIG1        0.0279
     33 H          -0.0428    6.0092    1.7276 H       1  LIG1        0.0279
     34 O          -1.6965    9.2168    0.1443 O.3     1  LIG1       -0.5060
     35 H          -2.2888    9.8648   -0.2585 H       1  LIG1        0.2922
@<TRIPOS>BOND
     1    29    27    1
     2    12    11    1
     3    28    27   ar
     4    28    24   ar
     5     9     7    1
     6    11     3    1
     7    27    26   ar
     8    20    18    1
     9    23    22    1
    10    22    15    1
    11    24    16    1
    12    24    25   ar
    13     8     7    1
    14     7    10    1
    15     7     2    1
    16    26    34    1
    17    26    25   ar
    18    15    16   ar
    19    15    14   ar
    20    35    34    1
    21    16    17   ar
    22     3     2   ar
    23     3     4   ar
    24    14    18    1
    25    14    13   ar
    26    18    21    1
    27    18    19    1
    28    25    30    1
    29    17    13   ar
    30    13     4    1
    31     2     1   ar
    32     4     5   ar
    33    32    30    1
    34    30    33    1
    35    30    31    1
    36     1     5   ar
    37     1     6    1
