@<TRIPOS>MOLECULE
mol_data/opt/b3lyp/geoms/mol2/5if5if5if-5if.out
 46 49 0 0 0
SMALL
GASTEIGER

@<TRIPOS>ATOM
      1 C          -0.9681   -1.6697    2.0536 C.ar    1  LIG1       -0.0172
      2 C          -0.7296   -1.8669    0.7218 C.ar    1  LIG1       -0.0014
      3 C          -0.5688   -0.6145    0.0409 C.ar    1  LIG1        0.1350
      4 C          -0.6708    0.4992    0.8484 C.ar    1  LIG1        0.0679
      5 S          -0.9933    0.0051    2.5054 S.2     1  LIG1       -0.0921
      6 H          -1.1342   -2.4286    2.8061 H       1  LIG1        0.0697
      7 C          -0.6584   -3.1927    0.0211 C.3     1  LIG1       -0.0357
      8 H           0.3198   -3.3395   -0.4499 H       1  LIG1        0.0279
      9 H          -1.4067   -3.2563   -0.7764 H       1  LIG1        0.0279
     10 H          -0.8295   -4.0161    0.7190 H       1  LIG1        0.0279
     11 O          -0.3651   -0.6048   -1.3062 O.3     1  LIG1       -0.5053
     12 H          -0.4114    0.3134   -1.6123 H       1  LIG1        0.2922
     13 C          -0.5598    1.8886    0.4335 C.ar    1  LIG1        0.0365
     14 C           0.4589    2.4803   -0.2911 C.ar    1  LIG1        0.0070
     15 C           0.1862    3.8614   -0.5511 C.ar    1  LIG1        0.1356
     16 C          -0.9913    4.3359   -0.0128 C.ar    1  LIG1        0.0685
     17 S          -1.8398    3.0349    0.8065 S.2     1  LIG1       -0.0831
     18 C           1.7384    1.8201   -0.7243 C.3     1  LIG1       -0.0351
     19 H           2.5874    2.4815   -0.5276 H       1  LIG1        0.0279
     20 H           1.7519    1.6084   -1.8006 H       1  LIG1        0.0279
     21 H           1.8936    0.8795   -0.1921 H       1  LIG1        0.0279
     22 O           1.0726    4.5892   -1.2864 O.3     1  LIG1       -0.5053
     23 H           0.6900    5.4663   -1.4395 H       1  LIG1        0.2922
     24 C          -1.5015    5.6951   -0.1009 C.ar    1  LIG1        0.0365
     25 C          -0.8494    6.8714    0.2224 C.ar    1  LIG1        0.0070
     26 C          -1.6639    8.0164   -0.0516 C.ar    1  LIG1        0.1356
     27 C          -2.9228    7.7348   -0.5382 C.ar    1  LIG1        0.0685
     28 S          -3.1188    6.0001   -0.7198 S.2     1  LIG1       -0.0831
     29 C           0.5153    6.9888    0.8424 C.3     1  LIG1       -0.0351
     30 H           0.4939    7.7145    1.6610 H       1  LIG1        0.0279
     31 H           1.2657    7.3493    0.1279 H       1  LIG1        0.0279
     32 H           0.8530    6.0274    1.2341 H       1  LIG1        0.0279
     33 O          -1.1631    9.2623    0.1771 O.3     1  LIG1       -0.5053
     34 H          -1.8099    9.9100   -0.1416 H       1  LIG1        0.2922
     35 C          -3.9584    8.6998   -0.8749 C.ar    1  LIG1        0.0359
     36 C          -4.4709    9.7098   -0.0828 C.ar    1  LIG1        0.0064
     37 C          -5.4531   10.4861   -0.7867 C.ar    1  LIG1        0.1273
     38 C          -5.6907   10.0662   -2.0668 C.ar    1  LIG1        0.0180
     39 S          -4.6907    8.7060   -2.4747 S.2     1  LIG1       -0.0920
     40 H          -6.3944   10.4675   -2.7830 H       1  LIG1        0.0730
     41 C          -4.1381    9.9592    1.3620 C.3     1  LIG1       -0.0351
     42 H          -5.0553   10.1343    1.9321 H       1  LIG1        0.0279
     43 H          -3.5142   10.8517    1.4955 H       1  LIG1        0.0279
     44 H          -3.6106    9.1079    1.7966 H       1  LIG1        0.0279
     45 O          -6.0566   11.5220   -0.1306 O.3     1  LIG1       -0.5060
     46 H          -6.7304   11.9119   -0.7025 H       1  LIG1        0.2922
@<TRIPOS>BOND
     1    40    38    1
     2    39    38   ar
     3    39    35   ar
     4    38    37   ar
     5    20    18    1
     6    12    11    1
     7    23    22    1
     8    11     3    1
     9    22    15    1
    10    35    27    1
    11    35    36   ar
    12    37    45    1
    13    37    36   ar
    14     9     7    1
    15    18    19    1
    16    18    14    1
    17    18    21    1
    18    28    27   ar
    19    28    24   ar
    20    46    45    1
    21    15    14   ar
    22    15    16   ar
    23    27    26   ar
    24     8     7    1
    25    14    13   ar
    26    34    33    1
    27    24    16    1
    28    24    25   ar
    29    36    41    1
    30    26    33    1
    31    26    25   ar
    32    16    17   ar
    33     7    10    1
    34     7     2    1
    35     3     2   ar
    36     3     4   ar
    37    31    29    1
    38    25    29    1
    39    13    17   ar
    40    13     4    1
    41     2     1   ar
    42    29    32    1
    43    29    30    1
    44     4     5   ar
    45    41    43    1
    46    41    44    1
    47    41    42    1
    48     1     5   ar
    49     1     6    1
