@<TRIPOS>MOLECULE
mol_data/opt/b3lyp/geoms/mol2/5if5if.out
 24 25 0 0 0
SMALL
GASTEIGER

@<TRIPOS>ATOM
      1 C          -1.9091   -1.7739    0.8276 C.ar    1  LIG1       -0.0172
      2 C          -0.7699   -1.8195    0.0729 C.ar    1  LIG1       -0.0014
      3 C          -0.3471   -0.4985   -0.2936 C.ar    1  LIG1        0.1350
      4 C          -1.1453    0.5180    0.1869 C.ar    1  LIG1        0.0679
      5 S          -2.4773   -0.1594    1.1141 S.2     1  LIG1       -0.0921
      6 H          -2.4554   -2.6131    1.2362 H       1  LIG1        0.0697
      7 C          -0.0388   -3.0593   -0.3540 C.3     1  LIG1       -0.0357
      8 H           0.9838   -3.0713    0.0392 H       1  LIG1        0.0279
      9 H           0.0410   -3.1119   -1.4452 H       1  LIG1        0.0279
     10 H          -0.5507   -3.9587   -0.0028 H       1  LIG1        0.0279
     11 O           0.7519   -0.3393   -1.0836 O.3     1  LIG1       -0.5053
     12 H           0.8127    0.5965   -1.3282 H       1  LIG1        0.2922
     13 C          -0.9605    1.9443   -0.0313 C.ar    1  LIG1        0.0359
     14 C           0.1716    2.7009    0.2050 C.ar    1  LIG1        0.0064
     15 C          -0.0177    4.0711   -0.1818 C.ar    1  LIG1        0.1273
     16 C          -1.2614    4.3494   -0.6786 C.ar    1  LIG1        0.0180
     17 S          -2.2503    2.9215   -0.7221 S.2     1  LIG1       -0.0920
     18 H          -1.6526    5.3019   -1.0089 H       1  LIG1        0.0730
     19 C           1.4377    2.2173    0.8559 C.3     1  LIG1       -0.0351
     20 H           1.7905    2.9549    1.5827 H       1  LIG1        0.0279
     21 H           2.2510    2.0779    0.1328 H       1  LIG1        0.0279
     22 H           1.2751    1.2663    1.3674 H       1  LIG1        0.0279
     23 O           1.0156    4.9484   -0.0025 O.3     1  LIG1       -0.5060
     24 H           0.7278    5.8340   -0.2591 H       1  LIG1        0.2922
@<TRIPOS>BOND
     1     9     7    1
     2    12    11    1
     3    11     3    1
     4    18    16    1
     5    17    16   ar
     6    17    13   ar
     7    16    15   ar
     8     7    10    1
     9     7     8    1
    10     7     2    1
    11     3     2   ar
    12     3     4   ar
    13    24    23    1
    14    15    23    1
    15    15    14   ar
    16    13     4    1
    17    13    14   ar
    18     2     1   ar
    19    21    19    1
    20     4     5   ar
    21    14    19    1
    22     1     5   ar
    23     1     6    1
    24    19    22    1
    25    19    20    1
