@<TRIPOS>MOLECULE
mol_data/opt/b3lyp/geoms/mol2/5if5if-.out
 24 25 0 0 0
SMALL
GASTEIGER

@<TRIPOS>ATOM
      1 C          -1.8974   -1.7716    0.8485 C.ar    1  LIG1       -0.0172
      2 C          -0.7677   -1.8194    0.0798 C.ar    1  LIG1       -0.0014
      3 C          -0.3501   -0.4996   -0.2967 C.ar    1  LIG1        0.1350
      4 C          -1.1428    0.5183    0.1901 C.ar    1  LIG1        0.0679
      5 S          -2.4627   -0.1564    1.1363 S.2     1  LIG1       -0.0921
      6 H          -2.4382   -2.6097    1.2667 H       1  LIG1        0.0697
      7 C          -0.0414   -3.0603   -0.3518 C.3     1  LIG1       -0.0357
      8 H           0.9859   -3.0708    0.0293 H       1  LIG1        0.0279
      9 H           0.0255   -3.1164   -1.4437 H       1  LIG1        0.0279
     10 H          -0.5488   -3.9587    0.0084 H       1  LIG1        0.0279
     11 O           0.7387   -0.3427   -1.1011 O.3     1  LIG1       -0.5053
     12 H           0.7956    0.5922   -1.3501 H       1  LIG1        0.2922
     13 C          -0.9611    1.9439   -0.0347 C.ar    1  LIG1        0.0359
     14 C           0.1733    2.7017    0.1860 C.ar    1  LIG1        0.0064
     15 C          -0.0213    4.0708   -0.2024 C.ar    1  LIG1        0.1273
     16 C          -1.2710    4.3470   -0.6852 C.ar    1  LIG1        0.0180
     17 S          -2.2596    2.9185   -0.7130 S.2     1  LIG1       -0.0920
     18 H          -1.6666    5.2983   -1.0134 H       1  LIG1        0.0730
     19 C           1.4472    2.2203    0.8230 C.3     1  LIG1       -0.0351
     20 H           1.8133    2.9640    1.5367 H       1  LIG1        0.0279
     21 H           2.2492    2.0698    0.0895 H       1  LIG1        0.0279
     22 H           1.2886    1.2752    1.3466 H       1  LIG1        0.0279
     23 O           1.0135    4.9492   -0.0379 O.3     1  LIG1       -0.5060
     24 H           0.7224    5.8337   -0.2946 H       1  LIG1        0.2922
@<TRIPOS>BOND
     1     9     7    1
     2    12    11    1
     3    11     3    1
     4    18    16    1
     5    17    16   ar
     6    17    13   ar
     7    16    15   ar
     8     7    10    1
     9     7     8    1
    10     7     2    1
    11     3     2   ar
    12     3     4   ar
    13    24    23    1
    14    15    23    1
    15    15    14   ar
    16    13    14   ar
    17    13     4    1
    18     2     1   ar
    19    21    19    1
    20    14    19    1
    21     4     5   ar
    22    19    22    1
    23    19    20    1
    24     1     5   ar
    25     1     6    1
