@<TRIPOS>MOLECULE
mol_data/opt/b3lyp/geoms/mol2/5ig.out
 13 13 0 0 0
SMALL
GASTEIGER

@<TRIPOS>ATOM
      1 C          -2.1609   -1.6833    0.0902 C.ar    1  LIG1       -0.0204
      2 C          -0.7948   -1.6661    0.0219 C.ar    1  LIG1       -0.0303
      3 C          -0.2930   -0.3144   -0.0336 C.ar    1  LIG1        0.0147
      4 C          -1.2797    0.6327   -0.0059 C.ar    1  LIG1       -0.0109
      5 S          -2.8540   -0.0943    0.0888 S.2     1  LIG1       -0.1037
      6 H          -2.8024   -2.5522    0.1417 H       1  LIG1        0.0696
      7 H          -1.1790    1.7082   -0.0353 H       1  LIG1        0.0704
      8 C           0.0797   -2.8886    0.0060 C.3     1  LIG1       -0.0382
      9 H           0.7735   -2.8942    0.8549 H       1  LIG1        0.0278
     10 H           0.6858   -2.9341   -0.9065 H       1  LIG1        0.0278
     11 H          -0.5201   -3.8004    0.0565 H       1  LIG1        0.0278
     12 S           1.4639   -0.0128   -0.1278 S.3     1  LIG1       -0.1418
     13 H           1.3872    1.3314   -0.1535 H       1  LIG1        0.1071
@<TRIPOS>BOND
     1    10     8    1
     2    13    12    1
     3    12     3    1
     4     7     4    1
     5     3     4   ar
     6     3     2   ar
     7     4     5   ar
     8     8     2    1
     9     8    11    1
    10     8     9    1
    11     2     1   ar
    12     5     1   ar
    13     1     6    1
