@<TRIPOS>MOLECULE
mol_data/opt/b3lyp/geoms/mol2/5ig5ig-5ig-5ig.out
 46 49 0 0 0
SMALL
GASTEIGER

@<TRIPOS>ATOM
      1 C          -0.7392   -1.4471    2.3587 C.ar    1  LIG1       -0.0197
      2 C          -0.8602   -1.7481    1.0300 C.ar    1  LIG1       -0.0297
      3 C          -0.7591   -0.5657    0.2129 C.ar    1  LIG1        0.0230
      4 C          -0.5536    0.5951    0.9304 C.ar    1  LIG1        0.0396
      5 S          -0.4981    0.2403    2.6512 S.2     1  LIG1       -0.0947
      6 H          -0.7828   -2.1386    3.1894 H       1  LIG1        0.0696
      7 C          -1.0857   -3.1291    0.4816 C.3     1  LIG1       -0.0382
      8 H          -0.2770   -3.4279   -0.1957 H       1  LIG1        0.0278
      9 H          -2.0204   -3.1822   -0.0884 H       1  LIG1        0.0278
     10 H          -1.1387   -3.8657    1.2869 H       1  LIG1        0.0278
     11 S          -0.9433   -0.6893   -1.5527 S.3     1  LIG1       -0.1412
     12 H          -0.9442    0.6388   -1.7840 H       1  LIG1        0.1071
     13 C          -0.4077    1.9656    0.4451 C.ar    1  LIG1        0.0315
     14 C           0.6017    2.4975   -0.3327 C.ar    1  LIG1       -0.0214
     15 C           0.3873    3.8906   -0.6167 C.ar    1  LIG1        0.0236
     16 C          -0.7509    4.4165   -0.0398 C.ar    1  LIG1        0.0402
     17 S          -1.6110    3.1738    0.8476 S.2     1  LIG1       -0.0858
     18 C           1.8052    1.7358   -0.8111 C.3     1  LIG1       -0.0375
     19 H           2.7300    2.2405   -0.5085 H       1  LIG1        0.0278
     20 H           1.8229    1.6586   -1.9046 H       1  LIG1        0.0278
     21 H           1.8164    0.7248   -0.4011 H       1  LIG1        0.0278
     22 S           1.5348    4.7682   -1.6566 S.3     1  LIG1       -0.1412
     23 H           0.8285    5.9158   -1.6948 H       1  LIG1        0.1071
     24 C          -1.2692    5.7817   -0.1092 C.ar    1  LIG1        0.0315
     25 C          -0.7126    6.9361    0.4048 C.ar    1  LIG1       -0.0214
     26 C          -1.5130    8.0951    0.1160 C.ar    1  LIG1        0.0236
     27 C          -2.6729    7.8224   -0.5809 C.ar    1  LIG1        0.0402
     28 S          -2.7844    6.1076   -0.9253 S.2     1  LIG1       -0.0858
     29 C           0.5633    6.9931    1.1963 C.3     1  LIG1       -0.0375
     30 H           0.3972    7.4741    2.1671 H       1  LIG1        0.0278
     31 H           1.3323    7.5756    0.6753 H       1  LIG1        0.0278
     32 H           0.9595    5.9921    1.3736 H       1  LIG1        0.0278
     33 S          -0.9552    9.7058    0.6281 S.3     1  LIG1       -0.1412
     34 H          -1.9449   10.3881    0.0179 H       1  LIG1        0.1071
     35 C          -3.7104    8.7454   -1.0359 C.ar    1  LIG1        0.0309
     36 C          -4.5817    9.5007   -0.2758 C.ar    1  LIG1       -0.0220
     37 C          -5.4551   10.2977   -1.0977 C.ar    1  LIG1        0.0153
     38 C          -5.2483   10.1283   -2.4397 C.ar    1  LIG1       -0.0103
     39 S          -3.9724    9.0009   -2.7529 S.2     1  LIG1       -0.0947
     40 H          -5.7709   10.5988   -3.2606 H       1  LIG1        0.0704
     41 C          -4.6544    9.4753    1.2248 C.3     1  LIG1       -0.0376
     42 H          -5.6755    9.2589    1.5589 H       1  LIG1        0.0278
     43 H          -4.3702   10.4415    1.6586 H       1  LIG1        0.0278
     44 H          -3.9904    8.7139    1.6370 H       1  LIG1        0.0278
     45 S          -6.6682   11.3653   -0.3410 S.3     1  LIG1       -0.1418
     46 H          -7.2350   11.7844   -1.4887 H       1  LIG1        0.1071
@<TRIPOS>BOND
     1    40    38    1
     2    39    38   ar
     3    39    35   ar
     4    38    37   ar
     5    20    18    1
     6    12    11    1
     7    23    22    1
     8    22    15    1
     9    11     3    1
    10    46    45    1
    11    37    45    1
    12    37    36   ar
    13    35    27    1
    14    35    36   ar
    15    28    27   ar
    16    28    24   ar
    17    18    19    1
    18    18    21    1
    19    18    14    1
    20    15    14   ar
    21    15    16   ar
    22    27    26   ar
    23    14    13   ar
    24    36    41    1
    25     8     7    1
    26    24    16    1
    27    24    25   ar
    28     9     7    1
    29    16    17   ar
    30    34    33    1
    31    26    25   ar
    32    26    33    1
    33     3     4   ar
    34     3     2   ar
    35    25    29    1
    36    13    17   ar
    37    13     4    1
    38     7     2    1
    39     7    10    1
    40    31    29    1
    41     4     5   ar
    42     2     1   ar
    43    29    32    1
    44    29    30    1
    45    41    42    1
    46    41    44    1
    47    41    43    1
    48     1     5   ar
    49     1     6    1
