@<TRIPOS>MOLECULE
mol_data/opt/b3lyp/geoms/mol2/5ig5ig-5ig5ig.out
 46 49 0 0 0
SMALL
GASTEIGER

@<TRIPOS>ATOM
      1 C          -0.6910   -1.4239    2.4058 C.ar    1  LIG1       -0.0197
      2 C          -0.8309   -1.7372    1.0818 C.ar    1  LIG1       -0.0297
      3 C          -0.7444   -0.5619    0.2526 C.ar    1  LIG1        0.0230
      4 C          -0.5308    0.6057    0.9566 C.ar    1  LIG1        0.0396
      5 S          -0.4493    0.2666    2.6794 S.2     1  LIG1       -0.0947
      6 H          -0.7209   -2.1079    3.2432 H       1  LIG1        0.0696
      7 C          -1.0612   -3.1235    0.5492 C.3     1  LIG1       -0.0382
      8 H          -0.2606   -3.4275   -0.1353 H       1  LIG1        0.0278
      9 H          -2.0029   -3.1832   -0.0086 H       1  LIG1        0.0278
     10 H          -1.1032   -3.8526    1.3619 H       1  LIG1        0.0278
     11 S          -0.9539   -0.7018   -1.5089 S.3     1  LIG1       -0.1412
     12 H          -0.9613    0.6242   -1.7520 H       1  LIG1        0.1071
     13 C          -0.3952    1.9721    0.4568 C.ar    1  LIG1        0.0315
     14 C           0.6022    2.4992   -0.3395 C.ar    1  LIG1       -0.0214
     15 C           0.3806    3.8893   -0.6330 C.ar    1  LIG1        0.0236
     16 C          -0.7509    4.4177   -0.0453 C.ar    1  LIG1        0.0402
     17 S          -1.5958    3.1810    0.8649 S.2     1  LIG1       -0.0858
     18 C           1.8007    1.7358   -0.8277 C.3     1  LIG1       -0.0375
     19 H           2.7284    2.2458   -0.5437 H       1  LIG1        0.0278
     20 H           1.8027    1.6479   -1.9206 H       1  LIG1        0.0278
     21 H           1.8205    0.7290   -0.4079 H       1  LIG1        0.0278
     22 S           1.5114    4.7598   -1.6967 S.3     1  LIG1       -0.1412
     23 H           0.8023    5.9057   -1.7352 H       1  LIG1        0.1071
     24 C          -1.2734    5.7810   -0.1199 C.ar    1  LIG1        0.0315
     25 C          -0.7123    6.9414    0.3752 C.ar    1  LIG1       -0.0214
     26 C          -1.5198    8.0958    0.0874 C.ar    1  LIG1        0.0236
     27 C          -2.6891    7.8138   -0.5898 C.ar    1  LIG1        0.0402
     28 S          -2.8013    6.0956   -0.9167 S.2     1  LIG1       -0.0858
     29 C           0.5748    7.0088    1.1475 C.3     1  LIG1       -0.0375
     30 H           0.4221    7.5002    2.1152 H       1  LIG1        0.0278
     31 H           1.3353    7.5867    0.6091 H       1  LIG1        0.0278
     32 H           0.9751    6.0104    1.3300 H       1  LIG1        0.0278
     33 S          -0.9584    9.7125    0.5761 S.3     1  LIG1       -0.1412
     34 H          -1.9584   10.3869   -0.0262 H       1  LIG1        0.1071
     35 C          -3.7353    8.7302   -1.0385 C.ar    1  LIG1        0.0309
     36 C          -4.5966    9.4915   -0.2729 C.ar    1  LIG1       -0.0220
     37 C          -5.4838   10.2785   -1.0895 C.ar    1  LIG1        0.0153
     38 C          -5.2968   10.0961   -2.4327 C.ar    1  LIG1       -0.0103
     39 S          -4.0235    8.9681   -2.7537 S.2     1  LIG1       -0.0947
     40 H          -5.8327   10.5574   -3.2503 H       1  LIG1        0.0704
     41 C          -4.6469    9.4807    1.2288 C.3     1  LIG1       -0.0376
     42 H          -5.6626    9.2662    1.5802 H       1  LIG1        0.0278
     43 H          -4.3577   10.4515    1.6488 H       1  LIG1        0.0278
     44 H          -3.9757    8.7242    1.6385 H       1  LIG1        0.0278
     45 S          -6.6877   11.3514   -0.3253 S.3     1  LIG1       -0.1418
     46 H          -7.2702   11.7606   -1.4686 H       1  LIG1        0.1071
@<TRIPOS>BOND
     1    40    38    1
     2    39    38   ar
     3    39    35   ar
     4    38    37   ar
     5    20    18    1
     6    12    11    1
     7    23    22    1
     8    22    15    1
     9    11     3    1
    10    46    45    1
    11    37    45    1
    12    37    36   ar
    13    35    27    1
    14    35    36   ar
    15    28    27   ar
    16    28    24   ar
    17    18    19    1
    18    18    21    1
    19    18    14    1
    20    15    14   ar
    21    15    16   ar
    22    27    26   ar
    23    14    13   ar
    24    36    41    1
    25     8     7    1
    26    24    16    1
    27    24    25   ar
    28    16    17   ar
    29    34    33    1
    30     9     7    1
    31    26    25   ar
    32    26    33    1
    33     3     4   ar
    34     3     2   ar
    35    25    29    1
    36    13    17   ar
    37    13     4    1
    38     7     2    1
    39     7    10    1
    40    31    29    1
    41     4     5   ar
    42     2     1   ar
    43    29    32    1
    44    29    30    1
    45    41    42    1
    46    41    44    1
    47    41    43    1
    48     1     5   ar
    49     1     6    1
