@<TRIPOS>MOLECULE
mol_data/opt/b3lyp/geoms/mol2/5ig5ig-5ig.out
 35 37 0 0 0
SMALL
GASTEIGER

@<TRIPOS>ATOM
      1 C          -1.3910   -1.6323    1.7259 C.ar    1  LIG1       -0.0197
      2 C          -0.8467   -1.8628    0.4925 C.ar    1  LIG1       -0.0297
      3 C          -0.5024   -0.6294   -0.1679 C.ar    1  LIG1        0.0230
      4 C          -0.7782    0.5002    0.5755 C.ar    1  LIG1        0.0396
      5 S          -1.4933    0.0492    2.1169 S.2     1  LIG1       -0.0947
      6 H          -1.7426   -2.3735    2.4310 H       1  LIG1        0.0696
      7 C          -0.6440   -3.2231   -0.1135 C.3     1  LIG1       -0.0382
      8 H           0.4133   -3.4088   -0.3360 H       1  LIG1        0.0278
      9 H          -1.1947   -3.3245   -1.0558 H       1  LIG1        0.0278
     10 H          -0.9875   -4.0083    0.5644 H       1  LIG1        0.0278
     11 S           0.1697   -0.6630   -1.8154 S.3     1  LIG1       -0.1412
     12 H           0.1409    0.6719   -2.0015 H       1  LIG1        0.1071
     13 C          -0.5732    1.9049    0.2294 C.ar    1  LIG1        0.0315
     14 C           0.6171    2.5714    0.0159 C.ar    1  LIG1       -0.0214
     15 C           0.4088    3.9529   -0.3239 C.ar    1  LIG1        0.0236
     16 C          -0.9165    4.3385   -0.3381 C.ar    1  LIG1        0.0402
     17 S          -1.9488    2.9729    0.0386 S.2     1  LIG1       -0.0858
     18 C           1.9796    1.9514    0.1456 C.3     1  LIG1       -0.0375
     19 H           2.6016    2.5228    0.8443 H       1  LIG1        0.0278
     20 H           2.5067    1.9349   -0.8157 H       1  LIG1        0.0278
     21 H           1.9091    0.9254    0.5098 H       1  LIG1        0.0278
     22 S           1.8039    4.9904   -0.7058 S.3     1  LIG1       -0.1412
     23 H           1.0743    6.0682   -1.0578 H       1  LIG1        0.1071
     24 C          -1.4899    5.6512   -0.6266 C.ar    1  LIG1        0.0309
     25 C          -1.3618    6.8220    0.0950 C.ar    1  LIG1       -0.0220
     26 C          -2.0790    7.9094   -0.5184 C.ar    1  LIG1        0.0153
     27 C          -2.7381    7.5531   -1.6633 C.ar    1  LIG1       -0.0103
     28 S          -2.4990    5.8814   -2.0446 S.2     1  LIG1       -0.0947
     29 H          -3.3489    8.1743   -2.3033 H       1  LIG1        0.0704
     30 C          -0.6085    6.9545    1.3883 C.3     1  LIG1       -0.0376
     31 H          -1.2541    7.3686    2.1711 H       1  LIG1        0.0278
     32 H           0.2504    7.6289    1.2874 H       1  LIG1        0.0278
     33 H          -0.2367    5.9862    1.7270 H       1  LIG1        0.0278
     34 S          -2.0586    9.5294    0.2297 S.3     1  LIG1       -0.1418
     35 H          -2.9091   10.1070   -0.6402 H       1  LIG1        0.1071
@<TRIPOS>BOND
     1    29    27    1
     2    28    27   ar
     3    28    24   ar
     4    12    11    1
     5    11     3    1
     6    27    26   ar
     7    23    22    1
     8     9     7    1
     9    20    18    1
    10    22    15    1
    11    35    34    1
    12    24    16    1
    13    24    25   ar
    14    26    25   ar
    15    26    34    1
    16    16    15   ar
    17    16    17   ar
    18     8     7    1
    19    15    14   ar
    20     3     2   ar
    21     3     4   ar
    22     7     2    1
    23     7    10    1
    24    14    18    1
    25    14    13   ar
    26    17    13   ar
    27    25    30    1
    28    18    21    1
    29    18    19    1
    30    13     4    1
    31     2     1   ar
    32     4     5   ar
    33    32    30    1
    34    30    33    1
    35    30    31    1
    36     1     5   ar
    37     1     6    1
