@<TRIPOS>MOLECULE
mol_data/opt/b3lyp/geoms/mol2/5ig5ig-5ig5ig-.out
 46 49 0 0 0
SMALL
GASTEIGER

@<TRIPOS>ATOM
      1 C          -0.6835   -1.4428    2.3495 C.ar    1  LIG1       -0.0197
      2 C          -0.8321   -1.7459    1.0241 C.ar    1  LIG1       -0.0297
      3 C          -0.7493   -0.5645    0.2034 C.ar    1  LIG1        0.0230
      4 C          -0.5299    0.5975    0.9148 C.ar    1  LIG1        0.0396
      5 S          -0.4379    0.2452    2.6344 S.2     1  LIG1       -0.0947
      6 H          -0.7089   -2.1332    3.1819 H       1  LIG1        0.0696
      7 C          -1.0677   -3.1278    0.4825 C.3     1  LIG1       -0.0382
      8 H          -0.2729   -3.4269   -0.2109 H       1  LIG1        0.0278
      9 H          -2.0139   -3.1826   -0.0680 H       1  LIG1        0.0278
     10 H          -1.1033   -3.8633    1.2898 H       1  LIG1        0.0278
     11 S          -0.9704   -0.6908   -1.5578 S.3     1  LIG1       -0.1412
     12 H          -0.9771    0.6370   -1.7909 H       1  LIG1        0.1071
     13 C          -0.3957    1.9675    0.4245 C.ar    1  LIG1        0.0315
     14 C           0.5971    2.4993   -0.3744 C.ar    1  LIG1       -0.0214
     15 C           0.3754    3.8918   -0.6561 C.ar    1  LIG1        0.0236
     16 C          -0.7516    4.4172   -0.0570 C.ar    1  LIG1        0.0402
     17 S          -1.5920    3.1748    0.8495 S.2     1  LIG1       -0.0858
     18 C           1.7915    1.7382   -0.8761 C.3     1  LIG1       -0.0375
     19 H           2.7217    2.2443   -0.5930 H       1  LIG1        0.0278
     20 H           1.7871    1.6596   -1.9697 H       1  LIG1        0.0278
     21 H           1.8121    0.7278   -0.4650 H       1  LIG1        0.0278
     22 S           1.5005    4.7691   -1.7203 S.3     1  LIG1       -0.1412
     23 H           0.7921    5.9158   -1.7461 H       1  LIG1        0.1071
     24 C          -1.2728    5.7817   -0.1180 C.ar    1  LIG1        0.0315
     25 C          -0.7075    6.9376    0.3829 C.ar    1  LIG1       -0.0214
     26 C          -1.5150    8.0951    0.1086 C.ar    1  LIG1        0.0236
     27 C          -2.6884    7.8199   -0.5643 C.ar    1  LIG1        0.0402
     28 S          -2.8046    6.1044   -0.9038 S.2     1  LIG1       -0.0858
     29 C           0.5842    6.9974    1.1482 C.3     1  LIG1       -0.0375
     30 H           0.4373    7.4797    2.1214 H       1  LIG1        0.0278
     31 H           1.3417    7.5800    0.6108 H       1  LIG1        0.0278
     32 H           0.9852    5.9972    1.3190 H       1  LIG1        0.0278
     33 S          -0.9487    9.7073    0.6065 S.3     1  LIG1       -0.1412
     34 H          -1.9519   10.3875    0.0163 H       1  LIG1        0.1071
     35 C          -3.7360    8.7409   -0.9997 C.ar    1  LIG1        0.0309
     36 C          -4.5918    9.4975   -0.2232 C.ar    1  LIG1       -0.0220
     37 C          -5.4829   10.2917   -1.0286 C.ar    1  LIG1        0.0153
     38 C          -5.3041   10.1193   -2.3742 C.ar    1  LIG1       -0.0103
     39 S          -4.0343    8.9920   -2.7113 S.2     1  LIG1       -0.0947
     40 H          -5.8442   10.5875   -3.1851 H       1  LIG1        0.0704
     41 C          -4.6332    9.4753    1.2786 C.3     1  LIG1       -0.0376
     42 H          -5.6471    9.2598    1.6343 H       1  LIG1        0.0278
     43 H          -4.3399   10.4424    1.7044 H       1  LIG1        0.0278
     44 H          -3.9608    8.7146    1.6785 H       1  LIG1        0.0278
     45 S          -6.6807   11.3603   -0.2492 S.3     1  LIG1       -0.1418
     46 H          -7.2731   11.7747   -1.3856 H       1  LIG1        0.1071
@<TRIPOS>BOND
     1    40    38    1
     2    39    38   ar
     3    39    35   ar
     4    38    37   ar
     5    20    18    1
     6    12    11    1
     7    23    22    1
     8    22    15    1
     9    11     3    1
    10    46    45    1
    11    37    45    1
    12    37    36   ar
    13    35    27    1
    14    35    36   ar
    15    28    27   ar
    16    28    24   ar
    17    18    19    1
    18    18    21    1
    19    18    14    1
    20    15    14   ar
    21    15    16   ar
    22    27    26   ar
    23    14    13   ar
    24    36    41    1
    25     8     7    1
    26    24    16    1
    27    24    25   ar
    28     9     7    1
    29    16    17   ar
    30    34    33    1
    31    26    25   ar
    32    26    33    1
    33     3     4   ar
    34     3     2   ar
    35    25    29    1
    36    13    17   ar
    37    13     4    1
    38     7     2    1
    39     7    10    1
    40    31    29    1
    41     4     5   ar
    42     2     1   ar
    43    29    32    1
    44    29    30    1
    45    41    42    1
    46    41    44    1
    47    41    43    1
    48     1     5   ar
    49     1     6    1
