@<TRIPOS>MOLECULE
mol_data/opt/b3lyp/geoms/mol2/5ig5ig.out
 24 25 0 0 0
SMALL
GASTEIGER

@<TRIPOS>ATOM
      1 C          -1.8557   -1.7521    0.9273 C.ar    1  LIG1       -0.0197
      2 C          -0.7826   -1.8622    0.0864 C.ar    1  LIG1       -0.0297
      3 C          -0.3343   -0.5692   -0.3638 C.ar    1  LIG1        0.0230
      4 C          -1.0609    0.4863    0.1488 C.ar    1  LIG1        0.0396
      5 S          -2.3373   -0.1135    1.1986 S.2     1  LIG1       -0.0947
      6 H          -2.3942   -2.5600    1.4041 H       1  LIG1        0.0696
      7 C          -0.1538   -3.1610   -0.3338 C.3     1  LIG1       -0.0382
      8 H           0.9015   -3.2084   -0.0403 H       1  LIG1        0.0278
      9 H          -0.1921   -3.2877   -1.4219 H       1  LIG1        0.0278
     10 H          -0.6677   -4.0101    0.1233 H       1  LIG1        0.0278
     11 S           1.0164   -0.4480   -1.5164 S.3     1  LIG1       -0.1412
     12 H           0.9098    0.8822   -1.7089 H       1  LIG1        0.1071
     13 C          -0.8977    1.9182   -0.0882 C.ar    1  LIG1        0.0309
     14 C           0.1604    2.7328    0.2647 C.ar    1  LIG1       -0.0220
     15 C          -0.0490    4.0945   -0.1539 C.ar    1  LIG1        0.0153
     16 C          -1.2430    4.2934   -0.7918 C.ar    1  LIG1       -0.0103
     17 S          -2.1507    2.8247   -0.9203 S.2     1  LIG1       -0.0947
     18 H          -1.6411    5.2157   -1.1913 H       1  LIG1        0.0704
     19 C           1.3710    2.2806    1.0313 C.3     1  LIG1       -0.0376
     20 H           1.5169    2.8988    1.9245 H       1  LIG1        0.0278
     21 H           2.2838    2.3622    0.4290 H       1  LIG1        0.0278
     22 H           1.2688    1.2409    1.3462 H       1  LIG1        0.0278
     23 S           1.1868    5.3363    0.1874 S.3     1  LIG1       -0.1418
     24 H           0.4931    6.3778   -0.3107 H       1  LIG1        0.1071
@<TRIPOS>BOND
     1    12    11    1
     2    11     3    1
     3     9     7    1
     4    18    16    1
     5    17    16   ar
     6    17    13   ar
     7    16    15   ar
     8     3     2   ar
     9     3     4   ar
    10     7     8    1
    11     7     2    1
    12     7    10    1
    13    24    23    1
    14    15    23    1
    15    15    14   ar
    16    13     4    1
    17    13    14   ar
    18     2     1   ar
    19     4     5   ar
    20    14    19    1
    21    21    19    1
    22     1     5   ar
    23     1     6    1
    24    19    22    1
    25    19    20    1
