@<TRIPOS>MOLECULE
mol_data/opt/b3lyp/geoms/mol2/5ig5ig-5ig-.out
 35 37 0 0 0
SMALL
GASTEIGER

@<TRIPOS>ATOM
      1 C          -1.3666   -1.6322    1.7430 C.ar    1  LIG1       -0.0197
      2 C          -0.8274   -1.8628    0.5074 C.ar    1  LIG1       -0.0297
      3 C          -0.4907   -0.6294   -0.1568 C.ar    1  LIG1        0.0230
      4 C          -0.7671    0.5005    0.5860 C.ar    1  LIG1        0.0396
      5 S          -1.4731    0.0497    2.1315 S.2     1  LIG1       -0.0947
      6 H          -1.7122   -2.3733    2.4510 H       1  LIG1        0.0696
      7 C          -0.6227   -3.2235   -0.0971 C.3     1  LIG1       -0.0382
      8 H           0.4344   -3.4060   -0.3238 H       1  LIG1        0.0278
      9 H          -1.1770   -3.3284   -1.0370 H       1  LIG1        0.0278
     10 H          -0.9606   -4.0086    0.5835 H       1  LIG1        0.0278
     11 S           0.1731   -0.6636   -1.8076 S.3     1  LIG1       -0.1412
     12 H           0.1391    0.6708   -1.9958 H       1  LIG1        0.1071
     13 C          -0.5686    1.9053    0.2367 C.ar    1  LIG1        0.0315
     14 C           0.6185    2.5754    0.0155 C.ar    1  LIG1       -0.0214
     15 C           0.4037    3.9556   -0.3253 C.ar    1  LIG1        0.0236
     16 C          -0.9228    4.3368   -0.3328 C.ar    1  LIG1        0.0402
     17 S          -1.9485    2.9686    0.0517 S.2     1  LIG1       -0.0858
     18 C           1.9837    1.9602    0.1392 C.3     1  LIG1       -0.0375
     19 H           2.6077    2.5355    0.8327 H       1  LIG1        0.0278
     20 H           2.5054    1.9424   -0.8250 H       1  LIG1        0.0278
     21 H           1.9185    0.9349    0.5067 H       1  LIG1        0.0278
     22 S           1.7932    4.9974   -0.7156 S.3     1  LIG1       -0.1412
     23 H           1.0582    6.0723   -1.0649 H       1  LIG1        0.1071
     24 C          -1.5019    5.6474   -0.6202 C.ar    1  LIG1        0.0309
     25 C          -1.3755    6.8190    0.1003 C.ar    1  LIG1       -0.0220
     26 C          -2.0985    7.9036   -0.5114 C.ar    1  LIG1        0.0153
     27 C          -2.7601    7.5444   -1.6539 C.ar    1  LIG1       -0.0103
     28 S          -2.5165    5.8733   -2.0351 S.2     1  LIG1       -0.0947
     29 H          -3.3752    8.1631   -2.2922 H       1  LIG1        0.0704
     30 C          -0.6177    6.9550    1.3906 C.3     1  LIG1       -0.0376
     31 H          -1.2620    7.3667    2.1759 H       1  LIG1        0.0278
     32 H           0.2379    7.6329    1.2861 H       1  LIG1        0.0278
     33 H          -0.2407    5.9883    1.7280 H       1  LIG1        0.0278
     34 S          -2.0811    9.5242    0.2359 S.3     1  LIG1       -0.1418
     35 H          -2.9355   10.0987   -0.6323 H       1  LIG1        0.1071
@<TRIPOS>BOND
     1    29    27    1
     2    28    27   ar
     3    28    24   ar
     4    12    11    1
     5    11     3    1
     6    27    26   ar
     7    23    22    1
     8     9     7    1
     9    20    18    1
    10    22    15    1
    11    35    34    1
    12    24    16    1
    13    24    25   ar
    14    26    25   ar
    15    26    34    1
    16    16    15   ar
    17    16    17   ar
    18    15    14   ar
    19     8     7    1
    20     3     2   ar
    21     3     4   ar
    22     7     2    1
    23     7    10    1
    24    14    18    1
    25    14    13   ar
    26    17    13   ar
    27    25    30    1
    28    18    21    1
    29    18    19    1
    30    13     4    1
    31     2     1   ar
    32     4     5   ar
    33    32    30    1
    34    30    33    1
    35    30    31    1
    36     1     5   ar
    37     1     6    1
