@<TRIPOS>MOLECULE
mol_data/opt/b3lyp/geoms/mol2/5ig5ig5ig-5ig.out
 46 49 0 0 0
SMALL
GASTEIGER

@<TRIPOS>ATOM
      1 C          -0.7784   -1.4164    2.4335 C.ar    1  LIG1       -0.0197
      2 C          -0.8784   -1.7343    1.1070 C.ar    1  LIG1       -0.0297
      3 C          -0.7639   -0.5624    0.2766 C.ar    1  LIG1        0.0230
      4 C          -0.5694    0.6075    0.9825 C.ar    1  LIG1        0.0396
      5 S          -0.5414    0.2746    2.7083 S.2     1  LIG1       -0.0947
      6 H          -0.8356   -2.0972    3.2722 H       1  LIG1        0.0696
      7 C          -1.0956   -3.1221    0.5727 C.3     1  LIG1       -0.0382
      8 H          -0.2753   -3.4303   -0.0861 H       1  LIG1        0.0278
      9 H          -2.0200   -3.1819   -0.0132 H       1  LIG1        0.0278
     10 H          -1.1636   -3.8481    1.3864 H       1  LIG1        0.0278
     11 S          -0.9195   -0.7083   -1.4899 S.3     1  LIG1       -0.1412
     12 H          -0.9176    0.6168   -1.7379 H       1  LIG1        0.1071
     13 C          -0.4152    1.9716    0.4821 C.ar    1  LIG1        0.0315
     14 C           0.6076    2.4937   -0.2848 C.ar    1  LIG1       -0.0214
     15 C           0.3982    3.8830   -0.5903 C.ar    1  LIG1        0.0236
     16 C          -0.7498    4.4161   -0.0399 C.ar    1  LIG1        0.0402
     17 S          -1.6252    3.1846    0.8483 S.2     1  LIG1       -0.0858
     18 C           1.8188    1.7259   -0.7329 C.3     1  LIG1       -0.0375
     19 H           2.7384    2.2351   -0.4224 H       1  LIG1        0.0278
     20 H           1.8542    1.6335   -1.8249 H       1  LIG1        0.0278
     21 H           1.8235    0.7207   -0.3087 H       1  LIG1        0.0278
     22 S           1.5634    4.7471   -1.6216 S.3     1  LIG1       -0.1412
     23 H           0.8582    5.8943   -1.6866 H       1  LIG1        0.1071
     24 C          -1.2668    5.7801   -0.1358 C.ar    1  LIG1        0.0315
     25 C          -0.7189    6.9413    0.3724 C.ar    1  LIG1       -0.0214
     26 C          -1.5145    8.0962    0.0552 C.ar    1  LIG1        0.0236
     27 C          -2.6625    7.8141   -0.6573 C.ar    1  LIG1        0.0402
     28 S          -2.7682    6.0950   -0.9811 S.2     1  LIG1       -0.0858
     29 C           0.5435    7.0089    1.1843 C.3     1  LIG1       -0.0375
     30 H           0.3615    7.5037    2.1452 H       1  LIG1        0.0278
     31 H           1.3216    7.5836    0.6682 H       1  LIG1        0.0278
     32 H           0.9361    6.0104    1.3824 H       1  LIG1        0.0278
     33 S          -0.9652    9.7135    0.5554 S.3     1  LIG1       -0.1412
     34 H          -1.9446   10.3877   -0.0800 H       1  LIG1        0.1071
     35 C          -3.6923    8.7308   -1.1417 C.ar    1  LIG1        0.0309
     36 C          -4.5760    9.4962   -0.4063 C.ar    1  LIG1       -0.0220
     37 C          -5.4354   10.2821   -1.2532 C.ar    1  LIG1        0.0153
     38 C          -5.2064   10.0948   -2.5892 C.ar    1  LIG1       -0.0103
     39 S          -3.9257    8.9634   -2.8660 S.2     1  LIG1       -0.0947
     40 H          -5.7153   10.5543   -3.4249 H       1  LIG1        0.0704
     41 C          -4.6738    9.4906    1.0931 C.3     1  LIG1       -0.0376
     42 H          -5.7002    9.2776    1.4128 H       1  LIG1        0.0278
     43 H          -4.3977   10.4628    1.5188 H       1  LIG1        0.0278
     44 H          -4.0162    8.7354    1.5264 H       1  LIG1        0.0278
     45 S          -6.6608   11.3597   -0.5310 S.3     1  LIG1       -0.1418
     46 H          -7.2070   11.7651   -1.6935 H       1  LIG1        0.1071
@<TRIPOS>BOND
     1    40    38    1
     2    39    38   ar
     3    39    35   ar
     4    38    37   ar
     5    20    18    1
     6    12    11    1
     7    46    45    1
     8    23    22    1
     9    22    15    1
    10    11     3    1
    11    37    45    1
    12    37    36   ar
    13    35    27    1
    14    35    36   ar
    15    28    27   ar
    16    28    24   ar
    17    18    19    1
    18    18    21    1
    19    18    14    1
    20    27    26   ar
    21    15    14   ar
    22    15    16   ar
    23    36    41    1
    24    14    13   ar
    25    24    16    1
    26    24    25   ar
    27     8     7    1
    28    34    33    1
    29    16    17   ar
    30     9     7    1
    31    26    25   ar
    32    26    33    1
    33     3     4   ar
    34     3     2   ar
    35    25    29    1
    36    13    17   ar
    37    13     4    1
    38     7     2    1
    39     7    10    1
    40    31    29    1
    41     4     5   ar
    42    41    42    1
    43    41    43    1
    44    41    44    1
    45     2     1   ar
    46    29    32    1
    47    29    30    1
    48     1     5   ar
    49     1     6    1
