@<TRIPOS>MOLECULE
mol_data/opt/b3lyp/geoms/mol2/5ig5ig5ig-.out
 35 37 0 0 0
SMALL
GASTEIGER

@<TRIPOS>ATOM
      1 C          -1.4517   -1.6287    1.7062 C.ar    1  LIG1       -0.0197
      2 C          -0.8780   -1.8616    0.4867 C.ar    1  LIG1       -0.0297
      3 C          -0.5124   -0.6297   -0.1651 C.ar    1  LIG1        0.0230
      4 C          -0.8020    0.5011    0.5711 C.ar    1  LIG1        0.0396
      5 S          -1.5569    0.0534    2.0944 S.2     1  LIG1       -0.0947
      6 H          -1.8236   -2.3682    2.4025 H       1  LIG1        0.0696
      7 C          -0.6658   -3.2227   -0.1140 C.3     1  LIG1       -0.0382
      8 H           0.3959   -3.4125   -0.3107 H       1  LIG1        0.0278
      9 H          -1.1938   -3.3222   -1.0694 H       1  LIG1        0.0278
     10 H          -1.0286   -4.0065    0.5554 H       1  LIG1        0.0278
     11 S           0.1999   -0.6664   -1.7955 S.3     1  LIG1       -0.1412
     12 H           0.1824    0.6686   -1.9818 H       1  LIG1        0.1071
     13 C          -0.5827    1.9050    0.2304 C.ar    1  LIG1        0.0315
     14 C           0.6153    2.5668    0.0467 C.ar    1  LIG1       -0.0214
     15 C           0.4209    3.9491   -0.2980 C.ar    1  LIG1        0.0236
     16 C          -0.9020    4.3399   -0.3454 C.ar    1  LIG1        0.0402
     17 S          -1.9488    2.9785    0.0053 S.2     1  LIG1       -0.0858
     18 C           1.9716    1.9415    0.2107 C.3     1  LIG1       -0.0375
     19 H           2.5777    2.5102    0.9252 H       1  LIG1        0.0278
     20 H           2.5228    1.9234   -0.7369 H       1  LIG1        0.0278
     21 H           1.8878    0.9156    0.5724 H       1  LIG1        0.0278
     22 S           1.8293    4.9813   -0.6444 S.3     1  LIG1       -0.1412
     23 H           1.1129    6.0619   -1.0143 H       1  LIG1        0.1071
     24 C          -1.4628    5.6550   -0.6480 C.ar    1  LIG1        0.0309
     25 C          -1.3494    6.8248    0.0775 C.ar    1  LIG1       -0.0220
     26 C          -2.0462    7.9153   -0.5538 C.ar    1  LIG1        0.0153
     27 C          -2.6762    7.5621   -1.7159 C.ar    1  LIG1       -0.0103
     28 S          -2.4333    5.8898   -2.0920 S.2     1  LIG1       -0.0947
     29 H          -3.2677    8.1859   -2.3713 H       1  LIG1        0.0704
     30 C          -0.6297    6.9538    1.3901 C.3     1  LIG1       -0.0376
     31 H          -1.2940    7.3696    2.1562 H       1  LIG1        0.0278
     32 H           0.2338    7.6253    1.3121 H       1  LIG1        0.0278
     33 H          -0.2702    5.9840    1.7375 H       1  LIG1        0.0278
     34 S          -2.0394    9.5348    0.1958 S.3     1  LIG1       -0.1418
     35 H          -2.8629   10.1167   -0.6969 H       1  LIG1        0.1071
@<TRIPOS>BOND
     1    29    27    1
     2    28    27   ar
     3    28    24   ar
     4    12    11    1
     5    11     3    1
     6    27    26   ar
     7     9     7    1
     8    23    22    1
     9    20    18    1
    10    35    34    1
    11    24    16    1
    12    24    25   ar
    13    22    15    1
    14    26    25   ar
    15    26    34    1
    16    16    15   ar
    17    16    17   ar
    18     8     7    1
    19    15    14   ar
    20     3     2   ar
    21     3     4   ar
    22     7     2    1
    23     7    10    1
    24    17    13   ar
    25    14    18    1
    26    14    13   ar
    27    25    30    1
    28    18    21    1
    29    18    19    1
    30    13     4    1
    31     2     1   ar
    32     4     5   ar
    33    32    30    1
    34    30    33    1
    35    30    31    1
    36     1     5   ar
    37     1     6    1
