@<TRIPOS>MOLECULE
mol_data/opt/b3lyp/geoms/mol2/5ig5ig-.out
 24 25 0 0 0
SMALL
GASTEIGER

@<TRIPOS>ATOM
      1 C          -1.8459   -1.7492    0.9423 C.ar    1  LIG1       -0.0197
      2 C          -0.7816   -1.8622    0.0906 C.ar    1  LIG1       -0.0297
      3 C          -0.3377   -0.5708   -0.3683 C.ar    1  LIG1        0.0230
      4 C          -1.0589    0.4864    0.1481 C.ar    1  LIG1        0.0396
      5 S          -2.3243   -0.1095    1.2131 S.2     1  LIG1       -0.0947
      6 H          -2.3797   -2.5554    1.4273 H       1  LIG1        0.0696
      7 C          -0.1573   -3.1625   -0.3316 C.3     1  LIG1       -0.0382
      8 H           0.9007   -3.2094   -0.0482 H       1  LIG1        0.0278
      9 H          -0.2061   -3.2925   -1.4190 H       1  LIG1        0.0278
     10 H          -0.6672   -4.0101    0.1329 H       1  LIG1        0.0278
     11 S           1.0013   -0.4538   -1.5349 S.3     1  LIG1       -0.1412
     12 H           0.8959    0.8765   -1.7275 H       1  LIG1        0.1071
     13 C          -0.8978    1.9178   -0.0949 C.ar    1  LIG1        0.0309
     14 C           0.1625    2.7339    0.2479 C.ar    1  LIG1       -0.0220
     15 C          -0.0505    4.0941   -0.1738 C.ar    1  LIG1        0.0153
     16 C          -1.2490    4.2904   -0.8040 C.ar    1  LIG1       -0.0103
     17 S          -2.1570    2.8209   -0.9210 S.2     1  LIG1       -0.0947
     18 H          -1.6502    5.2110   -1.2040 H       1  LIG1        0.0704
     19 C           1.3787    2.2848    1.0073 C.3     1  LIG1       -0.0376
     20 H           1.5303    2.9054    1.8979 H       1  LIG1        0.0278
     21 H           2.2872    2.3659    0.3984 H       1  LIG1        0.0278
     22 H           1.2797    1.2459    1.3255 H       1  LIG1        0.0278
     23 S           1.1872    5.3376    0.1544 S.3     1  LIG1       -0.1418
     24 H           0.4898    6.3770   -0.3426 H       1  LIG1        0.1071
@<TRIPOS>BOND
     1    12    11    1
     2    11     3    1
     3     9     7    1
     4    18    16    1
     5    17    16   ar
     6    17    13   ar
     7    16    15   ar
     8     3     2   ar
     9     3     4   ar
    10    24    23    1
    11     7     8    1
    12     7     2    1
    13     7    10    1
    14    15    23    1
    15    15    14   ar
    16    13     4    1
    17    13    14   ar
    18     2     1   ar
    19     4     5   ar
    20    14    19    1
    21    21    19    1
    22     1     5   ar
    23     1     6    1
    24    19    22    1
    25    19    20    1
