@<TRIPOS>MOLECULE
mol_data/opt/b3lyp/geoms/mol2/5ih.out
 14 14 0 0 0
SMALL
GASTEIGER

@<TRIPOS>ATOM
      1 C          -2.1452   -1.6693    0.0962 C.ar    1  LIG1       -0.0196
      2 C          -0.7813   -1.6689    0.0087 C.ar    1  LIG1       -0.0228
      3 C          -0.2509   -0.3273   -0.0780 C.ar    1  LIG1        0.0346
      4 C          -1.2303    0.6320   -0.0547 C.ar    1  LIG1       -0.0034
      5 S          -2.8160   -0.0704    0.0903 S.2     1  LIG1       -0.1029
      6 H          -2.7965   -2.5288    0.1753 H       1  LIG1        0.0696
      7 H          -1.1119    1.7055   -0.1015 H       1  LIG1        0.0712
      8 C           0.0892   -2.8940    0.0152 C.3     1  LIG1       -0.0375
      9 H           0.8357   -2.8430    0.8165 H       1  LIG1        0.0278
     10 H           0.6379   -3.0117   -0.9294 H       1  LIG1        0.0278
     11 H          -0.5040   -3.8001    0.1603 H       1  LIG1        0.0278
     12 N           1.1341   -0.0889   -0.1001 N.pl3   1  LIG1       -0.3573
     13 H           1.6430   -0.7415   -0.6853 H       1  LIG1        0.1423
     14 H           1.3720    0.8603   -0.3601 H       1  LIG1        0.1423
@<TRIPOS>BOND
     1    10     8    1
     2    13    12    1
     3    14    12    1
     4     7     4    1
     5    12     3    1
     6     3     4   ar
     7     3     2   ar
     8     4     5   ar
     9     2     8    1
    10     2     1   ar
    11     8    11    1
    12     8     9    1
    13     5     1   ar
    14     1     6    1
