@<TRIPOS>MOLECULE
mol_data/opt/b3lyp/geoms/mol2/5ih5ih-5ih-5ih-.out
 50 53 0 0 0
SMALL
GASTEIGER

@<TRIPOS>ATOM
      1 C          -0.9396   -1.5873    2.1613 C.ar    1  LIG1       -0.0190
      2 C          -0.6999   -1.8233    0.8361 C.ar    1  LIG1       -0.0222
      3 C          -0.4962   -0.5985    0.1042 C.ar    1  LIG1        0.0430
      4 C          -0.5722    0.5344    0.8944 C.ar    1  LIG1        0.0471
      5 S          -0.9055    0.0948    2.5664 S.2     1  LIG1       -0.0940
      6 H          -1.1273   -2.3242    2.9305 H       1  LIG1        0.0697
      7 C          -0.6554   -3.1803    0.1920 C.3     1  LIG1       -0.0374
      8 H           0.3011   -3.3480   -0.3171 H       1  LIG1        0.0278
      9 H          -1.4472   -3.3021   -0.5599 H       1  LIG1        0.0278
     10 H          -0.7882   -3.9727    0.9326 H       1  LIG1        0.0278
     11 N          -0.2205   -0.5945   -1.2688 N.pl3   1  LIG1       -0.3569
     12 H          -0.7085   -1.3215   -1.7786 H       1  LIG1        0.1424
     13 H          -0.3858    0.3102   -1.6957 H       1  LIG1        0.1424
     14 C          -0.4359    1.9208    0.4727 C.ar    1  LIG1        0.0330
     15 C           0.6085    2.5049   -0.2182 C.ar    1  LIG1       -0.0139
     16 C           0.3723    3.8954   -0.4992 C.ar    1  LIG1        0.0436
     17 C          -0.8242    4.3719    0.0054 C.ar    1  LIG1        0.0477
     18 S          -1.7057    3.0839    0.8131 S.2     1  LIG1       -0.0850
     19 C           1.8921    1.8162   -0.5907 C.3     1  LIG1       -0.0368
     20 H           2.7502    2.4470   -0.3318 H       1  LIG1        0.0278
     21 H           1.9582    1.5999   -1.6659 H       1  LIG1        0.0278
     22 H           1.9895    0.8633   -0.0679 H       1  LIG1        0.0278
     23 N           1.3151    4.6785   -1.1777 N.pl3   1  LIG1       -0.3568
     24 H           1.8017    4.1769   -1.9111 H       1  LIG1        0.1424
     25 H           0.9192    5.5400   -1.5366 H       1  LIG1        0.1424
     26 C          -1.3549    5.7229   -0.1011 C.ar    1  LIG1        0.0330
     27 C          -0.7511    6.9111    0.2639 C.ar    1  LIG1       -0.0139
     28 C          -1.5676    8.0569   -0.0341 C.ar    1  LIG1        0.0436
     29 C          -2.7948    7.7402   -0.5873 C.ar    1  LIG1        0.0477
     30 S          -2.9501    6.0008   -0.7804 S.2     1  LIG1       -0.0850
     31 C           0.5757    7.0292    0.9614 C.3     1  LIG1       -0.0368
     32 H           0.4985    7.7205    1.8083 H       1  LIG1        0.0278
     33 H           1.3675    7.4090    0.3010 H       1  LIG1        0.0278
     34 H           0.9093    6.0591    1.3331 H       1  LIG1        0.0278
     35 N          -1.1492    9.3581    0.2731 N.pl3   1  LIG1       -0.3568
     36 H          -0.1573    9.5060    0.1302 H       1  LIG1        0.1424
     37 H          -1.6901   10.0639   -0.2137 H       1  LIG1        0.1424
     38 C          -3.8464    8.6609   -0.9943 C.ar    1  LIG1        0.0324
     39 C          -4.4652    9.6427   -0.2454 C.ar    1  LIG1       -0.0145
     40 C          -5.4414   10.3830   -1.0070 C.ar    1  LIG1        0.0352
     41 C          -5.5563    9.9460   -2.3014 C.ar    1  LIG1       -0.0028
     42 S          -4.4775    8.6265   -2.6358 S.2     1  LIG1       -0.0939
     43 H          -6.2281   10.3100   -3.0665 H       1  LIG1        0.0712
     44 C          -4.2427    9.8822    1.2221 C.3     1  LIG1       -0.0369
     45 H          -5.2047    9.9802    1.7375 H       1  LIG1        0.0278
     46 H          -3.6725   10.8010    1.4175 H       1  LIG1        0.0278
     47 H          -3.6861    9.0593    1.6736 H       1  LIG1        0.0278
     48 N          -6.2370   11.3711   -0.4034 N.pl3   1  LIG1       -0.3573
     49 H          -5.7236   11.9688    0.2335 H       1  LIG1        0.1423
     50 H          -6.7519   11.9345   -1.0684 H       1  LIG1        0.1423
@<TRIPOS>BOND
     1    43    41    1
     2    42    41   ar
     3    42    38   ar
     4    41    40   ar
     5    24    23    1
     6    12    11    1
     7    13    11    1
     8    21    19    1
     9    25    23    1
    10    11     3    1
    11    23    16    1
    12    50    48    1
    13    40    48    1
    14    40    39   ar
    15    38    29    1
    16    38    39   ar
    17    30    29   ar
    18    30    26   ar
    19    19    20    1
    20    19    15    1
    21    19    22    1
    22    29    28   ar
    23     9     7    1
    24    16    15   ar
    25    16    17   ar
    26    48    49    1
    27     8     7    1
    28    39    44    1
    29    15    14   ar
    30    37    35    1
    31    26    17    1
    32    26    27   ar
    33    28    27   ar
    34    28    35    1
    35    17    18   ar
    36     3     2   ar
    37     3     4   ar
    38    36    35    1
    39     7     2    1
    40     7    10    1
    41    27    31    1
    42    33    31    1
    43    14    18   ar
    44    14     4    1
    45     2     1   ar
    46     4     5   ar
    47    31    34    1
    48    31    32    1
    49    44    46    1
    50    44    47    1
    51    44    45    1
    52     1     5   ar
    53     1     6    1
