@<TRIPOS>MOLECULE
mol_data/opt/b3lyp/geoms/mol2/5ih5ih-5ih5ih-.out
 50 53 0 0 0
SMALL
GASTEIGER

@<TRIPOS>ATOM
      1 C          -0.9313   -1.5838    2.1725 C.ar    1  LIG1       -0.0190
      2 C          -0.7002   -1.8224    0.8462 C.ar    1  LIG1       -0.0222
      3 C          -0.4997   -0.5992    0.1109 C.ar    1  LIG1        0.0430
      4 C          -0.5691    0.5352    0.8996 C.ar    1  LIG1        0.0471
      5 S          -0.8926    0.0989    2.5744 S.2     1  LIG1       -0.0940
      6 H          -1.1148   -2.3192    2.9442 H       1  LIG1        0.0697
      7 C          -0.6615   -3.1806    0.2042 C.3     1  LIG1       -0.0374
      8 H           0.2916   -3.3504   -0.3105 H       1  LIG1        0.0278
      9 H          -1.4581   -3.3028   -0.5425 H       1  LIG1        0.0278
     10 H          -0.7906   -3.9715    0.9471 H       1  LIG1        0.0278
     11 N          -0.2328   -0.5978   -1.2639 N.pl3   1  LIG1       -0.3569
     12 H          -0.7252   -1.3250   -1.7692 H       1  LIG1        0.1424
     13 H          -0.3997    0.3063   -1.6912 H       1  LIG1        0.1424
     14 C          -0.4345    1.9208    0.4746 C.ar    1  LIG1        0.0330
     15 C           0.6057    2.5029   -0.2242 C.ar    1  LIG1       -0.0139
     16 C           0.3688    3.8930   -0.5062 C.ar    1  LIG1        0.0436
     17 C          -0.8240    4.3714    0.0054 C.ar    1  LIG1        0.0477
     18 S          -1.7011    3.0855    0.8213 S.2     1  LIG1       -0.0850
     19 C           1.8863    1.8124   -0.6039 C.3     1  LIG1       -0.0368
     20 H           2.7465    2.4431   -0.3524 H       1  LIG1        0.0278
     21 H           1.9449    1.5937   -1.6791 H       1  LIG1        0.0278
     22 H           1.9866    0.8606   -0.0797 H       1  LIG1        0.0278
     23 N           1.3076    4.6741   -1.1923 N.pl3   1  LIG1       -0.3568
     24 H           1.7891    4.1709   -1.9279 H       1  LIG1        0.1424
     25 H           0.9102    5.5354   -1.5498 H       1  LIG1        0.1424
     26 C          -1.3542    5.7227   -0.0999 C.ar    1  LIG1        0.0330
     27 C          -0.7473    6.9109    0.2596 C.ar    1  LIG1       -0.0139
     28 C          -1.5646    8.0569   -0.0352 C.ar    1  LIG1        0.0436
     29 C          -2.7955    7.7405   -0.5805 C.ar    1  LIG1        0.0477
     30 S          -2.9534    6.0008   -0.7698 S.2     1  LIG1       -0.0850
     31 C           0.5840    7.0291    0.9485 C.3     1  LIG1       -0.0368
     32 H           0.5126    7.7215    1.7950 H       1  LIG1        0.0278
     33 H           1.3718    7.4076    0.2826 H       1  LIG1        0.0278
     34 H           0.9193    6.0592    1.3192 H       1  LIG1        0.0278
     35 N          -1.1433    9.3583    0.2674 N.pl3   1  LIG1       -0.3568
     36 H          -0.1521    9.5051    0.1182 H       1  LIG1        0.1424
     37 H          -1.6865   10.0638   -0.2174 H       1  LIG1        0.1424
     38 C          -3.8489    8.6612   -0.9823 C.ar    1  LIG1        0.0324
     39 C          -4.4622    9.6449   -0.2313 C.ar    1  LIG1       -0.0145
     40 C          -5.4424   10.3848   -0.9881 C.ar    1  LIG1        0.0352
     41 C          -5.5656    9.9458   -2.2812 C.ar    1  LIG1       -0.0028
     42 S          -4.4901    8.6248   -2.6199 S.2     1  LIG1       -0.0939
     43 H          -6.2419   10.3090   -3.0425 H       1  LIG1        0.0712
     44 C          -4.2304    9.8866    1.2344 C.3     1  LIG1       -0.0369
     45 H          -5.1892    9.9868    1.7555 H       1  LIG1        0.0278
     46 H          -3.6579   10.8050    1.4247 H       1  LIG1        0.0278
     47 H          -3.6722    9.0638    1.6839 H       1  LIG1        0.0278
     48 N          -6.2334   11.3746   -0.3814 N.pl3   1  LIG1       -0.3573
     49 H          -5.7160   11.9720    0.2525 H       1  LIG1        0.1423
     50 H          -6.7511   11.9380   -1.0441 H       1  LIG1        0.1423
@<TRIPOS>BOND
     1    43    41    1
     2    42    41   ar
     3    42    38   ar
     4    41    40   ar
     5    24    23    1
     6    12    11    1
     7    13    11    1
     8    21    19    1
     9    25    23    1
    10    11     3    1
    11    23    16    1
    12    50    48    1
    13    40    48    1
    14    40    39   ar
    15    38    29    1
    16    38    39   ar
    17    30    29   ar
    18    30    26   ar
    19    19    20    1
    20    19    15    1
    21    19    22    1
    22    29    28   ar
    23     9     7    1
    24    16    15   ar
    25    16    17   ar
    26    48    49    1
    27     8     7    1
    28    39    44    1
    29    15    14   ar
    30    37    35    1
    31    26    17    1
    32    26    27   ar
    33    28    27   ar
    34    28    35    1
    35    17    18   ar
    36     3     2   ar
    37     3     4   ar
    38    36    35    1
    39     7     2    1
    40     7    10    1
    41    27    31    1
    42    33    31    1
    43    14    18   ar
    44    14     4    1
    45     2     1   ar
    46     4     5   ar
    47    31    34    1
    48    31    32    1
    49    44    46    1
    50    44    47    1
    51    44    45    1
    52     1     5   ar
    53     1     6    1
