@<TRIPOS>MOLECULE
mol_data/opt/b3lyp/geoms/mol2/5ih5ih-5ih-5ih.out
 50 53 0 0 0
SMALL
GASTEIGER

@<TRIPOS>ATOM
      1 C          -0.9520   -1.5882    2.1651 C.ar    1  LIG1       -0.0190
      2 C          -0.7082   -1.8239    0.8406 C.ar    1  LIG1       -0.0222
      3 C          -0.5011   -0.5991    0.1098 C.ar    1  LIG1        0.0430
      4 C          -0.5786    0.5337    0.9001 C.ar    1  LIG1        0.0471
      5 S          -0.9178    0.0938    2.5708 S.2     1  LIG1       -0.0940
      6 H          -1.1429   -2.3252    2.9334 H       1  LIG1        0.0697
      7 C          -0.6629   -3.1808    0.1961 C.3     1  LIG1       -0.0374
      8 H           0.2951   -3.3491   -0.3099 H       1  LIG1        0.0278
      9 H          -1.4524   -3.3016   -0.5584 H       1  LIG1        0.0278
     10 H          -0.7988   -3.9733    0.9361 H       1  LIG1        0.0278
     11 N          -0.2210   -0.5948   -1.2623 N.pl3   1  LIG1       -0.3569
     12 H          -0.7080   -1.3212   -1.7739 H       1  LIG1        0.1424
     13 H          -0.3841    0.3101   -1.6895 H       1  LIG1        0.1424
     14 C          -0.4398    1.9201    0.4793 C.ar    1  LIG1        0.0330
     15 C           0.6072    2.5036   -0.2080 C.ar    1  LIG1       -0.0139
     16 C           0.3730    3.8944   -0.4894 C.ar    1  LIG1        0.0436
     17 C          -0.8247    4.3717    0.0117 C.ar    1  LIG1        0.0477
     18 S          -1.7097    3.0841    0.8162 S.2     1  LIG1       -0.0850
     19 C           1.8914    1.8140   -0.5768 C.3     1  LIG1       -0.0368
     20 H           2.7492    2.4441   -0.3152 H       1  LIG1        0.0278
     21 H           1.9606    1.5979   -1.6519 H       1  LIG1        0.0278
     22 H           1.9865    0.8609   -0.0539 H       1  LIG1        0.0278
     23 N           1.3186    4.6769   -1.1646 N.pl3   1  LIG1       -0.3568
     24 H           1.8070    4.1753   -1.8967 H       1  LIG1        0.1424
     25 H           0.9245    5.5389   -1.5242 H       1  LIG1        0.1424
     26 C          -1.3539    5.7231   -0.0959 C.ar    1  LIG1        0.0330
     27 C          -0.7504    6.9106    0.2718 C.ar    1  LIG1       -0.0139
     28 C          -1.5651    8.0572   -0.0281 C.ar    1  LIG1        0.0436
     29 C          -2.7909    7.7418   -0.5854 C.ar    1  LIG1        0.0477
     30 S          -2.9468    6.0027   -0.7799 S.2     1  LIG1       -0.0850
     31 C           0.5743    7.0274    0.9734 C.3     1  LIG1       -0.0368
     32 H           0.4950    7.7184    1.8204 H       1  LIG1        0.0278
     33 H           1.3685    7.4069    0.3157 H       1  LIG1        0.0278
     34 H           0.9060    6.0568    1.3456 H       1  LIG1        0.0278
     35 N          -1.1467    9.3580    0.2812 N.pl3   1  LIG1       -0.3568
     36 H          -0.1543    9.5052    0.1414 H       1  LIG1        0.1424
     37 H          -1.6856   10.0645   -0.2069 H       1  LIG1        0.1424
     38 C          -3.8405    8.6634   -0.9951 C.ar    1  LIG1        0.0324
     39 C          -4.4610    9.6453   -0.2477 C.ar    1  LIG1       -0.0145
     40 C          -5.4343   10.3867   -1.0119 C.ar    1  LIG1        0.0352
     41 C          -5.5453    9.9504   -2.3070 C.ar    1  LIG1       -0.0028
     42 S          -4.4663    8.6305   -2.6387 S.2     1  LIG1       -0.0939
     43 H          -6.2144   10.3153   -3.0740 H       1  LIG1        0.0712
     44 C          -4.2431    9.8837    1.2207 C.3     1  LIG1       -0.0369
     45 H          -5.2067    9.9823    1.7330 H       1  LIG1        0.0278
     46 H          -3.6727   10.8018    1.4185 H       1  LIG1        0.0278
     47 H          -3.6888    9.0600    1.6735 H       1  LIG1        0.0278
     48 N          -6.2312   11.3749   -0.4103 N.pl3   1  LIG1       -0.3573
     49 H          -5.7195   11.9716    0.2289 H       1  LIG1        0.1423
     50 H          -6.7432   11.9393   -1.0767 H       1  LIG1        0.1423
@<TRIPOS>BOND
     1    43    41    1
     2    42    41   ar
     3    42    38   ar
     4    41    40   ar
     5    24    23    1
     6    12    11    1
     7    13    11    1
     8    21    19    1
     9    25    23    1
    10    11     3    1
    11    23    16    1
    12    50    48    1
    13    40    48    1
    14    40    39   ar
    15    38    29    1
    16    38    39   ar
    17    30    29   ar
    18    30    26   ar
    19    29    28   ar
    20    19    20    1
    21    19    15    1
    22    19    22    1
    23     9     7    1
    24    16    15   ar
    25    16    17   ar
    26    48    49    1
    27     8     7    1
    28    39    44    1
    29    15    14   ar
    30    37    35    1
    31    26    17    1
    32    26    27   ar
    33    28    27   ar
    34    28    35    1
    35    17    18   ar
    36     3     2   ar
    37     3     4   ar
    38    36    35    1
    39     7     2    1
    40     7    10    1
    41    27    31    1
    42    33    31    1
    43    14    18   ar
    44    14     4    1
    45     2     1   ar
    46     4     5   ar
    47    31    34    1
    48    31    32    1
    49    44    46    1
    50    44    47    1
    51    44    45    1
    52     1     5   ar
    53     1     6    1
