@<TRIPOS>MOLECULE
mol_data/opt/b3lyp/geoms/mol2/5ih5ih.out
 26 27 0 0 0
SMALL
GASTEIGER

@<TRIPOS>ATOM
      1 C          -1.8993   -1.7616    0.8666 C.ar    1  LIG1       -0.0190
      2 C          -0.7456   -1.8431    0.1374 C.ar    1  LIG1       -0.0222
      3 C          -0.2827   -0.5425   -0.2764 C.ar    1  LIG1        0.0430
      4 C          -1.0885    0.4936    0.1591 C.ar    1  LIG1        0.0470
      5 S          -2.4420   -0.1337    1.0937 S.2     1  LIG1       -0.0940
      6 H          -2.4588   -2.5824    1.2947 H       1  LIG1        0.0697
      7 C          -0.0298   -3.1176   -0.2117 C.3     1  LIG1       -0.0374
      8 H           1.0111   -3.0959    0.1323 H       1  LIG1        0.0278
      9 H          -0.0079   -3.2906   -1.2964 H       1  LIG1        0.0278
     10 H          -0.5192   -3.9819    0.2439 H       1  LIG1        0.0278
     11 N           0.8931   -0.3767   -1.0199 N.pl3   1  LIG1       -0.3569
     12 H           1.0459   -1.1134   -1.6986 H       1  LIG1        0.1424
     13 H           0.9431    0.5327   -1.4656 H       1  LIG1        0.1424
     14 C          -0.9182    1.9168   -0.0960 C.ar    1  LIG1        0.0324
     15 C           0.1821    2.7090    0.1669 C.ar    1  LIG1       -0.0145
     16 C          -0.0073    4.0738   -0.2601 C.ar    1  LIG1        0.0352
     17 C          -1.2397    4.2949   -0.8187 C.ar    1  LIG1       -0.0028
     18 S          -2.2028    2.8500   -0.8514 S.2     1  LIG1       -0.0939
     19 H          -1.6405    5.2274   -1.1914 H       1  LIG1        0.0712
     20 C           1.4177    2.2586    0.8954 C.3     1  LIG1       -0.0369
     21 H           1.6926    2.9929    1.6609 H       1  LIG1        0.0278
     22 H           2.2827    2.1435    0.2277 H       1  LIG1        0.0278
     23 H           1.2566    1.2934    1.3786 H       1  LIG1        0.0278
     24 N           0.9655    5.0563   -0.0095 N.pl3   1  LIG1       -0.3573
     25 H           1.9122    4.7383   -0.1808 H       1  LIG1        0.1423
     26 H           0.7972    5.9227   -0.5054 H       1  LIG1        0.1423
@<TRIPOS>BOND
     1    12    11    1
     2    13    11    1
     3     9     7    1
     4    19    17    1
     5    11     3    1
     6    18    17   ar
     7    18    14   ar
     8    17    16   ar
     9    26    24    1
    10     3     2   ar
    11     3     4   ar
    12    16    24    1
    13    16    15   ar
    14     7     8    1
    15     7     2    1
    16     7    10    1
    17    25    24    1
    18    14     4    1
    19    14    15   ar
    20     2     1   ar
    21     4     5   ar
    22    15    20    1
    23    22    20    1
    24     1     5   ar
    25     1     6    1
    26    20    23    1
    27    20    21    1
