@<TRIPOS>MOLECULE
mol_data/opt/b3lyp/geoms/mol2/5ih5ih-5ih.out
 38 40 0 0 0
SMALL
GASTEIGER

@<TRIPOS>ATOM
      1 C          -1.4870   -1.7317    1.5467 C.ar    1  LIG1       -0.0190
      2 C          -0.7410   -1.8875    0.4116 C.ar    1  LIG1       -0.0222
      3 C          -0.3691   -0.6182   -0.1609 C.ar    1  LIG1        0.0430
      4 C          -0.8298    0.4680    0.5612 C.ar    1  LIG1        0.0471
      5 S          -1.7416   -0.0723    1.9670 S.2     1  LIG1       -0.0940
      6 H          -1.8967   -2.5155    2.1694 H       1  LIG1        0.0697
      7 C          -0.3479   -3.2062   -0.1925 C.3     1  LIG1       -0.0374
      8 H           0.7402   -3.2852   -0.3016 H       1  LIG1        0.0278
      9 H          -0.7838   -3.3448   -1.1914 H       1  LIG1        0.0278
     10 H          -0.6874   -4.0401    0.4268 H       1  LIG1        0.0278
     11 N           0.4099   -0.5293   -1.3215 N.pl3   1  LIG1       -0.3569
     12 H           0.2140   -1.2615   -1.9938 H       1  LIG1        0.1424
     13 H           0.3480    0.3821   -1.7615 H       1  LIG1        0.1424
     14 C          -0.6488    1.8789    0.2526 C.ar    1  LIG1        0.0330
     15 C           0.5330    2.5612    0.0369 C.ar    1  LIG1       -0.0139
     16 C           0.3171    3.9458   -0.2871 C.ar    1  LIG1        0.0436
     17 C          -1.0143    4.3198   -0.2825 C.ar    1  LIG1        0.0477
     18 S          -2.0371    2.9417    0.0946 S.2     1  LIG1       -0.0850
     19 C           1.9095    1.9741    0.1831 C.3     1  LIG1       -0.0368
     20 H           2.5542    2.6555    0.7497 H       1  LIG1        0.0278
     21 H           2.3962    1.7920   -0.7850 H       1  LIG1        0.0278
     22 H           1.8712    1.0162    0.7047 H       1  LIG1        0.0278
     23 N           1.3853    4.8210   -0.5248 N.pl3   1  LIG1       -0.3568
     24 H           2.1507    4.3925   -1.0315 H       1  LIG1        0.1424
     25 H           1.0900    5.6769   -0.9809 H       1  LIG1        0.1424
     26 C          -1.5652    5.6383   -0.5595 C.ar    1  LIG1        0.0324
     27 C          -1.2529    6.8427    0.0403 C.ar    1  LIG1       -0.0145
     28 C          -1.9856    7.9474   -0.5286 C.ar    1  LIG1        0.0352
     29 C          -2.8433    7.5650   -1.5276 C.ar    1  LIG1       -0.0028
     30 S          -2.7808    5.8529   -1.8125 S.2     1  LIG1       -0.0939
     31 H          -3.5208    8.1889   -2.0940 H       1  LIG1        0.0712
     32 C          -0.3306    7.0106    1.2157 C.3     1  LIG1       -0.0369
     33 H          -0.7922    7.6620    1.9663 H       1  LIG1        0.0278
     34 H           0.6308    7.4636    0.9367 H       1  LIG1        0.0278
     35 H          -0.1069    6.0479    1.6785 H       1  LIG1        0.0278
     36 N          -1.8691    9.2452   -0.0031 N.pl3   1  LIG1       -0.3573
     37 H          -0.9162    9.5047    0.2229 H       1  LIG1        0.1423
     38 H          -2.2914    9.9549   -0.5886 H       1  LIG1        0.1423
@<TRIPOS>BOND
     1    31    29    1
     2    12    11    1
     3    30    29   ar
     4    30    26   ar
     5    13    11    1
     6    29    28   ar
     7    11     3    1
     8     9     7    1
     9    24    23    1
    10    25    23    1
    11    21    19    1
    12    38    36    1
    13    26    17    1
    14    26    27   ar
    15    28    36    1
    16    28    27   ar
    17    23    16    1
    18     8     7    1
    19    16    17   ar
    20    16    15   ar
    21    17    18   ar
    22     7     2    1
    23     7    10    1
    24     3     2   ar
    25     3     4   ar
    26    36    37    1
    27    15    19    1
    28    15    14   ar
    29    27    32    1
    30    18    14   ar
    31    19    22    1
    32    19    20    1
    33    14     4    1
    34     2     1   ar
    35     4     5   ar
    36    34    32    1
    37    32    35    1
    38    32    33    1
    39     1     5   ar
    40     1     6    1
