@<TRIPOS>MOLECULE
mol_data/opt/b3lyp/geoms/mol2/5ih5ih5ih-5ih-.out
 50 53 0 0 0
SMALL
GASTEIGER

@<TRIPOS>ATOM
      1 C          -0.9651   -1.5816    2.1642 C.ar    1  LIG1       -0.0190
      2 C          -0.7123   -1.8213    0.8421 C.ar    1  LIG1       -0.0222
      3 C          -0.5004   -0.5988    0.1090 C.ar    1  LIG1        0.0430
      4 C          -0.5835    0.5364    0.8952 C.ar    1  LIG1        0.0471
      5 S          -0.9340    0.1016    2.5650 S.2     1  LIG1       -0.0940
      6 H          -1.1611   -2.3163    2.9335 H       1  LIG1        0.0697
      7 C          -0.6623   -3.1802    0.2022 C.3     1  LIG1       -0.0374
      8 H           0.2992   -3.3500   -0.2965 H       1  LIG1        0.0278
      9 H          -1.4464   -3.3034   -0.5575 H       1  LIG1        0.0278
     10 H          -0.8034   -3.9704    0.9436 H       1  LIG1        0.0278
     11 N          -0.2111   -0.5987   -1.2613 N.pl3   1  LIG1       -0.3569
     12 H          -0.6949   -1.3267   -1.7738 H       1  LIG1        0.1424
     13 H          -0.3717    0.3049   -1.6922 H       1  LIG1        0.1424
     14 C          -0.4423    1.9216    0.4713 C.ar    1  LIG1        0.0330
     15 C           0.6088    2.5034   -0.2111 C.ar    1  LIG1       -0.0139
     16 C           0.3761    3.8933   -0.4979 C.ar    1  LIG1        0.0436
     17 C          -0.8248    4.3717   -0.0058 C.ar    1  LIG1        0.0477
     18 S          -1.7147    3.0862    0.7968 S.2     1  LIG1       -0.0850
     19 C           1.8957    1.8133   -0.5695 C.3     1  LIG1       -0.0368
     20 H           2.7514    2.4446   -0.3045 H       1  LIG1        0.0278
     21 H           1.9718    1.5938   -1.6435 H       1  LIG1        0.0278
     22 H           1.9879    0.8619   -0.0431 H       1  LIG1        0.0278
     23 N           1.3257    4.6742   -1.1694 N.pl3   1  LIG1       -0.3568
     24 H           1.8189    4.1706   -1.8969 H       1  LIG1        0.1424
     25 H           0.9337    5.5351   -1.5340 H       1  LIG1        0.1424
     26 C          -1.3538    5.7228   -0.1208 C.ar    1  LIG1        0.0330
     27 C          -0.7530    6.9115    0.2474 C.ar    1  LIG1       -0.0139
     28 C          -1.5660    8.0570   -0.0613 C.ar    1  LIG1        0.0436
     29 C          -2.7879    7.7396   -0.6258 C.ar    1  LIG1        0.0477
     30 S          -2.9421    5.9999   -0.8164 S.2     1  LIG1       -0.0850
     31 C           0.5670    7.0306    0.9574 C.3     1  LIG1       -0.0368
     32 H           0.4820    7.7238    1.8020 H       1  LIG1        0.0278
     33 H           1.3654    7.4085    0.3039 H       1  LIG1        0.0278
     34 H           0.8965    6.0611    1.3345 H       1  LIG1        0.0278
     35 N          -1.1500    9.3588    0.2470 N.pl3   1  LIG1       -0.3568
     36 H          -0.1567    9.5058    0.1139 H       1  LIG1        0.1424
     37 H          -1.6856   10.0636   -0.2470 H       1  LIG1        0.1424
     38 C          -3.8349    8.6599   -1.0452 C.ar    1  LIG1        0.0324
     39 C          -4.4607    9.6435   -0.3046 C.ar    1  LIG1       -0.0145
     40 C          -5.4286   10.3829   -1.0774 C.ar    1  LIG1        0.0352
     41 C          -5.5306    9.9435   -2.3722 C.ar    1  LIG1       -0.0028
     42 S          -4.4493    8.6228   -2.6930 S.2     1  LIG1       -0.0939
     43 H          -6.1945   10.3063   -3.1446 H       1  LIG1        0.0712
     44 C          -4.2525    9.8858    1.1646 C.3     1  LIG1       -0.0369
     45 H          -5.2196    9.9860    1.6702 H       1  LIG1        0.0278
     46 H          -3.6833   10.8043    1.3637 H       1  LIG1        0.0278
     47 H          -3.7015    9.0632    1.6232 H       1  LIG1        0.0278
     48 N          -6.2297   11.3726   -0.4839 N.pl3   1  LIG1       -0.3573
     49 H          -5.7228   11.9704    0.1580 H       1  LIG1        0.1423
     50 H          -6.7364   11.9359   -1.1553 H       1  LIG1        0.1423
@<TRIPOS>BOND
     1    43    41    1
     2    42    41   ar
     3    42    38   ar
     4    41    40   ar
     5    24    23    1
     6    12    11    1
     7    13    11    1
     8    21    19    1
     9    25    23    1
    10    11     3    1
    11    23    16    1
    12    50    48    1
    13    40    48    1
    14    40    39   ar
    15    38    29    1
    16    38    39   ar
    17    30    29   ar
    18    30    26   ar
    19    29    28   ar
    20    19    20    1
    21    19    15    1
    22    19    22    1
    23     9     7    1
    24    16    15   ar
    25    16    17   ar
    26    48    49    1
    27    39    44    1
    28     8     7    1
    29    37    35    1
    30    15    14   ar
    31    26    17    1
    32    26    27   ar
    33    28    35    1
    34    28    27   ar
    35    17    18   ar
    36     3     2   ar
    37     3     4   ar
    38    36    35    1
    39     7     2    1
    40     7    10    1
    41    27    31    1
    42    33    31    1
    43    14    18   ar
    44    14     4    1
    45     2     1   ar
    46     4     5   ar
    47    31    34    1
    48    31    32    1
    49    44    46    1
    50    44    47    1
    51    44    45    1
    52     1     5   ar
    53     1     6    1
