@<TRIPOS>MOLECULE
mol_data/opt/b3lyp/geoms/mol2/5ih5ih-5ih-.out
 38 40 0 0 0
SMALL
GASTEIGER

@<TRIPOS>ATOM
      1 C          -1.5029   -1.7401    1.5166 C.ar    1  LIG1       -0.0190
      2 C          -0.7461   -1.8898    0.3878 C.ar    1  LIG1       -0.0222
      3 C          -0.3687   -0.6175   -0.1742 C.ar    1  LIG1        0.0430
      4 C          -0.8363    0.4648    0.5492 C.ar    1  LIG1        0.0471
      5 S          -1.7614   -0.0830    1.9434 S.2     1  LIG1       -0.0940
      6 H          -1.9186   -2.5273    2.1310 H       1  LIG1        0.0697
      7 C          -0.3472   -3.2053   -0.2196 C.3     1  LIG1       -0.0374
      8 H           0.7419   -3.2838   -0.3185 H       1  LIG1        0.0278
      9 H          -0.7733   -3.3383   -1.2235 H       1  LIG1        0.0278
     10 H          -0.6927   -4.0425    0.3917 H       1  LIG1        0.0278
     11 N           0.4215   -0.5223   -1.3268 N.pl3   1  LIG1       -0.3569
     12 H           0.2315   -1.2505   -2.0052 H       1  LIG1        0.1424
     13 H           0.3641    0.3916   -1.7622 H       1  LIG1        0.1424
     14 C          -0.6521    1.8773    0.2504 C.ar    1  LIG1        0.0330
     15 C           0.5318    2.5607    0.0500 C.ar    1  LIG1       -0.0139
     16 C           0.3192    3.9471   -0.2683 C.ar    1  LIG1        0.0436
     17 C          -1.0121    4.3213   -0.2745 C.ar    1  LIG1        0.0477
     18 S          -2.0387    2.9413    0.0847 S.2     1  LIG1       -0.0850
     19 C           1.9068    1.9726    0.2063 C.3     1  LIG1       -0.0368
     20 H           2.5459    2.6505    0.7833 H       1  LIG1        0.0278
     21 H           2.4031    1.7963   -0.7580 H       1  LIG1        0.0278
     22 H           1.8633    1.0116    0.7217 H       1  LIG1        0.0278
     23 N           1.3898    4.8235   -0.4906 N.pl3   1  LIG1       -0.3568
     24 H           2.1600    4.3977   -0.9924 H       1  LIG1        0.1424
     25 H           1.0989    5.6819   -0.9449 H       1  LIG1        0.1424
     26 C          -1.5602    5.6414   -0.5496 C.ar    1  LIG1        0.0324
     27 C          -1.2534    6.8424    0.0598 C.ar    1  LIG1       -0.0145
     28 C          -1.9805    7.9504   -0.5099 C.ar    1  LIG1        0.0352
     29 C          -2.8285    7.5736   -1.5194 C.ar    1  LIG1       -0.0028
     30 S          -2.7635    5.8631   -1.8130 S.2     1  LIG1       -0.0939
     31 H          -3.5003    8.2008   -2.0889 H       1  LIG1        0.0712
     32 C          -0.3426    7.0035    1.2451 C.3     1  LIG1       -0.0369
     33 H          -0.8110    7.6513    1.9945 H       1  LIG1        0.0278
     34 H           0.6218    7.4571    0.9779 H       1  LIG1        0.0278
     35 H          -0.1241    6.0382    1.7050 H       1  LIG1        0.0278
     36 N          -1.8689    9.2452    0.0238 N.pl3   1  LIG1       -0.3573
     37 H          -0.9181    9.5034    0.2599 H       1  LIG1        0.1423
     38 H          -2.2857    9.9581   -0.5617 H       1  LIG1        0.1423
@<TRIPOS>BOND
     1    31    29    1
     2    12    11    1
     3    30    29   ar
     4    30    26   ar
     5    13    11    1
     6    29    28   ar
     7    11     3    1
     8     9     7    1
     9    24    23    1
    10    25    23    1
    11    21    19    1
    12    38    36    1
    13    26    17    1
    14    26    27   ar
    15    28    36    1
    16    28    27   ar
    17    23    16    1
    18     8     7    1
    19    17    16   ar
    20    17    18   ar
    21    16    15   ar
    22     7     2    1
    23     7    10    1
    24     3     2   ar
    25     3     4   ar
    26    36    37    1
    27    15    19    1
    28    15    14   ar
    29    27    32    1
    30    18    14   ar
    31    19    22    1
    32    19    20    1
    33    14     4    1
    34     2     1   ar
    35     4     5   ar
    36    34    32    1
    37    32    35    1
    38    32    33    1
    39     1     5   ar
    40     1     6    1
