@<TRIPOS>MOLECULE
mol_data/opt/b3lyp/geoms/mol2/5ih5ih5ih-.out
 38 40 0 0 0
SMALL
GASTEIGER

@<TRIPOS>ATOM
      1 C          -1.5065   -1.7331    1.5298 C.ar    1  LIG1       -0.0190
      2 C          -0.7449   -1.8877    0.4049 C.ar    1  LIG1       -0.0222
      3 C          -0.3660   -0.6180   -0.1617 C.ar    1  LIG1        0.0430
      4 C          -0.8375    0.4676    0.5543 C.ar    1  LIG1        0.0471
      5 S          -1.7681   -0.0741    1.9474 S.2     1  LIG1       -0.0940
      6 H          -1.9244   -2.5176    2.1463 H       1  LIG1        0.0697
      7 C          -0.3426   -3.2059   -0.1945 C.3     1  LIG1       -0.0374
      8 H           0.7469   -3.2838   -0.2891 H       1  LIG1        0.0278
      9 H          -0.7651   -3.3443   -1.1992 H       1  LIG1        0.0278
     10 H          -0.6896   -4.0404    0.4198 H       1  LIG1        0.0278
     11 N           0.4289   -0.5279   -1.3114 N.pl3   1  LIG1       -0.3569
     12 H           0.2425   -1.2597   -1.9870 H       1  LIG1        0.1424
     13 H           0.3727    0.3838   -1.7516 H       1  LIG1        0.1424
     14 C          -0.6527    1.8788    0.2498 C.ar    1  LIG1        0.0330
     15 C           0.5318    2.5618    0.0513 C.ar    1  LIG1       -0.0139
     16 C           0.3198    3.9467   -0.2741 C.ar    1  LIG1        0.0436
     17 C          -1.0117    4.3201   -0.2876 C.ar    1  LIG1        0.0477
     18 S          -2.0390    2.9412    0.0736 S.2     1  LIG1       -0.0850
     19 C           1.9064    1.9752    0.2162 C.3     1  LIG1       -0.0368
     20 H           2.5425    2.6560    0.7931 H       1  LIG1        0.0278
     21 H           2.4070    1.7951   -0.7452 H       1  LIG1        0.0278
     22 H           1.8612    1.0164    0.7355 H       1  LIG1        0.0278
     23 N           1.3908    4.8226   -0.4958 N.pl3   1  LIG1       -0.3568
     24 H           2.1635    4.3950   -0.9921 H       1  LIG1        0.1424
     25 H           1.1015    5.6789   -0.9550 H       1  LIG1        0.1424
     26 C          -1.5593    5.6387   -0.5710 C.ar    1  LIG1        0.0324
     27 C          -1.2559    6.8425    0.0344 C.ar    1  LIG1       -0.0145
     28 C          -1.9811    7.9475   -0.5434 C.ar    1  LIG1        0.0352
     29 C          -2.8246    7.5658   -1.5548 C.ar    1  LIG1       -0.0028
     30 S          -2.7573    5.8540   -1.8405 S.2     1  LIG1       -0.0939
     31 H          -3.4942    8.1900   -2.1301 H       1  LIG1        0.0712
     32 C          -0.3503    7.0095    1.2229 C.3     1  LIG1       -0.0369
     33 H          -0.8230    7.6593    1.9679 H       1  LIG1        0.0278
     34 H           0.6144    7.4641    0.9580 H       1  LIG1        0.0278
     35 H          -0.1320    6.0464    1.6872 H       1  LIG1        0.0278
     36 N          -1.8727    9.2448   -0.0148 N.pl3   1  LIG1       -0.3573
     37 H          -0.9227    9.5052    0.2227 H       1  LIG1        0.1423
     38 H          -2.2886    9.9546   -0.6047 H       1  LIG1        0.1423
@<TRIPOS>BOND
     1    31    29    1
     2    12    11    1
     3    30    29   ar
     4    30    26   ar
     5    13    11    1
     6    29    28   ar
     7    11     3    1
     8     9     7    1
     9    24    23    1
    10    25    23    1
    11    21    19    1
    12    38    36    1
    13    26    17    1
    14    26    27   ar
    15    28    36    1
    16    28    27   ar
    17    23    16    1
    18     8     7    1
    19    17    16   ar
    20    17    18   ar
    21    16    15   ar
    22     7     2    1
    23     7    10    1
    24     3     2   ar
    25     3     4   ar
    26    36    37    1
    27    27    32    1
    28    15    19    1
    29    15    14   ar
    30    18    14   ar
    31    19    22    1
    32    19    20    1
    33    14     4    1
    34     2     1   ar
    35     4     5   ar
    36    34    32    1
    37    32    35    1
    38    32    33    1
    39     1     5   ar
    40     1     6    1
