@<TRIPOS>MOLECULE
mol_data/opt/b3lyp/geoms/mol2/5ih5ih5ih-5ih.out
 50 53 0 0 0
SMALL
GASTEIGER

@<TRIPOS>ATOM
      1 C          -0.9765   -1.5850    2.1621 C.ar    1  LIG1       -0.0190
      2 C          -0.7174   -1.8226    0.8409 C.ar    1  LIG1       -0.0222
      3 C          -0.5023   -0.5989    0.1107 C.ar    1  LIG1        0.0430
      4 C          -0.5892    0.5351    0.8983 C.ar    1  LIG1        0.0471
      5 S          -0.9474    0.0976    2.5657 S.2     1  LIG1       -0.0940
      6 H          -1.1760   -2.3209    2.9293 H       1  LIG1        0.0697
      7 C          -0.6643   -3.1805    0.1990 C.3     1  LIG1       -0.0374
      8 H           0.2995   -3.3492   -0.2958 H       1  LIG1        0.0278
      9 H          -1.4450   -3.3027   -0.5643 H       1  LIG1        0.0278
     10 H          -0.8082   -3.9719    0.9385 H       1  LIG1        0.0278
     11 N          -0.2064   -0.5965   -1.2582 N.pl3   1  LIG1       -0.3569
     12 H          -0.6873   -1.3239   -1.7742 H       1  LIG1        0.1424
     13 H          -0.3650    0.3077   -1.6885 H       1  LIG1        0.1424
     14 C          -0.4458    1.9209    0.4772 C.ar    1  LIG1        0.0330
     15 C           0.6090    2.5036   -0.1988 C.ar    1  LIG1       -0.0139
     16 C           0.3780    3.8940   -0.4847 C.ar    1  LIG1        0.0436
     17 C          -0.8254    4.3718    0.0020 C.ar    1  LIG1        0.0477
     18 S          -1.7196    3.0852    0.7979 S.2     1  LIG1       -0.0850
     19 C           1.8975    1.8137   -0.5518 C.3     1  LIG1       -0.0368
     20 H           2.7520    2.4443   -0.2814 H       1  LIG1        0.0278
     21 H           1.9790    1.5959   -1.6257 H       1  LIG1        0.0278
     22 H           1.9867    0.8614   -0.0265 H       1  LIG1        0.0278
     23 N           1.3311    4.6757   -1.1500 N.pl3   1  LIG1       -0.3568
     24 H           1.8280    4.1732   -1.8758 H       1  LIG1        0.1424
     25 H           0.9412    5.5373   -1.5152 H       1  LIG1        0.1424
     26 C          -1.3536    5.7230   -0.1138 C.ar    1  LIG1        0.0330
     27 C          -0.7545    6.9112    0.2588 C.ar    1  LIG1       -0.0139
     28 C          -1.5658    8.0572   -0.0523 C.ar    1  LIG1        0.0436
     29 C          -2.7851    7.7407   -0.6231 C.ar    1  LIG1        0.0477
     30 S          -2.9386    6.0012   -0.8166 S.2     1  LIG1       -0.0850
     31 C           0.5620    7.0292    0.9755 C.3     1  LIG1       -0.0368
     32 H           0.4728    7.7213    1.8206 H       1  LIG1        0.0278
     33 H           1.3636    7.4081    0.3265 H       1  LIG1        0.0278
     34 H           0.8896    6.0592    1.3529 H       1  LIG1        0.0278
     35 N          -1.1512    9.3585    0.2597 N.pl3   1  LIG1       -0.3568
     36 H          -0.1572    9.5056    0.1312 H       1  LIG1        0.1424
     37 H          -1.6845   10.0641   -0.2356 H       1  LIG1        0.1424
     38 C          -3.8300    8.6616   -1.0464 C.ar    1  LIG1        0.0324
     39 C          -4.4591    9.6446   -0.3077 C.ar    1  LIG1       -0.0145
     40 C          -5.4235   10.3847   -1.0844 C.ar    1  LIG1        0.0352
     41 C          -5.5195    9.9464   -2.3800 C.ar    1  LIG1       -0.0028
     42 S          -4.4368    8.6259   -2.6970 S.2     1  LIG1       -0.0939
     43 H          -6.1798   10.3100   -3.1552 H       1  LIG1        0.0712
     44 C          -4.2581    9.8855    1.1626 C.3     1  LIG1       -0.0369
     45 H          -5.2276    9.9848    1.6637 H       1  LIG1        0.0278
     46 H          -3.6901   10.8040    1.3655 H       1  LIG1        0.0278
     47 H          -3.7089    9.0626    1.6231 H       1  LIG1        0.0278
     48 N          -6.2273   11.3738   -0.4936 N.pl3   1  LIG1       -0.3573
     49 H          -5.7231   11.9716    0.1505 H       1  LIG1        0.1423
     50 H          -6.7317   11.9371   -1.1667 H       1  LIG1        0.1423
@<TRIPOS>BOND
     1    43    41    1
     2    42    41   ar
     3    42    38   ar
     4    41    40   ar
     5    24    23    1
     6    12    11    1
     7    13    11    1
     8    21    19    1
     9    25    23    1
    10    11     3    1
    11    50    48    1
    12    23    16    1
    13    40    48    1
    14    40    39   ar
    15    38    29    1
    16    38    39   ar
    17    30    29   ar
    18    30    26   ar
    19    29    28   ar
    20     9     7    1
    21    19    20    1
    22    19    15    1
    23    19    22    1
    24    48    49    1
    25    16    15   ar
    26    16    17   ar
    27    39    44    1
    28     8     7    1
    29    37    35    1
    30    15    14   ar
    31    26    17    1
    32    26    27   ar
    33    28    27   ar
    34    28    35    1
    35    17    18   ar
    36     3     2   ar
    37     3     4   ar
    38    36    35    1
    39     7     2    1
    40     7    10    1
    41    27    31    1
    42    33    31    1
    43    14    18   ar
    44    14     4    1
    45     2     1   ar
    46     4     5   ar
    47    31    34    1
    48    31    32    1
    49    44    46    1
    50    44    47    1
    51    44    45    1
    52     1     5   ar
    53     1     6    1
