@<TRIPOS>MOLECULE
mol_data/opt/b3lyp/geoms/mol2/5ih5ih5ih5ih-.out
 50 53 0 0 0
SMALL
GASTEIGER

@<TRIPOS>ATOM
      1 C          -0.9512   -1.5837    2.1593 C.ar    1  LIG1       -0.0190
      2 C          -0.7074   -1.8223    0.8353 C.ar    1  LIG1       -0.0222
      3 C          -0.5004   -0.5991    0.1018 C.ar    1  LIG1        0.0430
      4 C          -0.5780    0.5354    0.8896 C.ar    1  LIG1        0.0471
      5 S          -0.9170    0.0991    2.5614 S.2     1  LIG1       -0.0940
      6 H          -1.1419   -2.3191    2.9293 H       1  LIG1        0.0697
      7 C          -0.6619   -3.1806    0.1938 C.3     1  LIG1       -0.0374
      8 H           0.2961   -3.3500   -0.3118 H       1  LIG1        0.0278
      9 H          -1.4513   -3.3032   -0.5605 H       1  LIG1        0.0278
     10 H          -0.7978   -3.9715    0.9355 H       1  LIG1        0.0278
     11 N          -0.2204   -0.5979   -1.2704 N.pl3   1  LIG1       -0.3569
     12 H          -0.7077   -1.3253   -1.7803 H       1  LIG1        0.1424
     13 H          -0.3836    0.3061   -1.6994 H       1  LIG1        0.1424
     14 C          -0.4394    1.9209    0.4659 C.ar    1  LIG1        0.0330
     15 C           0.6074    2.5031   -0.2228 C.ar    1  LIG1       -0.0139
     16 C           0.3731    3.8933   -0.5069 C.ar    1  LIG1        0.0436
     17 C          -0.8245    4.3715   -0.0066 C.ar    1  LIG1        0.0477
     18 S          -1.7094    3.0855    0.8006 S.2     1  LIG1       -0.0850
     19 C           1.8918    1.8130   -0.5902 C.3     1  LIG1       -0.0368
     20 H           2.7494    2.4438   -0.3301 H       1  LIG1        0.0278
     21 H           1.9609    1.5946   -1.6649 H       1  LIG1        0.0278
     22 H           1.9871    0.8610   -0.0653 H       1  LIG1        0.0278
     23 N           1.3185    4.6745   -1.1838 N.pl3   1  LIG1       -0.3568
     24 H           1.8067    4.1715   -1.9151 H       1  LIG1        0.1424
     25 H           0.9244    5.5359   -1.5449 H       1  LIG1        0.1424
     26 C          -1.3539    5.7227   -0.1172 C.ar    1  LIG1        0.0330
     27 C          -0.7504    6.9110    0.2478 C.ar    1  LIG1       -0.0139
     28 C          -1.5651    8.0569   -0.0547 C.ar    1  LIG1        0.0436
     29 C          -2.7909    7.7403   -0.6112 C.ar    1  LIG1        0.0477
     30 S          -2.9468    6.0006   -0.8018 S.2     1  LIG1       -0.0850
     31 C           0.5744    7.0293    0.9490 C.3     1  LIG1       -0.0368
     32 H           0.4951    7.7219    1.7947 H       1  LIG1        0.0278
     33 H           1.3684    7.4078    0.2904 H       1  LIG1        0.0278
     34 H           0.9063    6.0595    1.3230 H       1  LIG1        0.0278
     35 N          -1.1468    9.3584    0.2517 N.pl3   1  LIG1       -0.3568
     36 H          -0.1543    9.5053    0.1117 H       1  LIG1        0.1424
     37 H          -1.6855   10.0637   -0.2382 H       1  LIG1        0.1424
     38 C          -3.8406    8.6609   -1.0229 C.ar    1  LIG1        0.0324
     39 C          -4.4612    9.6442   -0.2776 C.ar    1  LIG1       -0.0145
     40 C          -5.4344   10.3841   -1.0435 C.ar    1  LIG1        0.0352
     41 C          -5.5452    9.9452   -2.3377 C.ar    1  LIG1       -0.0028
     42 S          -4.4662    8.6246   -2.6665 S.2     1  LIG1       -0.0939
     43 H          -6.2143   10.3085   -3.1054 H       1  LIG1        0.0712
     44 C          -4.2432    9.8858    1.1902 C.3     1  LIG1       -0.0369
     45 H          -5.2068    9.9858    1.7023 H       1  LIG1        0.0278
     46 H          -3.6725   10.8041    1.3860 H       1  LIG1        0.0278
     47 H          -3.6892    9.0629    1.6448 H       1  LIG1        0.0278
     48 N          -6.2313   11.3735   -0.4440 N.pl3   1  LIG1       -0.3573
     49 H          -5.7199   11.9713    0.1944 H       1  LIG1        0.1423
     50 H          -6.7429   11.9369   -1.1116 H       1  LIG1        0.1423
@<TRIPOS>BOND
     1    43    41    1
     2    42    41   ar
     3    42    38   ar
     4    41    40   ar
     5    24    23    1
     6    12    11    1
     7    13    11    1
     8    21    19    1
     9    25    23    1
    10    11     3    1
    11    23    16    1
    12    50    48    1
    13    40    48    1
    14    40    39   ar
    15    38    29    1
    16    38    39   ar
    17    30    29   ar
    18    30    26   ar
    19    29    28   ar
    20    19    20    1
    21    19    15    1
    22    19    22    1
    23     9     7    1
    24    16    15   ar
    25    16    17   ar
    26    48    49    1
    27     8     7    1
    28    39    44    1
    29    37    35    1
    30    15    14   ar
    31    26    17    1
    32    26    27   ar
    33    28    27   ar
    34    28    35    1
    35    17    18   ar
    36     3     2   ar
    37     3     4   ar
    38    36    35    1
    39     7     2    1
    40     7    10    1
    41    27    31    1
    42    33    31    1
    43    14    18   ar
    44    14     4    1
    45     2     1   ar
    46     4     5   ar
    47    31    34    1
    48    31    32    1
    49    44    46    1
    50    44    47    1
    51    44    45    1
    52     1     5   ar
    53     1     6    1
