@<TRIPOS>MOLECULE
mol_data/opt/b3lyp/geoms/mol2/5ih5ih5ih5ih.out
 50 53 0 0 0
SMALL
GASTEIGER

@<TRIPOS>ATOM
      1 C          -0.9506   -1.5901    2.1456 C.ar    1  LIG1       -0.0190
      2 C          -0.7076   -1.8248    0.8208 C.ar    1  LIG1       -0.0222
      3 C          -0.5007   -0.5995    0.0909 C.ar    1  LIG1        0.0430
      4 C          -0.5774    0.5326    0.8822 C.ar    1  LIG1        0.0471
      5 S          -0.9157    0.0915    2.5528 S.2     1  LIG1       -0.0940
      6 H          -1.1410   -2.3278    2.9135 H       1  LIG1        0.0697
      7 C          -0.6629   -3.1813    0.1753 C.3     1  LIG1       -0.0374
      8 H           0.2947   -3.3494   -0.3315 H       1  LIG1        0.0278
      9 H          -1.4529   -3.3014   -0.5788 H       1  LIG1        0.0278
     10 H          -0.7985   -3.9743    0.9147 H       1  LIG1        0.0278
     11 N          -0.2216   -0.5941   -1.2815 N.pl3   1  LIG1       -0.3569
     12 H          -0.7095   -1.3198   -1.7933 H       1  LIG1        0.1424
     13 H          -0.3848    0.3112   -1.7076 H       1  LIG1        0.1424
     14 C          -0.4391    1.9194    0.4623 C.ar    1  LIG1        0.0330
     15 C           0.6072    2.5035   -0.2255 C.ar    1  LIG1       -0.0139
     16 C           0.3728    3.8945   -0.5054 C.ar    1  LIG1        0.0436
     17 C          -0.8243    4.3714   -0.0026 C.ar    1  LIG1        0.0477
     18 S          -1.7087    3.0831    0.8016 S.2     1  LIG1       -0.0850
     19 C           1.8911    1.8143   -0.5960 C.3     1  LIG1       -0.0368
     20 H           2.7491    2.4442   -0.3347 H       1  LIG1        0.0278
     21 H           1.9594    1.5990   -1.6713 H       1  LIG1        0.0278
     22 H           1.9868    0.8607   -0.0739 H       1  LIG1        0.0278
     23 N           1.3176    4.6776   -1.1810 N.pl3   1  LIG1       -0.3568
     24 H           1.8048    4.1767   -1.9144 H       1  LIG1        0.1424
     25 H           0.9233    5.5402   -1.5389 H       1  LIG1        0.1424
     26 C          -1.3539    5.7229   -0.1091 C.ar    1  LIG1        0.0330
     27 C          -0.7500    6.9102    0.2584 C.ar    1  LIG1       -0.0139
     28 C          -1.5649    8.0569   -0.0404 C.ar    1  LIG1        0.0436
     29 C          -2.7912    7.7418   -0.5968 C.ar    1  LIG1        0.0477
     30 S          -2.9473    6.0026   -0.7918 S.2     1  LIG1       -0.0850
     31 C           0.5752    7.0267    0.9591 C.3     1  LIG1       -0.0368
     32 H           0.4965    7.7168    1.8068 H       1  LIG1        0.0278
     33 H           1.3688    7.4071    0.3011 H       1  LIG1        0.0278
     34 H           0.9075    6.0558    1.3301 H       1  LIG1        0.0278
     35 N          -1.1463    9.3576    0.2690 N.pl3   1  LIG1       -0.3568
     36 H          -0.1538    9.5047    0.1291 H       1  LIG1        0.1424
     37 H          -1.6852   10.0643   -0.2189 H       1  LIG1        0.1424
     38 C          -3.8411    8.6635   -1.0054 C.ar    1  LIG1        0.0324
     39 C          -4.4609    9.6452   -0.2571 C.ar    1  LIG1       -0.0145
     40 C          -5.4345   10.3871   -1.0204 C.ar    1  LIG1        0.0352
     41 C          -5.5464    9.9515   -2.3157 C.ar    1  LIG1       -0.0028
     42 S          -4.4680    8.6314   -2.6486 S.2     1  LIG1       -0.0939
     43 H          -6.2162   10.3167   -3.0819 H       1  LIG1        0.0712
     44 C          -4.2417    9.8831    1.2111 C.3     1  LIG1       -0.0369
     45 H          -5.2049    9.9821    1.7242 H       1  LIG1        0.0278
     46 H          -3.6706   10.8007    1.4087 H       1  LIG1        0.0278
     47 H          -3.6876    9.0589    1.6632 H       1  LIG1        0.0278
     48 N          -6.2308   11.3752   -0.4179 N.pl3   1  LIG1       -0.3573
     49 H          -5.7188   11.9712    0.2217 H       1  LIG1        0.1423
     50 H          -6.7427   11.9404   -1.0837 H       1  LIG1        0.1423
@<TRIPOS>BOND
     1    43    41    1
     2    42    41   ar
     3    42    38   ar
     4    41    40   ar
     5    24    23    1
     6    12    11    1
     7    13    11    1
     8    21    19    1
     9    25    23    1
    10    11     3    1
    11    23    16    1
    12    50    48    1
    13    40    48    1
    14    40    39   ar
    15    38    29    1
    16    38    39   ar
    17    30    29   ar
    18    30    26   ar
    19    29    28   ar
    20    19    20    1
    21    19    15    1
    22    19    22    1
    23     9     7    1
    24    16    15   ar
    25    16    17   ar
    26    48    49    1
    27     8     7    1
    28    39    44    1
    29    15    14   ar
    30    37    35    1
    31    26    17    1
    32    26    27   ar
    33    28    27   ar
    34    28    35    1
    35    17    18   ar
    36     3     2   ar
    37     3     4   ar
    38    36    35    1
    39     7     2    1
    40     7    10    1
    41    27    31    1
    42    33    31    1
    43    14    18   ar
    44    14     4    1
    45     2     1   ar
    46     4     5   ar
    47    31    34    1
    48    31    32    1
    49    44    46    1
    50    44    47    1
    51    44    45    1
    52     1     5   ar
    53     1     6    1
