@<TRIPOS>MOLECULE
mol_data/opt/b3lyp/geoms/mol2/5ih5ih-.out
 26 27 0 0 0
SMALL
GASTEIGER

@<TRIPOS>ATOM
      1 C          -1.8904   -1.7603    0.8795 C.ar    1  LIG1       -0.0190
      2 C          -0.7439   -1.8431    0.1393 C.ar    1  LIG1       -0.0222
      3 C          -0.2850   -0.5432   -0.2812 C.ar    1  LIG1        0.0430
      4 C          -1.0865    0.4937    0.1603 C.ar    1  LIG1        0.0470
      5 S          -2.4309   -0.1320    1.1090 S.2     1  LIG1       -0.0940
      6 H          -2.4458   -2.5803    1.3144 H       1  LIG1        0.0697
      7 C          -0.0315   -3.1182   -0.2146 C.3     1  LIG1       -0.0374
      8 H           1.0127   -3.0959    0.1188 H       1  LIG1        0.0278
      9 H          -0.0206   -3.2933   -1.2992 H       1  LIG1        0.0278
     10 H          -0.5163   -3.9817    0.2476 H       1  LIG1        0.0278
     11 N           0.8836   -0.3787   -1.0362 N.pl3   1  LIG1       -0.3569
     12 H           1.0303   -1.1168   -1.7148 H       1  LIG1        0.1424
     13 H           0.9292    0.5298   -1.4843 H       1  LIG1        0.1424
     14 C          -0.9186    1.9164   -0.0987 C.ar    1  LIG1        0.0324
     15 C           0.1841    2.7091    0.1525 C.ar    1  LIG1       -0.0145
     16 C          -0.0094    4.0732   -0.2750 C.ar    1  LIG1        0.0352
     17 C          -1.2470    4.2933   -0.8225 C.ar    1  LIG1       -0.0028
     18 S          -2.2103    2.8483   -0.8437 S.2     1  LIG1       -0.0939
     19 H          -1.6514    5.2251   -1.1930 H       1  LIG1        0.0712
     20 C           1.4265    2.2601    0.8702 C.3     1  LIG1       -0.0369
     21 H           1.7078    2.9953    1.6325 H       1  LIG1        0.0278
     22 H           2.2854    2.1449    0.1947 H       1  LIG1        0.0278
     23 H           1.2703    1.2952    1.3556 H       1  LIG1        0.0278
     24 N           0.9657    5.0561   -0.0351 N.pl3   1  LIG1       -0.3573
     25 H           1.9106    4.7382   -0.2156 H       1  LIG1        0.1423
     26 H           0.7921    5.9220   -0.5301 H       1  LIG1        0.1423
@<TRIPOS>BOND
     1    12    11    1
     2    13    11    1
     3     9     7    1
     4    19    17    1
     5    11     3    1
     6    18    17   ar
     7    18    14   ar
     8    17    16   ar
     9    26    24    1
    10     3     2   ar
    11     3     4   ar
    12    16    24    1
    13    16    15   ar
    14    25    24    1
    15     7     8    1
    16     7     2    1
    17     7    10    1
    18    14    15   ar
    19    14     4    1
    20     2     1   ar
    21    15    20    1
    22     4     5   ar
    23    22    20    1
    24    20    23    1
    25    20    21    1
    26     1     5   ar
    27     1     6    1
