@<TRIPOS>MOLECULE
mol_data/opt/b3lyp/geoms/mol2/5ih5ih5ih.out
 38 40 0 0 0
SMALL
GASTEIGER

@<TRIPOS>ATOM
      1 C          -1.4917   -1.7308    1.5407 C.ar    1  LIG1       -0.0190
      2 C          -0.7417   -1.8872    0.4083 C.ar    1  LIG1       -0.0222
      3 C          -0.3678   -0.6183   -0.1637 C.ar    1  LIG1        0.0430
      4 C          -0.8312    0.4683    0.5559 C.ar    1  LIG1        0.0471
      5 S          -1.7480   -0.0711    1.9590 S.2     1  LIG1       -0.0940
      6 H          -1.9037   -2.5143    2.1624 H       1  LIG1        0.0697
      7 C          -0.3464   -3.2064   -0.1935 C.3     1  LIG1       -0.0374
      8 H           0.7421   -3.2853   -0.2988 H       1  LIG1        0.0278
      9 H          -0.7789   -3.3457   -1.1938 H       1  LIG1        0.0278
     10 H          -0.6878   -4.0399    0.4252 H       1  LIG1        0.0278
     11 N           0.4153   -0.5301   -1.3216 N.pl3   1  LIG1       -0.3569
     12 H           0.2219   -1.2629   -1.9940 H       1  LIG1        0.1424
     13 H           0.3546    0.3809   -1.7625 H       1  LIG1        0.1424
     14 C          -0.6492    1.8791    0.2476 C.ar    1  LIG1        0.0330
     15 C           0.5333    2.5616    0.0361 C.ar    1  LIG1       -0.0139
     16 C           0.3183    3.9460   -0.2892 C.ar    1  LIG1        0.0436
     17 C          -1.0131    4.3197   -0.2897 C.ar    1  LIG1        0.0477
     18 S          -2.0370    2.9415    0.0839 S.2     1  LIG1       -0.0850
     19 C           1.9095    1.9748    0.1874 C.3     1  LIG1       -0.0368
     20 H           2.5518    2.6562    0.7566 H       1  LIG1        0.0278
     21 H           2.3999    1.7931   -0.7788 H       1  LIG1        0.0278
     22 H           1.8694    1.0168    0.7087 H       1  LIG1        0.0278
     23 N           1.3872    4.8214   -0.5230 N.pl3   1  LIG1       -0.3568
     24 H           2.1547    4.3930   -1.0267 H       1  LIG1        0.1424
     25 H           1.0934    5.6771   -0.9804 H       1  LIG1        0.1424
     26 C          -1.5634    5.6379   -0.5694 C.ar    1  LIG1        0.0324
     27 C          -1.2540    6.8426    0.0312 C.ar    1  LIG1       -0.0145
     28 C          -1.9847    7.9468   -0.5411 C.ar    1  LIG1        0.0352
     29 C          -2.8379    7.5637   -1.5438 C.ar    1  LIG1       -0.0028
     30 S          -2.7736    5.8515   -1.8276 S.2     1  LIG1       -0.0939
     31 H          -3.5132    8.1872   -2.1133 H       1  LIG1        0.0712
     32 C          -0.3368    7.0111    1.2105 C.3     1  LIG1       -0.0369
     33 H          -0.8018    7.6626    1.9590 H       1  LIG1        0.0278
     34 H           0.6256    7.4644    0.9355 H       1  LIG1        0.0278
     35 H          -0.1147    6.0486    1.6744 H       1  LIG1        0.0278
     36 N          -1.8710    9.2449   -0.0155 N.pl3   1  LIG1       -0.3573
     37 H          -0.9191    9.5050    0.2138 H       1  LIG1        0.1423
     38 H          -2.2914    9.9540   -0.6031 H       1  LIG1        0.1423
@<TRIPOS>BOND
     1    31    29    1
     2    12    11    1
     3    30    29   ar
     4    30    26   ar
     5    13    11    1
     6    29    28   ar
     7    11     3    1
     8     9     7    1
     9    24    23    1
    10    25    23    1
    11    21    19    1
    12    38    36    1
    13    26    17    1
    14    26    27   ar
    15    28    36    1
    16    28    27   ar
    17    23    16    1
    18     8     7    1
    19    17    16   ar
    20    17    18   ar
    21    16    15   ar
    22     7     2    1
    23     7    10    1
    24     3     2   ar
    25     3     4   ar
    26    36    37    1
    27    27    32    1
    28    15    19    1
    29    15    14   ar
    30    18    14   ar
    31    19    22    1
    32    19    20    1
    33    14     4    1
    34     2     1   ar
    35     4     5   ar
    36    34    32    1
    37    32    35    1
    38    32    33    1
    39     1     5   ar
    40     1     6    1
