@<TRIPOS>MOLECULE
mol_data/opt/b3lyp/geoms/mol2/5ih5ih-5ih5ih.out
 50 53 0 0 0
SMALL
GASTEIGER

@<TRIPOS>ATOM
      1 C          -0.9293   -1.5842    2.1749 C.ar    1  LIG1       -0.0190
      2 C          -0.6991   -1.8223    0.8485 C.ar    1  LIG1       -0.0222
      3 C          -0.4994   -0.5989    0.1133 C.ar    1  LIG1        0.0430
      4 C          -0.5688    0.5353    0.9023 C.ar    1  LIG1        0.0471
      5 S          -0.8909    0.0985    2.5772 S.2     1  LIG1       -0.0940
      6 H          -1.1123   -2.3198    2.9465 H       1  LIG1        0.0697
      7 C          -0.6604   -3.1805    0.2060 C.3     1  LIG1       -0.0374
      8 H           0.2924   -3.3497   -0.3094 H       1  LIG1        0.0278
      9 H          -1.4575   -3.3027   -0.5401 H       1  LIG1        0.0278
     10 H          -0.7886   -3.9716    0.9488 H       1  LIG1        0.0278
     11 N          -0.2334   -0.5971   -1.2616 N.pl3   1  LIG1       -0.3569
     12 H          -0.7254   -1.3245   -1.7668 H       1  LIG1        0.1424
     13 H          -0.4010    0.3070   -1.6887 H       1  LIG1        0.1424
     14 C          -0.4343    1.9210    0.4776 C.ar    1  LIG1        0.0330
     15 C           0.6056    2.5033   -0.2213 C.ar    1  LIG1       -0.0139
     16 C           0.3687    3.8936   -0.5025 C.ar    1  LIG1        0.0436
     17 C          -0.8238    4.3718    0.0100 C.ar    1  LIG1        0.0477
     18 S          -1.7007    3.0856    0.8255 S.2     1  LIG1       -0.0850
     19 C           1.8860    1.8129   -0.6020 C.3     1  LIG1       -0.0368
     20 H           2.7464    2.4434   -0.3505 H       1  LIG1        0.0278
     21 H           1.9440    1.5948   -1.6774 H       1  LIG1        0.0278
     22 H           1.9864    0.8608   -0.0784 H       1  LIG1        0.0278
     23 N           1.3072    4.6749   -1.1887 N.pl3   1  LIG1       -0.3568
     24 H           1.7883    4.1720   -1.9248 H       1  LIG1        0.1424
     25 H           0.9096    5.5364   -1.5457 H       1  LIG1        0.1424
     26 C          -1.3542    5.7230   -0.0949 C.ar    1  LIG1        0.0330
     27 C          -0.7470    6.9113    0.2643 C.ar    1  LIG1       -0.0139
     28 C          -1.5648    8.0573   -0.0296 C.ar    1  LIG1        0.0436
     29 C          -2.7961    7.7407   -0.5738 C.ar    1  LIG1        0.0477
     30 S          -2.9540    6.0012   -0.7632 S.2     1  LIG1       -0.0850
     31 C           0.5848    7.0294    0.9522 C.3     1  LIG1       -0.0368
     32 H           0.5140    7.7218    1.7987 H       1  LIG1        0.0278
     33 H           1.3721    7.4079    0.2857 H       1  LIG1        0.0278
     34 H           0.9204    6.0595    1.3226 H       1  LIG1        0.0278
     35 N          -1.1433    9.3586    0.2729 N.pl3   1  LIG1       -0.3568
     36 H          -0.1523    9.5056    0.1227 H       1  LIG1        0.1424
     37 H          -1.6871   10.0641   -0.2111 H       1  LIG1        0.1424
     38 C          -3.8499    8.6615   -0.9745 C.ar    1  LIG1        0.0324
     39 C          -4.4628    9.6448   -0.2227 C.ar    1  LIG1       -0.0145
     40 C          -5.4438   10.3846   -0.9784 C.ar    1  LIG1        0.0352
     41 C          -5.5681    9.9459   -2.2714 C.ar    1  LIG1       -0.0028
     42 S          -4.4926    8.6253   -2.6115 S.2     1  LIG1       -0.0939
     43 H          -6.2451   10.3093   -3.0321 H       1  LIG1        0.0712
     44 C          -4.2298    9.8861    1.2429 C.3     1  LIG1       -0.0369
     45 H          -5.1882    9.9858    1.7648 H       1  LIG1        0.0278
     46 H          -3.6573   10.8045    1.4331 H       1  LIG1        0.0278
     47 H          -3.6711    9.0632    1.6916 H       1  LIG1        0.0278
     48 N          -6.2345   11.3740   -0.3705 N.pl3   1  LIG1       -0.3573
     49 H          -5.7164   11.9720    0.2622 H       1  LIG1        0.1423
     50 H          -6.7534   11.9371   -1.0327 H       1  LIG1        0.1423
@<TRIPOS>BOND
     1    43    41    1
     2    42    41   ar
     3    42    38   ar
     4    41    40   ar
     5    24    23    1
     6    12    11    1
     7    13    11    1
     8    21    19    1
     9    25    23    1
    10    11     3    1
    11    23    16    1
    12    50    48    1
    13    40    48    1
    14    40    39   ar
    15    38    29    1
    16    38    39   ar
    17    30    29   ar
    18    30    26   ar
    19    19    20    1
    20    19    15    1
    21    19    22    1
    22    29    28   ar
    23     9     7    1
    24    16    15   ar
    25    16    17   ar
    26    48    49    1
    27     8     7    1
    28    39    44    1
    29    15    14   ar
    30    37    35    1
    31    26    17    1
    32    26    27   ar
    33    28    27   ar
    34    28    35    1
    35    17    18   ar
    36     3     2   ar
    37     3     4   ar
    38    36    35    1
    39     7     2    1
    40     7    10    1
    41    27    31    1
    42    33    31    1
    43    14    18   ar
    44    14     4    1
    45     2     1   ar
    46     4     5   ar
    47    31    34    1
    48    31    32    1
    49    44    46    1
    50    44    47    1
    51    44    45    1
    52     1     5   ar
    53     1     6    1
