@<TRIPOS>MOLECULE
mol_data/opt/b3lyp/geoms/mol2/5ii.out
 15 15 0 0 0
SMALL
GASTEIGER

@<TRIPOS>ATOM
      1 C          -2.1688   -1.6902    0.0799 C.ar    1  LIG1       -0.0212
      2 C          -0.8025   -1.6752    0.0134 C.ar    1  LIG1       -0.0405
      3 C          -0.2725   -0.3310    0.0134 C.ar    1  LIG1       -0.0405
      4 C          -1.2608    0.6124    0.0799 C.ar    1  LIG1       -0.0212
      5 S          -2.8455   -0.0930    0.1440 S.2     1  LIG1       -0.1045
      6 H          -2.8196   -2.5539    0.0950 H       1  LIG1        0.0696
      7 H          -1.1469    1.6878    0.0951 H       1  LIG1        0.0696
      8 C           0.0568   -2.9083   -0.0525 C.3     1  LIG1       -0.0390
      9 H           0.7516   -2.9603    0.7945 H       1  LIG1        0.0278
     10 H           0.6652   -2.9264   -0.9648 H       1  LIG1        0.0278
     11 H          -0.5517   -3.8161   -0.0401 H       1  LIG1        0.0278
     12 C           1.1972   -0.0163   -0.0524 C.3     1  LIG1       -0.0390
     13 H           1.3721    1.0625   -0.0402 H       1  LIG1        0.0278
     14 H           1.6543   -0.4185   -0.9647 H       1  LIG1        0.0278
     15 H           1.7404   -0.4525    0.7947 H       1  LIG1        0.0278
@<TRIPOS>BOND
     1    10     8    1
     2    14    12    1
     3     8    11    1
     4     8     2    1
     5     8     9    1
     6    12    13    1
     7    12     3    1
     8    12    15    1
     9     2     3   ar
    10     2     1   ar
    11     3     4   ar
    12     1     6    1
    13     1     5   ar
    14     4     7    1
    15     4     5   ar
