@<TRIPOS>MOLECULE
mol_data/opt/b3lyp/geoms/mol2/5il.out
 16 16 0 0 0
SMALL
GASTEIGER

@<TRIPOS>ATOM
      1 C          -2.2688   -1.6847    0.1598 C.ar    1  LIG1       -0.0178
      2 C          -1.0034   -2.1087   -0.1276 C.ar    1  LIG1       -0.0018
      3 C          -0.0408   -1.0640    0.1165 C.ar    1  LIG1        0.1300
      4 C          -0.5894    0.1052    0.5744 C.ar    1  LIG1        0.0176
      5 S          -2.3181   -0.0410    0.7214 S.2     1  LIG1       -0.1011
      6 H          -3.1859   -2.2508    0.0724 H       1  LIG1        0.0697
      7 H          -0.0993    1.0310    0.8320 H       1  LIG1        0.0730
      8 C          -0.6177   -3.4695   -0.6315 C.3     1  LIG1       -0.0357
      9 H           0.0786   -3.9622    0.0562 H       1  LIG1        0.0279
     10 H          -0.1102   -3.4024   -1.6002 H       1  LIG1        0.0279
     11 H          -1.4956   -4.1098   -0.7477 H       1  LIG1        0.0279
     12 O           1.2727   -1.3353   -0.1245 O.3     1  LIG1       -0.4943
     13 C           2.1882   -0.2809    0.1274 C.3     1  LIG1        0.0788
     14 H           3.1793   -0.6660   -0.1161 H       1  LIG1        0.0660
     15 H           1.9710    0.5927   -0.5011 H       1  LIG1        0.0660
     16 H           2.1635    0.0235    1.1820 H       1  LIG1        0.0660
@<TRIPOS>BOND
     1    10     8    1
     2    11     8    1
     3     8     2    1
     4     8     9    1
     5    15    13    1
     6     2     3   ar
     7     2     1   ar
     8    12     3    1
     9    12    13    1
    10    14    13    1
    11     6     1    1
    12     3     4   ar
    13    13    16    1
    14     1     5   ar
    15     4     5   ar
    16     4     7    1
