@<TRIPOS>MOLECULE
mol_data/opt/b3lyp/geoms/mol2/5il5il5il-5il-.out
 58 61 0 0 0
SMALL
GASTEIGER

@<TRIPOS>ATOM
      1 C          -1.3560   -1.9373    2.2583 C.ar    1  LIG1       -0.0172
      2 C          -0.6024   -2.1663    1.1409 C.ar    1  LIG1       -0.0011
      3 C          -0.2061   -0.9336    0.5192 C.ar    1  LIG1        0.1382
      4 C          -0.6412    0.2052    1.1699 C.ar    1  LIG1        0.0681
      5 S          -1.5870   -0.2486    2.5796 S.2     1  LIG1       -0.0921
      6 H          -1.8012   -2.6729    2.9144 H       1  LIG1        0.0697
      7 C          -0.2247   -3.5141    0.5959 C.3     1  LIG1       -0.0357
      8 H           0.8633   -3.6287    0.5477 H       1  LIG1        0.0279
      9 H          -0.6027   -3.6523   -0.4230 H       1  LIG1        0.0279
     10 H          -0.6269   -4.3166    1.2192 H       1  LIG1        0.0279
     11 O           0.5540   -0.9537   -0.6246 O.3     1  LIG1       -0.4937
     12 C          -0.0958   -0.4595   -1.8015 C.3     1  LIG1        0.0789
     13 H           0.6020   -0.6224   -2.6253 H       1  LIG1        0.0660
     14 H          -1.0244   -1.0088   -1.9972 H       1  LIG1        0.0660
     15 H          -0.3202    0.6087   -1.7184 H       1  LIG1        0.0660
     16 C          -0.3747    1.5985    0.8495 C.ar    1  LIG1        0.0365
     17 C           0.8381    2.1905    0.5572 C.ar    1  LIG1        0.0072
     18 C           0.6916    3.5918    0.2933 C.ar    1  LIG1        0.1388
     19 C          -0.5956    4.0799    0.4052 C.ar    1  LIG1        0.0687
     20 S          -1.6841    2.7712    0.8236 S.2     1  LIG1       -0.0831
     21 C           2.1716    1.4997    0.5575 C.3     1  LIG1       -0.0351
     22 H           2.9680    2.2294    0.7237 H       1  LIG1        0.0279
     23 H           2.3667    0.9834   -0.3888 H       1  LIG1        0.0279
     24 H           2.2143    0.7392    1.3419 H       1  LIG1        0.0279
     25 O           1.7690    4.3868   -0.0187 O.3     1  LIG1       -0.4937
     26 C           2.0572    4.4593   -1.4185 C.3     1  LIG1        0.0789
     27 H           2.9308    5.1060   -1.5218 H       1  LIG1        0.0660
     28 H           2.2904    3.4692   -1.8295 H       1  LIG1        0.0660
     29 H           1.2152    4.8895   -1.9730 H       1  LIG1        0.0660
     30 C          -1.0670    5.4433    0.2274 C.ar    1  LIG1        0.0365
     31 C          -0.5438    6.6099    0.7482 C.ar    1  LIG1        0.0072
     32 C          -1.2960    7.7566    0.3308 C.ar    1  LIG1        0.1388
     33 C          -2.3878    7.4860   -0.4698 C.ar    1  LIG1        0.0687
     34 S          -2.4961    5.7598   -0.7485 S.2     1  LIG1       -0.0831
     35 C           0.6277    6.7098    1.6823 C.3     1  LIG1       -0.0351
     36 H           0.5648    7.6366    2.2578 H       1  LIG1        0.0279
     37 H           1.5796    6.6960    1.1418 H       1  LIG1        0.0279
     38 H           0.6489    5.8623    2.3730 H       1  LIG1        0.0279
     39 O          -0.9596    9.0278    0.7334 O.3     1  LIG1       -0.4937
     40 C          -0.0588    9.7019   -0.1504 C.3     1  LIG1        0.0789
     41 H           0.1330   10.6818    0.2914 H       1  LIG1        0.0660
     42 H           0.8884    9.1568   -0.2462 H       1  LIG1        0.0660
     43 H          -0.5029    9.8290   -1.1444 H       1  LIG1        0.0660
     44 C          -3.3540    8.4168   -1.0306 C.ar    1  LIG1        0.0359
     45 C          -4.0315    9.4391   -0.3984 C.ar    1  LIG1        0.0066
     46 C          -4.9066   10.1295   -1.3083 C.ar    1  LIG1        0.1306
     47 C          -4.9009    9.6344   -2.5835 C.ar    1  LIG1        0.0183
     48 S          -3.8054    8.3033   -2.7305 S.2     1  LIG1       -0.0920
     49 H          -5.4958    9.9699   -3.4204 H       1  LIG1        0.0730
     50 C          -3.9596    9.7678    1.0649 C.3     1  LIG1       -0.0351
     51 H          -4.8913   10.2425    1.3842 H       1  LIG1        0.0279
     52 H          -3.1279   10.4434    1.2913 H       1  LIG1        0.0279
     53 H          -3.7994    8.8652    1.6603 H       1  LIG1        0.0279
     54 O          -5.7388   11.1487   -0.9093 O.3     1  LIG1       -0.4943
     55 C          -5.1130   12.4305   -0.8440 C.3     1  LIG1        0.0788
     56 H          -5.8787   13.1335   -0.5096 H       1  LIG1        0.0660
     57 H          -4.2793   12.4399   -0.1307 H       1  LIG1        0.0660
     58 H          -4.7400   12.7386   -1.8291 H       1  LIG1        0.0660
@<TRIPOS>BOND
     1    49    47    1
     2    48    47   ar
     3    48    44   ar
     4    13    12    1
     5    47    46   ar
     6    14    12    1
     7    29    26    1
     8    28    26    1
     9    58    55    1
    10    12    15    1
    11    12    11    1
    12    27    26    1
    13    26    25    1
    14    46    54    1
    15    46    45   ar
    16    43    40    1
    17    44    33    1
    18    44    45   ar
    19    54    55    1
    20    55    56    1
    21    55    57    1
    22    34    33   ar
    23    34    30   ar
    24    11     3    1
    25    33    32   ar
    26     9     7    1
    27    45    50    1
    28    23    21    1
    29    42    40    1
    30    40    41    1
    31    40    39    1
    32    25    18    1
    33    30    19    1
    34    30    31   ar
    35    18    19   ar
    36    18    17   ar
    37    32    39    1
    38    32    31   ar
    39    19    20   ar
    40     3     2   ar
    41     3     4   ar
    42     8     7    1
    43    17    21    1
    44    17    16   ar
    45    21    22    1
    46    21    24    1
    47     7     2    1
    48     7    10    1
    49    31    35    1
    50    20    16   ar
    51    16     4    1
    52    50    52    1
    53    50    51    1
    54    50    53    1
    55     2     1   ar
    56    37    35    1
    57     4     5   ar
    58    35    36    1
    59    35    38    1
    60     1     5   ar
    61     1     6    1
