@<TRIPOS>MOLECULE
mol_data/opt/b3lyp/geoms/mol2/5il5il-5il.out
 44 46 0 0 0
SMALL
GASTEIGER

@<TRIPOS>ATOM
      1 C          -1.9423   -2.0261    1.3792 C.ar    1  LIG1       -0.0172
      2 C          -0.7572   -2.2187    0.7254 C.ar    1  LIG1       -0.0011
      3 C          -0.1864   -0.9696    0.3049 C.ar    1  LIG1        0.1382
      4 C          -0.9231    0.1466    0.6520 C.ar    1  LIG1        0.0681
      5 S          -2.3759   -0.3514    1.5059 S.2     1  LIG1       -0.0921
      6 H          -2.5966   -2.7812    1.7933 H       1  LIG1        0.0697
      7 C          -0.1082   -3.5460    0.4544 C.3     1  LIG1       -0.0357
      8 H           0.8894   -3.5958    0.9033 H       1  LIG1        0.0279
      9 H           0.0196   -3.7157   -0.6204 H       1  LIG1        0.0279
     10 H          -0.7074   -4.3658    0.8583 H       1  LIG1        0.0279
     11 O           1.0063   -0.9507   -0.3766 O.3     1  LIG1       -0.4937
     12 C           0.9199   -0.5435   -1.7471 C.3     1  LIG1        0.0789
     13 H           1.9229   -0.6586   -2.1631 H       1  LIG1        0.0660
     14 H           0.2207   -1.1795   -2.3031 H       1  LIG1        0.0660
     15 H           0.6049    0.5012   -1.8373 H       1  LIG1        0.0660
     16 C          -0.6153    1.5502    0.4294 C.ar    1  LIG1        0.0365
     17 C           0.5680    2.2168    0.6785 C.ar    1  LIG1        0.0072
     18 C           0.4782    3.6025    0.3217 C.ar    1  LIG1        0.1388
     19 C          -0.7490    4.0060   -0.1658 C.ar    1  LIG1        0.0687
     20 S          -1.8388    2.6348   -0.2171 S.2     1  LIG1       -0.0831
     21 C           1.7992    1.6152    1.2932 C.3     1  LIG1       -0.0351
     22 H           2.4057    2.3992    1.7531 H       1  LIG1        0.0279
     23 H           2.4122    1.0909    0.5523 H       1  LIG1        0.0279
     24 H           1.5321    0.8777    2.0551 H       1  LIG1        0.0279
     25 O           1.5375    4.4635    0.4882 O.3     1  LIG1       -0.4937
     26 C           2.3965    4.5605   -0.6518 C.3     1  LIG1        0.0789
     27 H           3.1937    5.2558   -0.3810 H       1  LIG1        0.0660
     28 H           2.8362    3.5874   -0.9036 H       1  LIG1        0.0660
     29 H           1.8542    4.9463   -1.5228 H       1  LIG1        0.0660
     30 C          -1.1662    5.3339   -0.5860 C.ar    1  LIG1        0.0359
     31 C          -0.9979    6.5370    0.0682 C.ar    1  LIG1        0.0066
     32 C          -1.5652    7.6257   -0.6822 C.ar    1  LIG1        0.1306
     33 C          -2.1570    7.2539   -1.8583 C.ar    1  LIG1        0.0183
     34 S          -2.0300    5.5467   -2.1075 S.2     1  LIG1       -0.0920
     35 H          -2.6708    7.8899   -2.5642 H       1  LIG1        0.0730
     36 C          -0.3851    6.7210    1.4266 C.3     1  LIG1       -0.0351
     37 H          -0.7938    7.6185    1.8988 H       1  LIG1        0.0279
     38 H           0.7043    6.8196    1.3734 H       1  LIG1        0.0279
     39 H          -0.5898    5.8591    2.0672 H       1  LIG1        0.0279
     40 O          -1.5812    8.9194   -0.2166 O.3     1  LIG1       -0.4943
     41 C          -0.3780    9.6486   -0.4598 C.3     1  LIG1        0.0788
     42 H          -0.5255   10.6429   -0.0332 H       1  LIG1        0.0660
     43 H           0.4878    9.1754    0.0202 H       1  LIG1        0.0660
     44 H          -0.1812    9.7387   -1.5357 H       1  LIG1        0.0660
@<TRIPOS>BOND
     1    35    33    1
     2    14    12    1
     3    13    12    1
     4    34    33   ar
     5    34    30   ar
     6    33    32   ar
     7    15    12    1
     8    12    11    1
     9    44    41    1
    10    29    26    1
    11    28    26    1
    12    32    40    1
    13    32    31   ar
    14    26    27    1
    15    26    25    1
    16     9     7    1
    17    30    19    1
    18    30    31   ar
    19    41    40    1
    20    41    42    1
    21    41    43    1
    22    11     3    1
    23    20    19   ar
    24    20    16   ar
    25    19    18   ar
    26    31    36    1
    27     3     4   ar
    28     3     2   ar
    29    18    25    1
    30    18    17   ar
    31    16     4    1
    32    16    17   ar
    33     7     2    1
    34     7    10    1
    35     7     8    1
    36    23    21    1
    37     4     5   ar
    38    17    21    1
    39     2     1   ar
    40    21    22    1
    41    21    24    1
    42    38    36    1
    43     1     5   ar
    44     1     6    1
    45    36    37    1
    46    36    39    1
