@<TRIPOS>MOLECULE
mol_data/opt/b3lyp/geoms/mol2/5il5il-5il5il.out
 58 61 0 0 0
SMALL
GASTEIGER

@<TRIPOS>ATOM
      1 C          -1.3050   -1.9450    2.2687 C.ar    1  LIG1       -0.0172
      2 C          -0.5736   -2.1694    1.1357 C.ar    1  LIG1       -0.0011
      3 C          -0.1907   -0.9342    0.5106 C.ar    1  LIG1        0.1382
      4 C          -0.6136    0.2019    1.1738 C.ar    1  LIG1        0.0681
      5 S          -1.5308   -0.2576    2.6005 S.2     1  LIG1       -0.0921
      6 H          -1.7365   -2.6833    2.9310 H       1  LIG1        0.0697
      7 C          -0.2057   -3.5150    0.5785 C.3     1  LIG1       -0.0357
      8 H           0.8812   -3.6285    0.5085 H       1  LIG1        0.0279
      9 H          -0.6035   -3.6498   -0.4333 H       1  LIG1        0.0279
     10 H          -0.5951   -4.3201    1.2066 H       1  LIG1        0.0279
     11 O           0.5465   -0.9495   -0.6482 O.3     1  LIG1       -0.4937
     12 C          -0.1279   -0.4538   -1.8104 C.3     1  LIG1        0.0789
     13 H           0.5536   -0.6125   -2.6485 H       1  LIG1        0.0660
     14 H          -1.0589   -1.0049   -1.9890 H       1  LIG1        0.0660
     15 H          -0.3535    0.6137   -1.7197 H       1  LIG1        0.0660
     16 C          -0.3549    1.5965    0.8527 C.ar    1  LIG1        0.0365
     17 C           0.8514    2.1907    0.5386 C.ar    1  LIG1        0.0072
     18 C           0.6984    3.5927    0.2821 C.ar    1  LIG1        0.1388
     19 C          -0.5867    4.0791    0.4209 C.ar    1  LIG1        0.0687
     20 S          -1.6655    2.7680    0.8565 S.2     1  LIG1       -0.0831
     21 C           2.1853    1.5011    0.5101 C.3     1  LIG1       -0.0351
     22 H           2.9841    2.2311    0.6626 H       1  LIG1        0.0279
     23 H           2.3619    0.9878   -0.4413 H       1  LIG1        0.0279
     24 H           2.2444    0.7384    1.2914 H       1  LIG1        0.0279
     25 O           1.7687    4.3898   -0.0487 O.3     1  LIG1       -0.4937
     26 C           2.0296    4.4662   -1.4536 C.3     1  LIG1        0.0789
     27 H           2.9002    5.1143   -1.5721 H       1  LIG1        0.0660
     28 H           2.2560    3.4775   -1.8716 H       1  LIG1        0.0660
     29 H           1.1764    4.8966   -1.9905 H       1  LIG1        0.0660
     30 C          -1.0629    5.4426    0.2568 C.ar    1  LIG1        0.0365
     31 C          -0.5303    6.6080    0.7707 C.ar    1  LIG1        0.0072
     32 C          -1.2917    7.7554    0.3723 C.ar    1  LIG1        0.1388
     33 C          -2.3993    7.4863   -0.4069 C.ar    1  LIG1        0.0687
     34 S          -2.5117    5.7609   -0.6888 S.2     1  LIG1       -0.0831
     35 C           0.6598    6.7062    1.6813 C.3     1  LIG1       -0.0351
     36 H           0.6076    7.6312    2.2608 H       1  LIG1        0.0279
     37 H           1.6006    6.6952    1.1216 H       1  LIG1        0.0279
     38 H           0.6958    5.8566    2.3687 H       1  LIG1        0.0279
     39 O          -0.9485    9.0256    0.7720 O.3     1  LIG1       -0.4937
     40 C          -0.0655    9.7029   -0.1272 C.3     1  LIG1        0.0789
     41 H           0.1348   10.6814    0.3139 H       1  LIG1        0.0660
     42 H           0.8799    9.1585   -0.2435 H       1  LIG1        0.0660
     43 H          -0.5291    9.8330   -1.1118 H       1  LIG1        0.0660
     44 C          -3.3774    8.4180   -0.9451 C.ar    1  LIG1        0.0359
     45 C          -4.0429    9.4376   -0.2960 C.ar    1  LIG1        0.0066
     46 C          -4.9368   10.1301   -1.1857 C.ar    1  LIG1        0.1306
     47 C          -4.9564    9.6392   -2.4625 C.ar    1  LIG1        0.0183
     48 S          -3.8630    8.3095   -2.6359 S.2     1  LIG1       -0.0920
     49 H          -5.5684    9.9767   -3.2860 H       1  LIG1        0.0730
     50 C          -3.9415    9.7619    1.1665 C.3     1  LIG1       -0.0351
     51 H          -4.8675   10.2336    1.5064 H       1  LIG1        0.0279
     52 H          -3.1068   10.4386    1.3778 H       1  LIG1        0.0279
     53 H          -3.7672    8.8577    1.7556 H       1  LIG1        0.0279
     54 O          -5.7615   11.1473   -0.7665 O.3     1  LIG1       -0.4943
     55 C          -5.1359   12.4296   -0.7107 C.3     1  LIG1        0.0788
     56 H          -5.8952   13.1308   -0.3587 H       1  LIG1        0.0660
     57 H          -4.2876   12.4380   -0.0148 H       1  LIG1        0.0660
     58 H          -4.7836   12.7407   -1.7025 H       1  LIG1        0.0660
@<TRIPOS>BOND
     1    49    47    1
     2    13    12    1
     3    48    47   ar
     4    48    44   ar
     5    47    46   ar
     6    29    26    1
     7    14    12    1
     8    28    26    1
     9    12    15    1
    10    12    11    1
    11    58    55    1
    12    27    26    1
    13    26    25    1
    14    46    54    1
    15    46    45   ar
    16    43    40    1
    17    44    33    1
    18    44    45   ar
    19    54    55    1
    20    55    56    1
    21    55    57    1
    22    34    33   ar
    23    34    30   ar
    24    11     3    1
    25    23    21    1
    26     9     7    1
    27    33    32   ar
    28    45    50    1
    29    42    40    1
    30    40    41    1
    31    40    39    1
    32    25    18    1
    33    30    19    1
    34    30    31   ar
    35    18    19   ar
    36    18    17   ar
    37    32    31   ar
    38    32    39    1
    39    19    20   ar
    40     8     7    1
    41    21    17    1
    42    21    22    1
    43    21    24    1
    44     3     2   ar
    45     3     4   ar
    46    17    16   ar
    47     7     2    1
    48     7    10    1
    49    31    35    1
    50    16    20   ar
    51    16     4    1
    52    37    35    1
    53     2     1   ar
    54    50    52    1
    55    50    51    1
    56    50    53    1
    57     4     5   ar
    58    35    36    1
    59    35    38    1
    60     1     5   ar
    61     1     6    1
