@<TRIPOS>MOLECULE
mol_data/opt/b3lyp/geoms/mol2/5il5il-5il-5il-.out
 58 61 0 0 0
SMALL
GASTEIGER

@<TRIPOS>ATOM
      1 C          -1.3376   -1.9461    2.2522 C.ar    1  LIG1       -0.0172
      2 C          -0.5924   -2.1706    1.1282 C.ar    1  LIG1       -0.0011
      3 C          -0.2010   -0.9355    0.5083 C.ar    1  LIG1        0.1382
      4 C          -0.6312    0.2007    1.1667 C.ar    1  LIG1        0.0681
      5 S          -1.5662   -0.2587    2.5818 S.2     1  LIG1       -0.0921
      6 H          -1.7776   -2.6843    2.9088 H       1  LIG1        0.0697
      7 C          -0.2188   -3.5163    0.5750 C.3     1  LIG1       -0.0357
      8 H           0.8688   -3.6305    0.5176 H       1  LIG1        0.0279
      9 H          -0.6051   -3.6509   -0.4412 H       1  LIG1        0.0279
     10 H          -0.6159   -4.3213    1.1986 H       1  LIG1        0.0279
     11 O           0.5503   -0.9511   -0.6414 O.3     1  LIG1       -0.4937
     12 C          -0.1086   -0.4526   -1.8114 C.3     1  LIG1        0.0789
     13 H           0.5828   -0.6123   -2.6412 H       1  LIG1        0.0660
     14 H          -1.0387   -1.0013   -2.0019 H       1  LIG1        0.0660
     15 H          -0.3326    0.6153   -1.7226 H       1  LIG1        0.0660
     16 C          -0.3674    1.5953    0.8497 C.ar    1  LIG1        0.0365
     17 C           0.8429    2.1887    0.5501 C.ar    1  LIG1        0.0072
     18 C           0.6941    3.5910    0.2930 C.ar    1  LIG1        0.1388
     19 C          -0.5922    4.0784    0.4173 C.ar    1  LIG1        0.0687
     20 S          -1.6771    2.7679    0.8392 S.2     1  LIG1       -0.0831
     21 C           2.1765    1.4981    0.5370 C.3     1  LIG1       -0.0351
     22 H           2.9740    2.2273    0.6998 H       1  LIG1        0.0279
     23 H           2.3641    0.9856   -0.4128 H       1  LIG1        0.0279
     24 H           2.2255    0.7346    1.3181 H       1  LIG1        0.0279
     25 O           1.7689    4.3876   -0.0242 O.3     1  LIG1       -0.4937
     26 C           2.0463    4.4654   -1.4259 C.3     1  LIG1        0.0789
     27 H           2.9189    5.1128   -1.5334 H       1  LIG1        0.0660
     28 H           2.2767    3.4770   -1.8424 H       1  LIG1        0.0660
     29 H           1.2000    4.8973   -1.9723 H       1  LIG1        0.0660
     30 C          -1.0653    5.4424    0.2487 C.ar    1  LIG1        0.0365
     31 C          -0.5387    6.6070    0.7705 C.ar    1  LIG1        0.0072
     32 C          -1.2941    7.7552    0.3635 C.ar    1  LIG1        0.1388
     33 C          -2.3917    7.4876   -0.4303 C.ar    1  LIG1        0.0687
     34 S          -2.5015    5.7626   -0.7153 S.2     1  LIG1       -0.0831
     35 C           0.6399    6.7033    1.6961 C.3     1  LIG1       -0.0351
     36 H           0.5818    7.6282    2.2751 H       1  LIG1        0.0279
     37 H           1.5877    6.6909    1.1483 H       1  LIG1        0.0279
     38 H           0.6660    5.8535    2.3838 H       1  LIG1        0.0279
     39 O          -0.9551    9.0248    0.7688 O.3     1  LIG1       -0.4937
     40 C          -0.0613    9.7029   -0.1190 C.3     1  LIG1        0.0789
     41 H           0.1340   10.6809    0.3257 H       1  LIG1        0.0660
     42 H           0.8852    9.1584   -0.2247 H       1  LIG1        0.0660
     43 H          -0.5132    9.8344   -1.1089 H       1  LIG1        0.0660
     44 C          -3.3622    8.4205   -0.9802 C.ar    1  LIG1        0.0359
     45 C          -4.0352    9.4400   -0.3390 C.ar    1  LIG1        0.0066
     46 C          -4.9171   10.1339   -1.2397 C.ar    1  LIG1        0.1306
     47 C          -4.9206    9.6439   -2.5169 C.ar    1  LIG1        0.0183
     48 S          -3.8260    8.3136   -2.6772 S.2     1  LIG1       -0.0920
     49 H          -5.5217    9.9826   -3.3480 H       1  LIG1        0.0730
     50 C          -3.9527    9.7629    1.1250 C.3     1  LIG1       -0.0351
     51 H          -4.8824   10.2356    1.4532 H       1  LIG1        0.0279
     52 H          -3.1199   10.4382    1.3480 H       1  LIG1        0.0279
     53 H          -3.7874    8.8579    1.7156 H       1  LIG1        0.0279
     54 O          -5.7466   11.1513   -0.8306 O.3     1  LIG1       -0.4943
     55 C          -5.1207   12.4330   -0.7646 C.3     1  LIG1        0.0788
     56 H          -5.8841   13.1343   -0.4217 H       1  LIG1        0.0660
     57 H          -4.2818   12.4397   -0.0572 H       1  LIG1        0.0660
     58 H          -4.7548   12.7452   -1.7510 H       1  LIG1        0.0660
@<TRIPOS>BOND
     1    49    47    1
     2    48    47   ar
     3    48    44   ar
     4    13    12    1
     5    47    46   ar
     6    14    12    1
     7    29    26    1
     8    28    26    1
     9    12    15    1
    10    12    11    1
    11    58    55    1
    12    27    26    1
    13    26    25    1
    14    46    54    1
    15    46    45   ar
    16    43    40    1
    17    44    33    1
    18    44    45   ar
    19    54    55    1
    20    55    56    1
    21    55    57    1
    22    34    33   ar
    23    34    30   ar
    24    11     3    1
    25     9     7    1
    26    33    32   ar
    27    23    21    1
    28    45    50    1
    29    42    40    1
    30    40    41    1
    31    40    39    1
    32    25    18    1
    33    30    19    1
    34    30    31   ar
    35    18    19   ar
    36    18    17   ar
    37    32    39    1
    38    32    31   ar
    39    19    20   ar
    40     3     2   ar
    41     3     4   ar
    42     8     7    1
    43    21    17    1
    44    21    22    1
    45    21    24    1
    46    17    16   ar
    47     7     2    1
    48     7    10    1
    49    31    35    1
    50    20    16   ar
    51    16     4    1
    52    50    52    1
    53    50    51    1
    54    50    53    1
    55     2     1   ar
    56    37    35    1
    57     4     5   ar
    58    35    36    1
    59    35    38    1
    60     1     5   ar
    61     1     6    1
