@<TRIPOS>MOLECULE
mol_data/opt/b3lyp/geoms/mol2/5il5il-5il-.out
 44 46 0 0 0
SMALL
GASTEIGER

@<TRIPOS>ATOM
      1 C          -1.9502   -2.0295    1.3633 C.ar    1  LIG1       -0.0172
      2 C          -0.7644   -2.2211    0.7104 C.ar    1  LIG1       -0.0011
      3 C          -0.1914   -0.9711    0.2955 C.ar    1  LIG1        0.1382
      4 C          -0.9271    0.1446    0.6461 C.ar    1  LIG1        0.0681
      5 S          -2.3818   -0.3547    1.4959 S.2     1  LIG1       -0.0921
      6 H          -2.6061   -2.7854    1.7734 H       1  LIG1        0.0697
      7 C          -0.1168   -3.5482    0.4348 C.3     1  LIG1       -0.0357
      8 H           0.8800   -3.6013    0.8850 H       1  LIG1        0.0279
      9 H           0.0123   -3.7136   -0.6405 H       1  LIG1        0.0279
     10 H          -0.7179   -4.3688    0.8344 H       1  LIG1        0.0279
     11 O           1.0024   -0.9512   -0.3841 O.3     1  LIG1       -0.4937
     12 C           0.9192   -0.5371   -1.7527 C.3     1  LIG1        0.0789
     13 H           1.9225   -0.6528   -2.1677 H       1  LIG1        0.0660
     14 H           0.2191   -1.1685   -2.3128 H       1  LIG1        0.0660
     15 H           0.6071    0.5089   -1.8383 H       1  LIG1        0.0660
     16 C          -0.6172    1.5489    0.4297 C.ar    1  LIG1        0.0365
     17 C           0.5664    2.2131    0.6838 C.ar    1  LIG1        0.0072
     18 C           0.4788    3.6004    0.3324 C.ar    1  LIG1        0.1388
     19 C          -0.7470    4.0071   -0.1558 C.ar    1  LIG1        0.0687
     20 S          -1.8382    2.6374   -0.2148 S.2     1  LIG1       -0.0831
     21 C           1.7957    1.6075    1.2981 C.3     1  LIG1       -0.0351
     22 H           2.4042    2.3894    1.7593 H       1  LIG1        0.0279
     23 H           2.4076    1.0825    0.5568 H       1  LIG1        0.0279
     24 H           1.5265    0.8698    2.0591 H       1  LIG1        0.0279
     25 O           1.5388    4.4593    0.5045 O.3     1  LIG1       -0.4937
     26 C           2.3985    4.5626   -0.6344 C.3     1  LIG1        0.0789
     27 H           3.1962    5.2554   -0.3588 H       1  LIG1        0.0660
     28 H           2.8374    3.5905   -0.8918 H       1  LIG1        0.0660
     29 H           1.8571    4.9541   -1.5033 H       1  LIG1        0.0660
     30 C          -1.1621    5.3372   -0.5714 C.ar    1  LIG1        0.0359
     31 C          -0.9941    6.5374    0.0880 C.ar    1  LIG1        0.0066
     32 C          -1.5587    7.6298   -0.6591 C.ar    1  LIG1        0.1306
     33 C          -2.1481    7.2634   -1.8380 C.ar    1  LIG1        0.0183
     34 S          -2.0222    5.5571   -2.0940 S.2     1  LIG1       -0.0920
     35 H          -2.6598    7.9027   -2.5424 H       1  LIG1        0.0730
     36 C          -0.3841    6.7153    1.4486 C.3     1  LIG1       -0.0351
     37 H          -0.7919    7.6121    1.9229 H       1  LIG1        0.0279
     38 H           0.7056    6.8114    1.3983 H       1  LIG1        0.0279
     39 H          -0.5924    5.8516    2.0857 H       1  LIG1        0.0279
     40 O          -1.5744    8.9215   -0.1882 O.3     1  LIG1       -0.4943
     41 C          -0.3701    9.6506   -0.4260 C.3     1  LIG1        0.0788
     42 H          -0.5176   10.6433    0.0042 H       1  LIG1        0.0660
     43 H           0.4943    9.1747    0.0539 H       1  LIG1        0.0660
     44 H          -0.1710    9.7448   -1.5011 H       1  LIG1        0.0660
@<TRIPOS>BOND
     1    35    33    1
     2    14    12    1
     3    13    12    1
     4    34    33   ar
     5    34    30   ar
     6    15    12    1
     7    33    32   ar
     8    12    11    1
     9    29    26    1
    10    44    41    1
    11    28    26    1
    12    32    40    1
    13    32    31   ar
    14     9     7    1
    15    26    27    1
    16    26    25    1
    17    30    19    1
    18    30    31   ar
    19    41    40    1
    20    41    42    1
    21    41    43    1
    22    11     3    1
    23    20    19   ar
    24    20    16   ar
    25    19    18   ar
    26    31    36    1
    27     3     4   ar
    28     3     2   ar
    29    18    25    1
    30    18    17   ar
    31    16     4    1
    32    16    17   ar
    33     7     2    1
    34     7    10    1
    35     7     8    1
    36    23    21    1
    37     4     5   ar
    38    17    21    1
    39     2     1   ar
    40    21    22    1
    41    21    24    1
    42     1     5   ar
    43     1     6    1
    44    38    36    1
    45    36    37    1
    46    36    39    1
