@<TRIPOS>MOLECULE
mol_data/opt/b3lyp/geoms/mol2/5il5il5il5il-.out
 58 61 0 0 0
SMALL
GASTEIGER

@<TRIPOS>ATOM
      1 C          -1.3368   -1.9339    2.2739 C.ar    1  LIG1       -0.0172
      2 C          -0.5920   -2.1644    1.1510 C.ar    1  LIG1       -0.0011
      3 C          -0.2008   -0.9325    0.5245 C.ar    1  LIG1        0.1382
      4 C          -0.6310    0.2072    1.1768 C.ar    1  LIG1        0.0681
      5 S          -1.5656   -0.2448    2.5946 S.2     1  LIG1       -0.0921
      6 H          -1.7767   -2.6687    2.9346 H       1  LIG1        0.0697
      7 C          -0.2182   -3.5129    0.6049 C.3     1  LIG1       -0.0357
      8 H           0.8694   -3.6274    0.5484 H       1  LIG1        0.0279
      9 H          -0.6041   -3.6526   -0.4108 H       1  LIG1        0.0279
     10 H          -0.6155   -4.3146    1.2325 H       1  LIG1        0.0279
     11 O           0.5503   -0.9541   -0.6253 O.3     1  LIG1       -0.4937
     12 C          -0.1090   -0.4621   -1.7978 C.3     1  LIG1        0.0789
     13 H           0.5823   -0.6262   -2.6269 H       1  LIG1        0.0660
     14 H          -1.0390   -1.0119   -1.9852 H       1  LIG1        0.0660
     15 H          -0.3331    0.6063   -1.7147 H       1  LIG1        0.0660
     16 C          -0.3673    1.6000    0.8522 C.ar    1  LIG1        0.0365
     17 C           0.8432    2.1918    0.5497 C.ar    1  LIG1        0.0072
     18 C           0.6944    3.5927    0.2848 C.ar    1  LIG1        0.1388
     19 C          -0.5920    4.0806    0.4059 C.ar    1  LIG1        0.0687
     20 S          -1.6770    2.7725    0.8348 S.2     1  LIG1       -0.0831
     21 C           2.1768    1.5011    0.5406 C.3     1  LIG1       -0.0351
     22 H           2.9742    2.2313    0.6992 H       1  LIG1        0.0279
     23 H           2.3644    0.9833   -0.4063 H       1  LIG1        0.0279
     24 H           2.2258    0.7420    1.3259 H       1  LIG1        0.0279
     25 O           1.7692    4.3873   -0.0369 O.3     1  LIG1       -0.4937
     26 C           2.0463    4.4578   -1.4390 C.3     1  LIG1        0.0789
     27 H           2.9190    5.1044   -1.5502 H       1  LIG1        0.0660
     28 H           2.2762    3.4671   -1.8504 H       1  LIG1        0.0660
     29 H           1.1998    4.8871   -1.9874 H       1  LIG1        0.0660
     30 C          -1.0651    5.4437    0.2298 C.ar    1  LIG1        0.0365
     31 C          -0.5379    6.6112    0.7446 C.ar    1  LIG1        0.0072
     32 C          -1.2936    7.7572    0.3316 C.ar    1  LIG1        0.1388
     33 C          -2.3919    7.4851   -0.4597 C.ar    1  LIG1        0.0687
     34 S          -2.5021    5.7585   -0.7348 S.2     1  LIG1       -0.0831
     35 C           0.6412    6.7129    1.6690 C.3     1  LIG1       -0.0351
     36 H           0.5826    7.6404    2.2437 H       1  LIG1        0.0279
     37 H           1.5887    6.6988    1.1208 H       1  LIG1        0.0279
     38 H           0.6684    5.8663    2.3606 H       1  LIG1        0.0279
     39 O          -0.9544    9.0290    0.7294 O.3     1  LIG1       -0.4937
     40 C          -0.0607    9.7019   -0.1624 C.3     1  LIG1        0.0789
     41 H           0.1347   10.6825    0.2764 H       1  LIG1        0.0660
     42 H           0.8858    9.1567   -0.2650 H       1  LIG1        0.0660
     43 H          -0.5127    9.8275   -1.1530 H       1  LIG1        0.0660
     44 C          -3.3628    8.4149   -1.0141 C.ar    1  LIG1        0.0359
     45 C          -4.0356    9.4378   -0.3779 C.ar    1  LIG1        0.0066
     46 C          -4.9181   10.1267   -1.2817 C.ar    1  LIG1        0.1306
     47 C          -4.9224    9.6298   -2.5563 C.ar    1  LIG1        0.0183
     48 S          -3.8278    8.2988   -2.7101 S.2     1  LIG1       -0.0920
     49 H          -5.5241    9.9639   -3.3888 H       1  LIG1        0.0730
     50 C          -3.9519    9.7688    1.0842 C.3     1  LIG1       -0.0351
     51 H          -4.8815   10.2429    1.4106 H       1  LIG1        0.0279
     52 H          -3.1192   10.4457    1.3027 H       1  LIG1        0.0279
     53 H          -3.7856    8.8672    1.6796 H       1  LIG1        0.0279
     54 O          -5.7474   11.1463   -0.8776 O.3     1  LIG1       -0.4943
     55 C          -5.1216   12.4284   -0.8192 C.3     1  LIG1        0.0788
     56 H          -5.8849   13.1316   -0.4800 H       1  LIG1        0.0660
     57 H          -4.2824   12.4392   -0.1124 H       1  LIG1        0.0660
     58 H          -4.7564   12.7350   -1.8077 H       1  LIG1        0.0660
@<TRIPOS>BOND
     1    49    47    1
     2    48    47   ar
     3    48    44   ar
     4    13    12    1
     5    47    46   ar
     6    29    26    1
     7    14    12    1
     8    28    26    1
     9    58    55    1
    10    12    15    1
    11    12    11    1
    12    27    26    1
    13    26    25    1
    14    46    54    1
    15    46    45   ar
    16    43    40    1
    17    44    33    1
    18    44    45   ar
    19    54    55    1
    20    55    56    1
    21    55    57    1
    22    34    33   ar
    23    34    30   ar
    24    11     3    1
    25    33    32   ar
    26     9     7    1
    27    23    21    1
    28    45    50    1
    29    42    40    1
    30    40    41    1
    31    40    39    1
    32    25    18    1
    33    30    19    1
    34    30    31   ar
    35    18    19   ar
    36    18    17   ar
    37    32    39    1
    38    32    31   ar
    39    19    20   ar
    40     3     2   ar
    41     3     4   ar
    42    21    17    1
    43    21    22    1
    44    21    24    1
    45     8     7    1
    46    17    16   ar
    47     7     2    1
    48     7    10    1
    49    31    35    1
    50    20    16   ar
    51    16     4    1
    52    50    52    1
    53    50    51    1
    54    50    53    1
    55    37    35    1
    56     2     1   ar
    57     4     5   ar
    58    35    36    1
    59    35    38    1
    60     1     5   ar
    61     1     6    1
