@<TRIPOS>MOLECULE
mol_data/opt/b3lyp/geoms/mol2/5il5il-5il-5il.out
 58 61 0 0 0
SMALL
GASTEIGER

@<TRIPOS>ATOM
      1 C          -1.3312   -1.9491    2.2494 C.ar    1  LIG1       -0.0172
      2 C          -0.5878   -2.1718    1.1240 C.ar    1  LIG1       -0.0011
      3 C          -0.1978   -0.9357    0.5051 C.ar    1  LIG1        0.1382
      4 C          -0.6276    0.1995    1.1656 C.ar    1  LIG1        0.0681
      5 S          -1.5602   -0.2622    2.5816 S.2     1  LIG1       -0.0921
      6 H          -1.7699   -2.6884    2.9057 H       1  LIG1        0.0697
      7 C          -0.2142   -3.5166    0.5686 C.3     1  LIG1       -0.0357
      8 H           0.8734   -3.6304    0.5102 H       1  LIG1        0.0279
      9 H          -0.6011   -3.6497   -0.4477 H       1  LIG1        0.0279
     10 H          -0.6107   -4.3225    1.1912 H       1  LIG1        0.0279
     11 O           0.5517   -0.9493   -0.6458 O.3     1  LIG1       -0.4937
     12 C          -0.1095   -0.4501   -1.8141 C.3     1  LIG1        0.0789
     13 H           0.5808   -0.6079   -2.6452 H       1  LIG1        0.0660
     14 H          -1.0392   -0.9996   -2.0040 H       1  LIG1        0.0660
     15 H          -0.3345    0.6175   -1.7236 H       1  LIG1        0.0660
     16 C          -0.3650    1.5946    0.8499 C.ar    1  LIG1        0.0365
     17 C           0.8447    2.1889    0.5493 C.ar    1  LIG1        0.0072
     18 C           0.6948    3.5915    0.2942 C.ar    1  LIG1        0.1388
     19 C          -0.5915    4.0781    0.4209 C.ar    1  LIG1        0.0687
     20 S          -1.6752    2.7666    0.8428 S.2     1  LIG1       -0.0831
     21 C           2.1786    1.4990    0.5333 C.3     1  LIG1       -0.0351
     22 H           2.9759    2.2284    0.6959 H       1  LIG1        0.0279
     23 H           2.3651    0.9879   -0.4174 H       1  LIG1        0.0279
     24 H           2.2292    0.7345    1.3133 H       1  LIG1        0.0279
     25 O           1.7688    4.3889   -0.0237 O.3     1  LIG1       -0.4937
     26 C           2.0444    4.4680   -1.4257 C.3     1  LIG1        0.0789
     27 H           2.9165    5.1159   -1.5338 H       1  LIG1        0.0660
     28 H           2.2747    3.4800   -1.8432 H       1  LIG1        0.0660
     29 H           1.1971    4.8999   -1.9707 H       1  LIG1        0.0660
     30 C          -1.0654    5.4422    0.2546 C.ar    1  LIG1        0.0365
     31 C          -0.5381    6.6063    0.7768 C.ar    1  LIG1        0.0072
     32 C          -1.2948    7.7547    0.3725 C.ar    1  LIG1        0.1388
     33 C          -2.3939    7.4877   -0.4194 C.ar    1  LIG1        0.0687
     34 S          -2.5036    5.7629   -0.7062 S.2     1  LIG1       -0.0831
     35 C           0.6421    6.7021    1.7003 C.3     1  LIG1       -0.0351
     36 H           0.5834    7.6252    2.2821 H       1  LIG1        0.0279
     37 H           1.5888    6.6932    1.1506 H       1  LIG1        0.0279
     38 H           0.6712    5.8503    2.3853 H       1  LIG1        0.0279
     39 O          -0.9555    9.0239    0.7786 O.3     1  LIG1       -0.4937
     40 C          -0.0632    9.7032   -0.1098 C.3     1  LIG1        0.0789
     41 H           0.1327   10.6807    0.3356 H       1  LIG1        0.0660
     42 H           0.8832    9.1589   -0.2178 H       1  LIG1        0.0660
     43 H          -0.5167    9.8358   -1.0988 H       1  LIG1        0.0660
     44 C          -3.3657    8.4208   -0.9664 C.ar    1  LIG1        0.0359
     45 C          -4.0379    9.4393   -0.3226 C.ar    1  LIG1        0.0066
     46 C          -4.9218   10.1339   -1.2207 C.ar    1  LIG1        0.1306
     47 C          -4.9276    9.6454   -2.4985 C.ar    1  LIG1        0.0183
     48 S          -3.8328    8.3157   -2.6625 S.2     1  LIG1       -0.0920
     49 H          -5.5304    9.9849   -3.3281 H       1  LIG1        0.0730
     50 C          -3.9526    9.7605    1.1416 C.3     1  LIG1       -0.0351
     51 H          -4.8817   10.2327    1.4721 H       1  LIG1        0.0279
     52 H          -3.1195   10.4356    1.3638 H       1  LIG1        0.0279
     53 H          -3.7861    8.8548    1.7308 H       1  LIG1        0.0279
     54 O          -5.7508   11.1506   -0.8089 O.3     1  LIG1       -0.4943
     55 C          -5.1250   12.4323   -0.7420 C.3     1  LIG1        0.0788
     56 H          -5.8880   13.1330   -0.3969 H       1  LIG1        0.0660
     57 H          -4.2850   12.4381   -0.0361 H       1  LIG1        0.0660
     58 H          -4.7610   12.7460   -1.7287 H       1  LIG1        0.0660
@<TRIPOS>BOND
     1    49    47    1
     2    48    47   ar
     3    48    44   ar
     4    13    12    1
     5    47    46   ar
     6    14    12    1
     7    29    26    1
     8    28    26    1
     9    12    15    1
    10    12    11    1
    11    58    55    1
    12    27    26    1
    13    26    25    1
    14    46    54    1
    15    46    45   ar
    16    43    40    1
    17    44    33    1
    18    44    45   ar
    19    54    55    1
    20    55    56    1
    21    55    57    1
    22    34    33   ar
    23    34    30   ar
    24    11     3    1
    25     9     7    1
    26    33    32   ar
    27    23    21    1
    28    45    50    1
    29    42    40    1
    30    40    41    1
    31    40    39    1
    32    25    18    1
    33    30    19    1
    34    30    31   ar
    35    18    19   ar
    36    18    17   ar
    37    32    31   ar
    38    32    39    1
    39    19    20   ar
    40     3     2   ar
    41     3     4   ar
    42     8     7    1
    43    21    17    1
    44    21    22    1
    45    21    24    1
    46    17    16   ar
    47     7     2    1
    48     7    10    1
    49    31    35    1
    50    20    16   ar
    51    16     4    1
    52     2     1   ar
    53    50    52    1
    54    50    51    1
    55    50    53    1
    56    37    35    1
    57     4     5   ar
    58    35    36    1
    59    35    38    1
    60     1     5   ar
    61     1     6    1
