@<TRIPOS>MOLECULE
mol_data/opt/b3lyp/geoms/mol2/5il5il-.out
 30 31 0 0 0
SMALL
GASTEIGER

@<TRIPOS>ATOM
      1 C          -2.2244   -1.9580    0.6012 C.ar    1  LIG1       -0.0172
      2 C          -0.8738   -2.1311    0.4813 C.ar    1  LIG1       -0.0011
      3 C          -0.2189   -0.8978    0.1438 C.ar    1  LIG1        0.1382
      4 C          -1.0629    0.1897    0.0281 C.ar    1  LIG1        0.0681
      5 S          -2.7188   -0.3185    0.3239 S.2     1  LIG1       -0.0921
      6 H          -2.9671   -2.7099    0.8310 H       1  LIG1        0.0697
      7 C          -0.1339   -3.4259    0.6614 C.3     1  LIG1       -0.0357
      8 H           0.6066   -3.3483    1.4645 H       1  LIG1        0.0279
      9 H           0.4126   -3.7024   -0.2468 H       1  LIG1        0.0279
     10 H          -0.8209   -4.2399    0.9060 H       1  LIG1        0.0279
     11 O           1.1445   -0.8686   -0.0226 O.3     1  LIG1       -0.4937
     12 C           1.5960   -0.5828   -1.3509 C.3     1  LIG1        0.0789
     13 H           2.6826   -0.6886   -1.3323 H       1  LIG1        0.0660
     14 H           1.1738   -1.2940   -2.0710 H       1  LIG1        0.0660
     15 H           1.3335    0.4355   -1.6551 H       1  LIG1        0.0660
     16 C          -0.7313    1.5802   -0.2412 C.ar    1  LIG1        0.0359
     17 C           0.2381    2.3591    0.3572 C.ar    1  LIG1        0.0066
     18 C           0.2472    3.6933   -0.1816 C.ar    1  LIG1        0.1306
     19 C          -0.6967    3.9185   -1.1458 C.ar    1  LIG1        0.0183
     20 S          -1.6303    2.4935   -1.4499 S.2     1  LIG1       -0.0920
     21 H          -0.8977    4.8449   -1.6638 H       1  LIG1        0.0730
     22 C           1.1310    1.9293    1.4855 C.3     1  LIG1       -0.0351
     23 H           1.4368    2.8019    2.0690 H       1  LIG1        0.0279
     24 H           2.0327    1.4199    1.1276 H       1  LIG1        0.0279
     25 H           0.6145    1.2252    2.1432 H       1  LIG1        0.0279
     26 O           1.0809    4.6787    0.2922 O.3     1  LIG1       -0.4943
     27 C           2.3888    4.6709   -0.2803 C.3     1  LIG1        0.0788
     28 H           2.9382    5.4903    0.1877 H       1  LIG1        0.0660
     29 H           2.9128    3.7270   -0.0830 H       1  LIG1        0.0660
     30 H           2.3466    4.8327   -1.3649 H       1  LIG1        0.0660
@<TRIPOS>BOND
     1    14    12    1
     2    21    19    1
     3    15    12    1
     4    20    19   ar
     5    20    16   ar
     6    30    27    1
     7    12    13    1
     8    12    11    1
     9    19    18   ar
    10    27    29    1
    11    27    28    1
    12    27    26    1
    13     9     7    1
    14    16     4    1
    15    16    17   ar
    16    18    26    1
    17    18    17   ar
    18    11     3    1
    19     4     3   ar
    20     4     5   ar
    21     3     2   ar
    22     5     1   ar
    23    17    22    1
    24     2     1   ar
    25     2     7    1
    26     1     6    1
    27     7    10    1
    28     7     8    1
    29    24    22    1
    30    22    23    1
    31    22    25    1
