@<TRIPOS>MOLECULE
mol_data/opt/b3lyp/geoms/mol2/5il5il5il-5il.out
 58 61 0 0 0
SMALL
GASTEIGER

@<TRIPOS>ATOM
      1 C          -1.3484   -1.9401    2.2559 C.ar    1  LIG1       -0.0172
      2 C          -0.5978   -2.1672    1.1361 C.ar    1  LIG1       -0.0011
      3 C          -0.2033   -0.9335    0.5153 C.ar    1  LIG1        0.1382
      4 C          -0.6367    0.2042    1.1689 C.ar    1  LIG1        0.0681
      5 S          -1.5787   -0.2518    2.5805 S.2     1  LIG1       -0.0921
      6 H          -1.7917   -2.6767    2.9121 H       1  LIG1        0.0697
      7 C          -0.2213   -3.5142    0.5880 C.3     1  LIG1       -0.0357
      8 H           0.8666   -3.6288    0.5376 H       1  LIG1        0.0279
      9 H          -0.6011   -3.6505   -0.4305 H       1  LIG1        0.0279
     10 H          -0.6226   -4.3177    1.2105 H       1  LIG1        0.0279
     11 O           0.5538   -0.9515   -0.6306 O.3     1  LIG1       -0.4937
     12 C          -0.1003   -0.4578   -1.8052 C.3     1  LIG1        0.0789
     13 H           0.5955   -0.6183   -2.6311 H       1  LIG1        0.0660
     14 H          -1.0283   -1.0090   -1.9989 H       1  LIG1        0.0660
     15 H          -0.3270    0.6099   -1.7205 H       1  LIG1        0.0660
     16 C          -0.3715    1.5980    0.8495 C.ar    1  LIG1        0.0365
     17 C           0.8405    2.1907    0.5550 C.ar    1  LIG1        0.0072
     18 C           0.6929    3.5923    0.2931 C.ar    1  LIG1        0.1388
     19 C          -0.5941    4.0798    0.4087 C.ar    1  LIG1        0.0687
     20 S          -1.6812    2.7704    0.8283 S.2     1  LIG1       -0.0831
     21 C           2.1742    1.5002    0.5511 C.3     1  LIG1       -0.0351
     22 H           2.9707    2.2299    0.7160 H       1  LIG1        0.0279
     23 H           2.3669    0.9850   -0.3962 H       1  LIG1        0.0279
     24 H           2.2191    0.7389    1.3346 H       1  LIG1        0.0279
     25 O           1.7693    4.3880   -0.0206 O.3     1  LIG1       -0.4937
     26 C           2.0550    4.4609   -1.4209 C.3     1  LIG1        0.0789
     27 H           2.9282    5.1079   -1.5256 H       1  LIG1        0.0660
     28 H           2.2877    3.4710   -1.8326 H       1  LIG1        0.0660
     29 H           1.2118    4.8909   -1.9738 H       1  LIG1        0.0660
     30 C          -1.0665    5.4433    0.2336 C.ar    1  LIG1        0.0365
     31 C          -0.5419    6.6095    0.7538 C.ar    1  LIG1        0.0072
     32 C          -1.2957    7.7564    0.3400 C.ar    1  LIG1        0.1388
     33 C          -2.3901    7.4863   -0.4573 C.ar    1  LIG1        0.0687
     34 S          -2.4988    5.7603   -0.7371 S.2     1  LIG1       -0.0831
     35 C           0.6325    6.7091    1.6844 C.3     1  LIG1       -0.0351
     36 H           0.5697    7.6341    2.2627 H       1  LIG1        0.0279
     37 H           1.5827    6.6989    1.1407 H       1  LIG1        0.0279
     38 H           0.6578    5.8596    2.3725 H       1  LIG1        0.0279
     39 O          -0.9586    9.0273    0.7427 O.3     1  LIG1       -0.4937
     40 C          -0.0597    9.7021   -0.1425 C.3     1  LIG1        0.0789
     41 H           0.1333   10.6816    0.2998 H       1  LIG1        0.0660
     42 H           0.8873    9.1570   -0.2410 H       1  LIG1        0.0660
     43 H          -0.5060    9.8301   -1.1353 H       1  LIG1        0.0660
     44 C          -3.3584    8.4173   -1.0141 C.ar    1  LIG1        0.0359
     45 C          -4.0343    9.4387   -0.3788 C.ar    1  LIG1        0.0066
     46 C          -4.9124   10.1297   -1.2852 C.ar    1  LIG1        0.1306
     47 C          -4.9105    9.6360   -2.5610 C.ar    1  LIG1        0.0183
     48 S          -3.8151    8.3053   -2.7127 S.2     1  LIG1       -0.0920
     49 H          -5.5081    9.9720   -3.3956 H       1  LIG1        0.0730
     50 C          -3.9577    9.7662    1.0845 C.3     1  LIG1       -0.0351
     51 H          -4.8888   10.2397    1.4074 H       1  LIG1        0.0279
     52 H          -3.1260   10.4423    1.3087 H       1  LIG1        0.0279
     53 H          -3.7947    8.8631    1.6786 H       1  LIG1        0.0279
     54 O          -5.7436   11.1483   -0.8825 O.3     1  LIG1       -0.4943
     55 C          -5.1182   12.4303   -0.8185 C.3     1  LIG1        0.0788
     56 H          -5.8830   13.1327   -0.4808 H       1  LIG1        0.0660
     57 H          -4.2820   12.4395   -0.1081 H       1  LIG1        0.0660
     58 H          -4.7488   12.7392   -1.8047 H       1  LIG1        0.0660
@<TRIPOS>BOND
     1    49    47    1
     2    48    47   ar
     3    48    44   ar
     4    13    12    1
     5    47    46   ar
     6    14    12    1
     7    29    26    1
     8    28    26    1
     9    12    15    1
    10    12    11    1
    11    58    55    1
    12    27    26    1
    13    26    25    1
    14    46    54    1
    15    46    45   ar
    16    43    40    1
    17    44    33    1
    18    44    45   ar
    19    54    55    1
    20    55    56    1
    21    55    57    1
    22    34    33   ar
    23    34    30   ar
    24    11     3    1
    25    33    32   ar
    26     9     7    1
    27    23    21    1
    28    45    50    1
    29    42    40    1
    30    40    41    1
    31    40    39    1
    32    25    18    1
    33    30    19    1
    34    30    31   ar
    35    18    19   ar
    36    18    17   ar
    37    32    39    1
    38    32    31   ar
    39    19    20   ar
    40     3     2   ar
    41     3     4   ar
    42     8     7    1
    43    21    17    1
    44    21    22    1
    45    21    24    1
    46    17    16   ar
    47     7     2    1
    48     7    10    1
    49    31    35    1
    50    20    16   ar
    51    16     4    1
    52    50    52    1
    53    50    51    1
    54    50    53    1
    55     2     1   ar
    56    37    35    1
    57     4     5   ar
    58    35    36    1
    59    35    38    1
    60     1     5   ar
    61     1     6    1
