@<TRIPOS>MOLECULE
mol_data/opt/b3lyp/geoms/mol2/5il5il5il-.out
 44 46 0 0 0
SMALL
GASTEIGER

@<TRIPOS>ATOM
      1 C          -1.9875   -2.0227    1.3283 C.ar    1  LIG1       -0.0172
      2 C          -0.7861   -2.2173    0.7057 C.ar    1  LIG1       -0.0011
      3 C          -0.2019   -0.9691    0.3012 C.ar    1  LIG1        0.1382
      4 C          -0.9452    0.1483    0.6296 C.ar    1  LIG1        0.0681
      5 S          -2.4210   -0.3472    1.4447 S.2     1  LIG1       -0.0921
      6 H          -2.6540   -2.7767    1.7246 H       1  LIG1        0.0697
      7 C          -0.1326   -3.5457    0.4510 C.3     1  LIG1       -0.0357
      8 H           0.8519   -3.5983    0.9278 H       1  LIG1        0.0279
      9 H           0.0251   -3.7140   -0.6200 H       1  LIG1        0.0279
     10 H          -0.7447   -4.3647    0.8366 H       1  LIG1        0.0279
     11 O           1.0084   -0.9520   -0.3488 O.3     1  LIG1       -0.4937
     12 C           0.9579   -0.5462   -1.7214 C.3     1  LIG1        0.0789
     13 H           1.9715   -0.6614   -2.1109 H       1  LIG1        0.0660
     14 H           0.2737   -1.1829   -2.2950 H       1  LIG1        0.0660
     15 H           0.6451    0.4983   -1.8209 H       1  LIG1        0.0660
     16 C          -0.6289    1.5515    0.4156 C.ar    1  LIG1        0.0365
     17 C           0.5488    2.2156    0.6956 C.ar    1  LIG1        0.0072
     18 C           0.4710    3.6017    0.3370 C.ar    1  LIG1        0.1388
     19 C          -0.7423    4.0077   -0.1819 C.ar    1  LIG1        0.0687
     20 S          -1.8331    2.6387   -0.2619 S.2     1  LIG1       -0.0831
     21 C           1.7626    1.6115    1.3416 C.3     1  LIG1       -0.0351
     22 H           2.3580    2.3941    1.8182 H       1  LIG1        0.0279
     23 H           2.3941    1.0871    0.6165 H       1  LIG1        0.0279
     24 H           1.4746    0.8735    2.0954 H       1  LIG1        0.0279
     25 O           1.5274    4.4604    0.5313 O.3     1  LIG1       -0.4937
     26 C           2.4156    4.5566   -0.5862 C.3     1  LIG1        0.0789
     27 H           3.2070    5.2499   -0.2944 H       1  LIG1        0.0660
     28 H           2.8595    3.5827   -0.8275 H       1  LIG1        0.0660
     29 H           1.8966    4.9442   -1.4704 H       1  LIG1        0.0660
     30 C          -1.1459    5.3365   -0.6123 C.ar    1  LIG1        0.0359
     31 C          -0.9925    6.5391    0.0467 C.ar    1  LIG1        0.0066
     32 C          -1.5380    7.6292   -0.7178 C.ar    1  LIG1        0.1306
     33 C          -2.0994    7.2590   -1.9091 C.ar    1  LIG1        0.0183
     34 S          -1.9692    5.5516   -2.1558 S.2     1  LIG1       -0.0920
     35 H          -2.5934    7.8962   -2.6279 H       1  LIG1        0.0730
     36 C          -0.4151    6.7213    1.4207 C.3     1  LIG1       -0.0351
     37 H          -0.8336    7.6199    1.8821 H       1  LIG1        0.0279
     38 H           0.6756    6.8168    1.3961 H       1  LIG1        0.0279
     39 H          -0.6390    5.8600    2.0557 H       1  LIG1        0.0279
     40 O          -1.5637    8.9227   -0.2521 O.3     1  LIG1       -0.4943
     41 C          -0.3528    9.6494   -0.4626 C.3     1  LIG1        0.0788
     42 H          -0.5096   10.6439   -0.0398 H       1  LIG1        0.0660
     43 H           0.4988    9.1742    0.0403 H       1  LIG1        0.0660
     44 H          -0.1270    9.7393   -1.5328 H       1  LIG1        0.0660
@<TRIPOS>BOND
     1    35    33    1
     2    14    12    1
     3    34    33   ar
     4    34    30   ar
     5    13    12    1
     6    33    32   ar
     7    15    12    1
     8    12    11    1
     9    44    41    1
    10    29    26    1
    11    28    26    1
    12    32    40    1
    13    32    31   ar
    14     9     7    1
    15    30    19    1
    16    30    31   ar
    17    26    27    1
    18    26    25    1
    19    41    40    1
    20    41    42    1
    21    41    43    1
    22    11     3    1
    23    20    19   ar
    24    20    16   ar
    25    19    18   ar
    26    31    36    1
    27     3     4   ar
    28     3     2   ar
    29    18    25    1
    30    18    17   ar
    31    16     4    1
    32    16    17   ar
    33     7     2    1
    34     7    10    1
    35     7     8    1
    36    23    21    1
    37     4     5   ar
    38    17    21    1
    39     2     1   ar
    40     1     5   ar
    41     1     6    1
    42    21    22    1
    43    21    24    1
    44    38    36    1
    45    36    37    1
    46    36    39    1
