@<TRIPOS>MOLECULE
mol_data/opt/b3lyp/geoms/mol2/5il5il5il5il.out
 58 61 0 0 0
SMALL
GASTEIGER

@<TRIPOS>ATOM
      1 C          -1.3237   -1.9351    2.2771 C.ar    1  LIG1       -0.0172
      2 C          -0.5822   -2.1645    1.1518 C.ar    1  LIG1       -0.0011
      3 C          -0.1939   -0.9321    0.5244 C.ar    1  LIG1        0.1382
      4 C          -0.6230    0.2070    1.1786 C.ar    1  LIG1        0.0681
      5 S          -1.5528   -0.2462    2.5991 S.2     1  LIG1       -0.0921
      6 H          -1.7609   -2.6704    2.9389 H       1  LIG1        0.0697
      7 C          -0.2091   -3.5126    0.6042 C.3     1  LIG1       -0.0357
      8 H           0.8784   -3.6261    0.5442 H       1  LIG1        0.0279
      9 H          -0.5981   -3.6524   -0.4103 H       1  LIG1        0.0279
     10 H          -0.6036   -4.3148    1.2328 H       1  LIG1        0.0279
     11 O           0.5534   -0.9526   -0.6278 O.3     1  LIG1       -0.4937
     12 C          -0.1104   -0.4613   -1.7980 C.3     1  LIG1        0.0789
     13 H           0.5785   -0.6241   -2.6293 H       1  LIG1        0.0660
     14 H          -1.0401   -1.0126   -1.9825 H       1  LIG1        0.0660
     15 H          -0.3359    0.6067   -1.7139 H       1  LIG1        0.0660
     16 C          -0.3616    1.6002    0.8536 C.ar    1  LIG1        0.0365
     17 C           0.8471    2.1931    0.5468 C.ar    1  LIG1        0.0072
     18 C           0.6961    3.5940    0.2832 C.ar    1  LIG1        0.1388
     19 C          -0.5901    4.0809    0.4096 C.ar    1  LIG1        0.0687
     20 S          -1.6724    2.7716    0.8420 S.2     1  LIG1       -0.0831
     21 C           2.1813    1.5038    0.5324 C.3     1  LIG1       -0.0351
     22 H           2.9786    2.2345    0.6895 H       1  LIG1        0.0279
     23 H           2.3665    0.9873   -0.4157 H       1  LIG1        0.0279
     24 H           2.2336    0.7437    1.3167 H       1  LIG1        0.0279
     25 O           1.7690    4.3898   -0.0420 O.3     1  LIG1       -0.4937
     26 C           2.0415    4.4605   -1.4450 C.3     1  LIG1        0.0789
     27 H           2.9131    5.1081   -1.5591 H       1  LIG1        0.0660
     28 H           2.2711    3.4701   -1.8571 H       1  LIG1        0.0660
     29 H           1.1928    4.8888   -1.9907 H       1  LIG1        0.0660
     30 C          -1.0650    5.4437    0.2358 C.ar    1  LIG1        0.0365
     31 C          -0.5371    6.6112    0.7496 C.ar    1  LIG1        0.0072
     32 C          -1.2951    7.7568    0.3397 C.ar    1  LIG1        0.1388
     33 C          -2.3957    7.4844   -0.4483 C.ar    1  LIG1        0.0687
     34 S          -2.5053    5.7578   -0.7241 S.2     1  LIG1       -0.0831
     35 C           0.6449    6.7133    1.6702 C.3     1  LIG1       -0.0351
     36 H           0.5882    7.6411    2.2446 H       1  LIG1        0.0279
     37 H           1.5906    6.6987    1.1188 H       1  LIG1        0.0279
     38 H           0.6742    5.8670    2.3621 H       1  LIG1        0.0279
     39 O          -0.9555    9.0287    0.7372 O.3     1  LIG1       -0.4937
     40 C          -0.0660    9.7031   -0.1577 C.3     1  LIG1        0.0789
     41 H           0.1303   10.6835    0.2811 H       1  LIG1        0.0660
     42 H           0.8805    9.1588   -0.2646 H       1  LIG1        0.0660
     43 H          -0.5221    9.8291   -1.1464 H       1  LIG1        0.0660
     44 C          -3.3690    8.4137   -0.9991 C.ar    1  LIG1        0.0359
     45 C          -4.0403    9.4359   -0.3602 C.ar    1  LIG1        0.0066
     46 C          -4.9264   10.1245   -1.2608 C.ar    1  LIG1        0.1306
     47 C          -4.9345    9.6282   -2.5355 C.ar    1  LIG1        0.0183
     48 S          -3.8395    8.2980   -2.6936 S.2     1  LIG1       -0.0920
     49 H          -5.5392    9.9624   -3.3659 H       1  LIG1        0.0730
     50 C          -3.9522    9.7661    1.1019 C.3     1  LIG1       -0.0351
     51 H          -4.8811   10.2394    1.4314 H       1  LIG1        0.0279
     52 H          -3.1193   10.4433    1.3182 H       1  LIG1        0.0279
     53 H          -3.7836    8.8642    1.6962 H       1  LIG1        0.0279
     54 O          -5.7550   11.1433   -0.8534 O.3     1  LIG1       -0.4943
     55 C          -5.1298   12.4257   -0.7957 C.3     1  LIG1        0.0788
     56 H          -5.8923   13.1281   -0.4530 H       1  LIG1        0.0660
     57 H          -4.2881   12.4362   -0.0919 H       1  LIG1        0.0660
     58 H          -4.7682   12.7337   -1.7851 H       1  LIG1        0.0660
@<TRIPOS>BOND
     1    49    47    1
     2    48    47   ar
     3    48    44   ar
     4    13    12    1
     5    47    46   ar
     6    29    26    1
     7    14    12    1
     8    28    26    1
     9    12    15    1
    10    12    11    1
    11    58    55    1
    12    27    26    1
    13    26    25    1
    14    46    54    1
    15    46    45   ar
    16    43    40    1
    17    44    33    1
    18    44    45   ar
    19    54    55    1
    20    55    56    1
    21    55    57    1
    22    34    33   ar
    23    34    30   ar
    24    11     3    1
    25    33    32   ar
    26    23    21    1
    27     9     7    1
    28    45    50    1
    29    42    40    1
    30    40    41    1
    31    40    39    1
    32    25    18    1
    33    30    19    1
    34    30    31   ar
    35    18    19   ar
    36    18    17   ar
    37    32    39    1
    38    32    31   ar
    39    19    20   ar
    40     3     2   ar
    41     3     4   ar
    42    21    17    1
    43    21    22    1
    44    21    24    1
    45     8     7    1
    46    17    16   ar
    47     7     2    1
    48     7    10    1
    49    31    35    1
    50    20    16   ar
    51    16     4    1
    52    50    52    1
    53    50    51    1
    54    50    53    1
    55    37    35    1
    56     2     1   ar
    57     4     5   ar
    58    35    36    1
    59    35    38    1
    60     1     5   ar
    61     1     6    1
