@<TRIPOS>MOLECULE
mol_data/opt/b3lyp/geoms/mol2/5il5il.out
 30 31 0 0 0
SMALL
GASTEIGER

@<TRIPOS>ATOM
      1 C          -2.3833   -1.8355    0.6109 C.ar    1  LIG1       -0.0172
      2 C          -1.0648   -2.1814    0.5149 C.ar    1  LIG1       -0.0011
      3 C          -0.2517   -1.0504    0.1599 C.ar    1  LIG1        0.1382
      4 C          -0.9492    0.1331    0.0096 C.ar    1  LIG1        0.0681
      5 S          -2.6612   -0.1540    0.2893 S.2     1  LIG1       -0.0921
      6 H          -3.2183   -2.4826    0.8426 H       1  LIG1        0.0697
      7 C          -0.4979   -3.5554    0.7303 C.3     1  LIG1       -0.0357
      8 H           0.2240   -3.5597    1.5540 H       1  LIG1        0.0279
      9 H           0.0359   -3.9082   -0.1587 H       1  LIG1        0.0279
     10 H          -1.2875   -4.2743    0.9630 H       1  LIG1        0.0279
     11 O           1.1022   -1.2187    0.0193 O.3     1  LIG1       -0.4937
     12 C           1.6557   -0.8787   -1.2566 C.3     1  LIG1        0.0789
     13 H           2.6959   -1.2095   -1.2315 H       1  LIG1        0.0660
     14 H           1.1268   -1.3991   -2.0638 H       1  LIG1        0.0660
     15 H           1.6203    0.1992   -1.4402 H       1  LIG1        0.0660
     16 C          -0.4504    1.4705   -0.2759 C.ar    1  LIG1        0.0359
     17 C           0.5872    2.1428    0.3328 C.ar    1  LIG1        0.0066
     18 C           0.7743    3.4513   -0.2359 C.ar    1  LIG1        0.1306
     19 C          -0.1099    3.7658   -1.2346 C.ar    1  LIG1        0.0183
     20 S          -1.1994    2.4459   -1.5347 S.2     1  LIG1       -0.0920
     21 H          -0.1942    4.6787   -1.8032 H       1  LIG1        0.0730
     22 C           1.4179    1.6343    1.4750 C.3     1  LIG1       -0.0351
     23 H           1.6653    2.4536    2.1556 H       1  LIG1        0.0279
     24 H           2.3636    1.2022    1.1276 H       1  LIG1        0.0279
     25 H           0.8877    0.8559    2.0272 H       1  LIG1        0.0279
     26 O           1.7677    4.2333    0.2716 O.3     1  LIG1       -0.4943
     27 C           1.8875    5.5358   -0.2789 C.3     1  LIG1        0.0788
     28 H           2.7154    6.0171    0.2432 H       1  LIG1        0.0660
     29 H           2.1088    5.4946   -1.3535 H       1  LIG1        0.0660
     30 H           0.9698    6.1185   -0.1255 H       1  LIG1        0.0660
@<TRIPOS>BOND
     1    14    12    1
     2    21    19    1
     3    20    19   ar
     4    20    16   ar
     5    15    12    1
     6    29    27    1
     7    12    13    1
     8    12    11    1
     9    19    18   ar
    10    27    30    1
    11    27    28    1
    12    27    26    1
    13    16     4    1
    14    16    17   ar
    15    18    26    1
    16    18    17   ar
    17     9     7    1
    18     4     3   ar
    19     4     5   ar
    20    11     3    1
    21     3     2   ar
    22     5     1   ar
    23    17    22    1
    24     2     1   ar
    25     2     7    1
    26     1     6    1
    27     7    10    1
    28     7     8    1
    29    24    22    1
    30    22    25    1
    31    22    23    1
