@<TRIPOS>MOLECULE
mol_data/opt/b3lyp/geoms/mol2/5il5il5il.out
 44 46 0 0 0
SMALL
GASTEIGER

@<TRIPOS>ATOM
      1 C          -1.9676   -2.0224    1.3522 C.ar    1  LIG1       -0.0172
      2 C          -0.7705   -2.2167    0.7213 C.ar    1  LIG1       -0.0011
      3 C          -0.1918   -0.9688    0.3082 C.ar    1  LIG1        0.1382
      4 C          -0.9348    0.1483    0.6384 C.ar    1  LIG1        0.0681
      5 S          -2.4034   -0.3473    1.4663 S.2     1  LIG1       -0.0921
      6 H          -2.6295   -2.7764    1.7561 H       1  LIG1        0.0697
      7 C          -0.1165   -3.5448    0.4660 C.3     1  LIG1       -0.0357
      8 H           0.8727   -3.5932    0.9334 H       1  LIG1        0.0279
      9 H           0.0311   -3.7174   -0.6058 H       1  LIG1        0.0279
     10 H          -0.7231   -4.3635    0.8610 H       1  LIG1        0.0279
     11 O           1.0135   -0.9517   -0.3510 O.3     1  LIG1       -0.4937
     12 C           0.9522   -0.5495   -1.7243 C.3     1  LIG1        0.0789
     13 H           1.9627   -0.6658   -2.1214 H       1  LIG1        0.0660
     14 H           0.2634   -1.1877   -2.2908 H       1  LIG1        0.0660
     15 H           0.6386    0.4948   -1.8241 H       1  LIG1        0.0660
     16 C          -0.6229    1.5514    0.4175 C.ar    1  LIG1        0.0365
     17 C           0.5556    2.2187    0.6864 C.ar    1  LIG1        0.0072
     18 C           0.4723    3.6035    0.3241 C.ar    1  LIG1        0.1388
     19 C          -0.7457    4.0054   -0.1869 C.ar    1  LIG1        0.0687
     20 S          -1.8344    2.6341   -0.2544 S.2     1  LIG1       -0.0831
     21 C           1.7754    1.6191    1.3253 C.3     1  LIG1       -0.0351
     22 H           2.3745    2.4048    1.7920 H       1  LIG1        0.0279
     23 H           2.4007    1.0907    0.5976 H       1  LIG1        0.0279
     24 H           1.4944    0.8854    2.0859 H       1  LIG1        0.0279
     25 O           1.5284    4.4649    0.5075 O.3     1  LIG1       -0.4937
     26 C           2.4073    4.5600   -0.6174 C.3     1  LIG1        0.0789
     27 H           3.1998    5.2555   -0.3337 H       1  LIG1        0.0660
     28 H           2.8510    3.5863   -0.8599 H       1  LIG1        0.0660
     29 H           1.8805    4.9445   -1.4983 H       1  LIG1        0.0660
     30 C          -1.1551    5.3322   -0.6184 C.ar    1  LIG1        0.0359
     31 C          -0.9988    6.5370    0.0356 C.ar    1  LIG1        0.0066
     32 C          -1.5521    7.6238   -0.7280 C.ar    1  LIG1        0.1306
     33 C          -2.1218    7.2489   -1.9139 C.ar    1  LIG1        0.0183
     34 S          -1.9904    5.5410   -2.1562 S.2     1  LIG1       -0.0920
     35 H          -2.6224    7.8831   -2.6309 H       1  LIG1        0.0730
     36 C          -0.4115    6.7245    1.4048 C.3     1  LIG1       -0.0351
     37 H          -0.8294    7.6228    1.8672 H       1  LIG1        0.0279
     38 H           0.6787    6.8235    1.3716 H       1  LIG1        0.0279
     39 H          -0.6276    5.8639    2.0434 H       1  LIG1        0.0279
     40 O          -1.5766    8.9186   -0.2661 O.3     1  LIG1       -0.4943
     41 C          -0.3689    9.6471   -0.4883 C.3     1  LIG1        0.0788
     42 H          -0.5242   10.6424   -0.0669 H       1  LIG1        0.0660
     43 H           0.4877    9.1748    0.0089 H       1  LIG1        0.0660
     44 H          -0.1520    9.7347   -1.5606 H       1  LIG1        0.0660
@<TRIPOS>BOND
     1    35    33    1
     2    14    12    1
     3    34    33   ar
     4    34    30   ar
     5    13    12    1
     6    33    32   ar
     7    15    12    1
     8    12    11    1
     9    44    41    1
    10    29    26    1
    11    28    26    1
    12    32    40    1
    13    32    31   ar
    14    30    19    1
    15    30    31   ar
    16    26    27    1
    17    26    25    1
    18     9     7    1
    19    41    40    1
    20    41    42    1
    21    41    43    1
    22    11     3    1
    23    20    19   ar
    24    20    16   ar
    25    19    18   ar
    26    31    36    1
    27     3     4   ar
    28     3     2   ar
    29    18    25    1
    30    18    17   ar
    31    16     4    1
    32    16    17   ar
    33     7     2    1
    34     7    10    1
    35     7     8    1
    36    23    21    1
    37     4     5   ar
    38    17    21    1
    39     2     1   ar
    40    21    22    1
    41    21    24    1
    42     1     5   ar
    43     1     6    1
    44    38    36    1
    45    36    37    1
    46    36    39    1
