@<TRIPOS>MOLECULE
mol_data/opt/b3lyp/geoms/mol2/5il5il-5il5il-.out
 58 61 0 0 0
SMALL
GASTEIGER

@<TRIPOS>ATOM
      1 C          -1.3102   -1.9450    2.2626 C.ar    1  LIG1       -0.0172
      2 C          -0.5782   -2.1699    1.1301 C.ar    1  LIG1       -0.0011
      3 C          -0.1943   -0.9349    0.5051 C.ar    1  LIG1        0.1382
      4 C          -0.6171    0.2015    1.1679 C.ar    1  LIG1        0.0681
      5 S          -1.5354   -0.2574    2.5941 S.2     1  LIG1       -0.0921
      6 H          -1.7425   -2.6830    2.9246 H       1  LIG1        0.0697
      7 C          -0.2106   -3.5157    0.5733 C.3     1  LIG1       -0.0357
      8 H           0.8763   -3.6300    0.5044 H       1  LIG1        0.0279
      9 H          -0.6075   -3.6503   -0.4389 H       1  LIG1        0.0279
     10 H          -0.6012   -4.3205    1.2011 H       1  LIG1        0.0279
     11 O           0.5435   -0.9508   -0.6533 O.3     1  LIG1       -0.4937
     12 C          -0.1293   -0.4535   -1.8157 C.3     1  LIG1        0.0789
     13 H           0.5525   -0.6132   -2.6534 H       1  LIG1        0.0660
     14 H          -1.0611   -1.0029   -1.9951 H       1  LIG1        0.0660
     15 H          -0.3530    0.6143   -1.7250 H       1  LIG1        0.0660
     16 C          -0.3573    1.5959    0.8471 C.ar    1  LIG1        0.0365
     17 C           0.8495    2.1894    0.5334 C.ar    1  LIG1        0.0072
     18 C           0.6974    3.5916    0.2771 C.ar    1  LIG1        0.1388
     19 C          -0.5874    4.0787    0.4157 C.ar    1  LIG1        0.0687
     20 S          -1.6672    2.7683    0.8508 S.2     1  LIG1       -0.0831
     21 C           2.1830    1.4991    0.5054 C.3     1  LIG1       -0.0351
     22 H           2.9821    2.2286    0.6585 H       1  LIG1        0.0279
     23 H           2.3598    0.9860   -0.4461 H       1  LIG1        0.0279
     24 H           2.2412    0.7361    1.2864 H       1  LIG1        0.0279
     25 O           1.7684    4.3880   -0.0531 O.3     1  LIG1       -0.4937
     26 C           2.0297    4.4647   -1.4579 C.3     1  LIG1        0.0789
     27 H           2.9009    5.1120   -1.5760 H       1  LIG1        0.0660
     28 H           2.2551    3.4759   -1.8762 H       1  LIG1        0.0660
     29 H           1.1770    4.8962   -1.9949 H       1  LIG1        0.0660
     30 C          -1.0627    5.4426    0.2516 C.ar    1  LIG1        0.0365
     31 C          -0.5297    6.6076    0.7659 C.ar    1  LIG1        0.0072
     32 C          -1.2902    7.7554    0.3671 C.ar    1  LIG1        0.1388
     33 C          -2.3975    7.4871   -0.4128 C.ar    1  LIG1        0.0687
     34 S          -2.5107    5.7618   -0.6949 S.2     1  LIG1       -0.0831
     35 C           0.6600    6.7049    1.6771 C.3     1  LIG1       -0.0351
     36 H           0.6075    7.6294    2.2574 H       1  LIG1        0.0279
     37 H           1.6010    6.6945    1.1177 H       1  LIG1        0.0279
     38 H           0.6957    5.8546    2.3636 H       1  LIG1        0.0279
     39 O          -0.9464    9.0254    0.7671 O.3     1  LIG1       -0.4937
     40 C          -0.0629    9.7025   -0.1317 C.3     1  LIG1        0.0789
     41 H           0.1375   10.6810    0.3095 H       1  LIG1        0.0660
     42 H           0.8823    9.1579   -0.2477 H       1  LIG1        0.0660
     43 H          -0.5262    9.8328   -1.1165 H       1  LIG1        0.0660
     44 C          -3.3747    8.4194   -0.9515 C.ar    1  LIG1        0.0359
     45 C          -4.0400    9.4394   -0.3028 C.ar    1  LIG1        0.0066
     46 C          -4.9330   10.1325   -1.1930 C.ar    1  LIG1        0.1306
     47 C          -4.9521    9.6415   -2.4697 C.ar    1  LIG1        0.0183
     48 S          -3.8594    8.3112   -2.6425 S.2     1  LIG1       -0.0920
     49 H          -5.5634    9.9795   -3.2937 H       1  LIG1        0.0730
     50 C          -3.9393    9.7635    1.1599 C.3     1  LIG1       -0.0351
     51 H          -4.8648   10.2366    1.4991 H       1  LIG1        0.0279
     52 H          -3.1037   10.4387    1.3720 H       1  LIG1        0.0279
     53 H          -3.7670    8.8589    1.7490 H       1  LIG1        0.0279
     54 O          -5.7574   11.1501   -0.7745 O.3     1  LIG1       -0.4943
     55 C          -5.1309   12.4320   -0.7176 C.3     1  LIG1        0.0788
     56 H          -5.8901   13.1335   -0.3657 H       1  LIG1        0.0660
     57 H          -4.2832   12.4395   -0.0210 H       1  LIG1        0.0660
     58 H          -4.7778   12.7434   -1.7089 H       1  LIG1        0.0660
@<TRIPOS>BOND
     1    49    47    1
     2    13    12    1
     3    48    47   ar
     4    48    44   ar
     5    47    46   ar
     6    14    12    1
     7    29    26    1
     8    28    26    1
     9    12    15    1
    10    12    11    1
    11    58    55    1
    12    27    26    1
    13    26    25    1
    14    46    54    1
    15    46    45   ar
    16    43    40    1
    17    44    33    1
    18    44    45   ar
    19    54    55    1
    20    55    56    1
    21    55    57    1
    22    34    33   ar
    23    34    30   ar
    24    11     3    1
    25    23    21    1
    26     9     7    1
    27    33    32   ar
    28    45    50    1
    29    42    40    1
    30    40    41    1
    31    40    39    1
    32    25    18    1
    33    30    19    1
    34    30    31   ar
    35    18    19   ar
    36    18    17   ar
    37    32    31   ar
    38    32    39    1
    39    19    20   ar
    40     8     7    1
    41     3     2   ar
    42     3     4   ar
    43    21    17    1
    44    21    22    1
    45    21    24    1
    46    17    16   ar
    47     7     2    1
    48     7    10    1
    49    31    35    1
    50    16    20   ar
    51    16     4    1
    52    37    35    1
    53     2     1   ar
    54    50    52    1
    55    50    51    1
    56    50    53    1
    57     4     5   ar
    58    35    36    1
    59    35    38    1
    60     1     5   ar
    61     1     6    1
