@<TRIPOS>MOLECULE
mol_data/opt/b3lyp/geoms/mol2/5la.out
 13 13 0 0 0
SMALL
GASTEIGER

@<TRIPOS>ATOM
      1 C          -2.1865   -1.6153    0.0000 C.ar    1  LIG1        0.0174
      2 C          -0.8147   -1.6665   -0.0001 C.ar    1  LIG1        0.1271
      3 C          -0.2005   -0.3709    0.0001 C.ar    1  LIG1       -0.0129
      4 C          -1.1176    0.6370    0.0004 C.ar    1  LIG1       -0.0208
      5 S          -2.7455    0.0338    0.0005 S.2     1  LIG1       -0.1013
      6 H          -2.8972   -2.4267   -0.0001 H       1  LIG1        0.0730
      7 H          -0.9363    1.7024    0.0006 H       1  LIG1        0.0694
      8 O          -0.0178   -2.7694   -0.0005 O.3     1  LIG1       -0.4946
      9 C          -0.6829   -4.0229   -0.0007 C.3     1  LIG1        0.0788
     10 H           0.0963   -4.7861   -0.0010 H       1  LIG1        0.0660
     11 H          -1.3096   -4.1415    0.8931 H       1  LIG1        0.0660
     12 H          -1.3098   -4.1411   -0.8944 H       1  LIG1        0.0660
     13 H           0.8734   -0.2313   -0.0000 H       1  LIG1        0.0659
@<TRIPOS>BOND
     1    12     9    1
     2    10     9    1
     3     9     8    1
     4     9    11    1
     5     8     2    1
     6     2     1   ar
     7     2     3   ar
     8     6     1    1
     9    13     3    1
    10     1     5   ar
    11     3     4   ar
    12     4     5   ar
    13     4     7    1
