@<TRIPOS>MOLECULE
mol_data/opt/b3lyp/geoms/mol2/5la5la5la5la-.out
 46 49 0 0 0
SMALL
GASTEIGER

@<TRIPOS>ATOM
      1 C          -2.7162   -2.6230    0.1897 C.ar    1  LIG1        0.0180
      2 C          -1.3487   -2.7351    0.1570 C.ar    1  LIG1        0.1277
      3 C          -0.6683   -1.4819    0.1078 C.ar    1  LIG1       -0.0045
      4 C          -1.5247   -0.4018    0.1035 C.ar    1  LIG1        0.0330
      5 S          -3.1985   -0.9492    0.1662 S.2     1  LIG1       -0.0923
      6 H          -3.4666   -3.3965    0.2269 H       1  LIG1        0.0730
      7 O          -0.6079   -3.8788    0.1647 O.3     1  LIG1       -0.4946
      8 C          -1.3356   -5.0949    0.2109 C.3     1  LIG1        0.0788
      9 H          -0.5970   -5.8979    0.2111 H       1  LIG1        0.0660
     10 H          -1.9458   -5.1613    1.1216 H       1  LIG1        0.0660
     11 H          -1.9903   -5.2026   -0.6642 H       1  LIG1        0.0660
     12 H           0.4074   -1.3948    0.0746 H       1  LIG1        0.0666
     13 C          -1.2017    1.0042    0.0607 C.ar    1  LIG1        0.0682
     14 C           0.0508    1.6075    0.0913 C.ar    1  LIG1        0.1359
     15 C           0.0211    3.0254    0.0425 C.ar    1  LIG1       -0.0039
     16 C          -1.2606    3.5424   -0.0289 C.ar    1  LIG1        0.0336
     17 S          -2.4409    2.2444   -0.0451 S.2     1  LIG1       -0.0833
     18 O           1.1746    0.8402    0.1670 O.3     1  LIG1       -0.4939
     19 C           2.4242    1.5144    0.2184 C.3     1  LIG1        0.0788
     20 H           3.1848    0.7352    0.2834 H       1  LIG1        0.0660
     21 H           2.5953    2.1129   -0.6850 H       1  LIG1        0.0660
     22 H           2.4945    2.1637    1.0997 H       1  LIG1        0.0660
     23 H           0.8924    3.6609    0.0619 H       1  LIG1        0.0666
     24 C          -1.6652    4.9216   -0.0903 C.ar    1  LIG1        0.0682
     25 C          -0.8662    6.0595   -0.1631 C.ar    1  LIG1        0.1359
     26 C          -1.5882    7.2796   -0.2197 C.ar    1  LIG1       -0.0039
     27 C          -2.9592    7.1044   -0.1894 C.ar    1  LIG1        0.0336
     28 S          -3.3557    5.4002   -0.0749 S.2     1  LIG1       -0.0833
     29 O           0.4922    5.9396   -0.1807 O.3     1  LIG1       -0.4939
     30 C           1.2519    7.1361   -0.2904 C.3     1  LIG1        0.0788
     31 H           2.2989    6.8297   -0.2960 H       1  LIG1        0.0660
     32 H           1.0263    7.6706   -1.2212 H       1  LIG1        0.0660
     33 H           1.0750    7.8037    0.5617 H       1  LIG1        0.0660
     34 H          -1.1393    8.2583   -0.2870 H       1  LIG1        0.0666
     35 C          -3.9914    8.1116   -0.2312 C.ar    1  LIG1        0.0676
     36 C          -3.8517    9.4937   -0.1598 C.ar    1  LIG1        0.1353
     37 C          -5.0902   10.2016   -0.2193 C.ar    1  LIG1       -0.0123
     38 C          -6.1647    9.3643   -0.3375 C.ar    1  LIG1       -0.0202
     39 S          -5.6921    7.7026   -0.3872 S.2     1  LIG1       -0.0924
     40 H          -7.2099    9.6300   -0.4039 H       1  LIG1        0.0695
     41 O          -2.6149   10.0553   -0.0402 O.3     1  LIG1       -0.4939
     42 C          -2.5493   11.4695    0.0908 C.3     1  LIG1        0.0788
     43 H          -1.4918   11.7148    0.1974 H       1  LIG1        0.0660
     44 H          -2.9482   11.9746   -0.7976 H       1  LIG1        0.0660
     45 H          -3.0913   11.8160    0.9792 H       1  LIG1        0.0660
     46 H          -5.1809   11.2789   -0.1755 H       1  LIG1        0.0660
@<TRIPOS>BOND
     1    32    30    1
     2    44    42    1
     3    21    19    1
     4    11     8    1
     5    40    38    1
     6    39    38   ar
     7    39    35   ar
     8    38    37   ar
     9    31    30    1
    10    30    29    1
    11    30    33    1
    12    34    26    1
    13    35    27    1
    14    35    36   ar
    15    26    27   ar
    16    26    25   ar
    17    37    46    1
    18    37    36   ar
    19    27    28   ar
    20    29    25    1
    21    25    24   ar
    22    36    41    1
    23    24    28   ar
    24    24    16    1
    25    17    16   ar
    26    17    13   ar
    27    41    42    1
    28    16    15   ar
    29    15    23    1
    30    15    14   ar
    31    13    14   ar
    32    13     4    1
    33    12     3    1
    34    42    43    1
    35    42    45    1
    36    14    18    1
    37     4     3   ar
    38     4     5   ar
    39     3     2   ar
    40     2     7    1
    41     2     1   ar
    42     7     8    1
    43     5     1   ar
    44    18    19    1
    45     1     6    1
    46     8     9    1
    47     8    10    1
    48    19    20    1
    49    19    22    1
