@<TRIPOS>MOLECULE
mol_data/opt/b3lyp/geoms/mol2/5la5la-5la-5la.out
 46 49 0 0 0
SMALL
GASTEIGER

@<TRIPOS>ATOM
      1 C          -2.6841   -2.6322    0.0491 C.ar    1  LIG1        0.0180
      2 C          -1.3159   -2.7364    0.0778 C.ar    1  LIG1        0.1277
      3 C          -0.6416   -1.4789    0.0773 C.ar    1  LIG1       -0.0045
      4 C          -1.5033   -0.4035    0.0472 C.ar    1  LIG1        0.0330
      5 S          -3.1747   -0.9610    0.0142 S.2     1  LIG1       -0.0923
      6 H          -3.4308   -3.4102    0.0446 H       1  LIG1        0.0730
      7 O          -0.5693   -3.8760    0.1076 O.3     1  LIG1       -0.4946
      8 C          -1.2911   -5.0965    0.1103 C.3     1  LIG1        0.0788
      9 H          -0.5485   -5.8954    0.1352 H       1  LIG1        0.0660
     10 H          -1.9402   -5.1752    0.9926 H       1  LIG1        0.0660
     11 H          -1.9062   -5.1991   -0.7937 H       1  LIG1        0.0660
     12 H           0.4339   -1.3855    0.1011 H       1  LIG1        0.0666
     13 C          -1.1872    1.0046    0.0367 C.ar    1  LIG1        0.0682
     14 C           0.0619    1.6125   -0.0257 C.ar    1  LIG1        0.1359
     15 C           0.0252    3.0311   -0.0280 C.ar    1  LIG1       -0.0039
     16 C          -1.2585    3.5441    0.0349 C.ar    1  LIG1        0.0336
     17 S          -2.4320    2.2418    0.1079 S.2     1  LIG1       -0.0833
     18 O           1.1890    0.8485   -0.0826 O.3     1  LIG1       -0.4939
     19 C           2.4345    1.5264   -0.1709 C.3     1  LIG1        0.0788
     20 H           3.1986    0.7490   -0.2144 H       1  LIG1        0.0660
     21 H           2.4930    2.1430   -1.0763 H       1  LIG1        0.0660
     22 H           2.6111    2.1588    0.7079 H       1  LIG1        0.0660
     23 H           0.8931    3.6697   -0.0775 H       1  LIG1        0.0666
     24 C          -1.6698    4.9226    0.0496 C.ar    1  LIG1        0.0682
     25 C          -0.8762    6.0663    0.0753 C.ar    1  LIG1        0.1359
     26 C          -1.6039    7.2842    0.0929 C.ar    1  LIG1       -0.0039
     27 C          -2.9743    7.1013    0.0789 C.ar    1  LIG1        0.0336
     28 S          -3.3628    5.3921    0.0291 S.2     1  LIG1       -0.0833
     29 O           0.4829    5.9537    0.0875 O.3     1  LIG1       -0.4939
     30 C           1.2373    7.1571    0.1480 C.3     1  LIG1        0.0788
     31 H           2.2859    6.8562    0.1573 H       1  LIG1        0.0660
     32 H           1.0510    7.7922   -0.7266 H       1  LIG1        0.0660
     33 H           1.0155    7.7241    1.0602 H       1  LIG1        0.0660
     34 H          -1.1597    8.2669    0.1216 H       1  LIG1        0.0666
     35 C          -4.0113    8.1042    0.0917 C.ar    1  LIG1        0.0676
     36 C          -3.8791    9.4837   -0.0292 C.ar    1  LIG1        0.1353
     37 C          -5.1209   10.1871    0.0133 C.ar    1  LIG1       -0.0123
     38 C          -6.1903    9.3493    0.1678 C.ar    1  LIG1       -0.0202
     39 S          -5.7089    7.6927    0.2728 S.2     1  LIG1       -0.0924
     40 H          -7.2364    9.6120    0.2313 H       1  LIG1        0.0695
     41 O          -2.6460   10.0467   -0.1761 O.3     1  LIG1       -0.4939
     42 C          -2.5884   11.4557   -0.3577 C.3     1  LIG1        0.0788
     43 H          -1.5329   11.7022   -0.4797 H       1  LIG1        0.0660
     44 H          -3.1377   11.7677   -1.2543 H       1  LIG1        0.0660
     45 H          -2.9842   11.9901    0.5148 H       1  LIG1        0.0660
     46 H          -5.2174   11.2617   -0.0679 H       1  LIG1        0.0660
@<TRIPOS>BOND
     1    44    42    1
     2    21    19    1
     3    11     8    1
     4    32    30    1
     5    43    42    1
     6    42    41    1
     7    42    45    1
     8    20    19    1
     9    41    36    1
    10    19    18    1
    11    19    22    1
    12    18    14    1
    13    23    15    1
    14    46    37    1
    15    36    37   ar
    16    36    35   ar
    17    15    14   ar
    18    15    16   ar
    19    14    13   ar
    20    37    38   ar
    21     5     4   ar
    22     5     1   ar
    23    28    24   ar
    24    28    27   ar
    25    16    24    1
    26    16    17   ar
    27    13     4    1
    28    13    17   ar
    29     6     1    1
    30     4     3   ar
    31     1     2   ar
    32    24    25   ar
    33    25    29    1
    34    25    26   ar
    35     3     2   ar
    36     3    12    1
    37     2     7    1
    38    27    35    1
    39    27    26   ar
    40    29    30    1
    41    35    39   ar
    42    26    34    1
    43     7     8    1
    44     8     9    1
    45     8    10    1
    46    30    31    1
    47    30    33    1
    48    38    40    1
    49    38    39   ar
