@<TRIPOS>MOLECULE
mol_data/opt/b3lyp/geoms/mol2/5la5la5la-5la.out
 46 49 0 0 0
SMALL
GASTEIGER

@<TRIPOS>ATOM
      1 C          -2.7055   -2.6154    0.4013 C.ar    1  LIG1        0.0180
      2 C          -1.3450   -2.7317    0.2625 C.ar    1  LIG1        0.1277
      3 C          -0.6688   -1.4813    0.1392 C.ar    1  LIG1       -0.0045
      4 C          -1.5213   -0.3990    0.1848 C.ar    1  LIG1        0.0330
      5 S          -3.1856   -0.9409    0.3886 S.2     1  LIG1       -0.0923
      6 H          -3.4517   -3.3861    0.5104 H       1  LIG1        0.0730
      7 O          -0.6075   -3.8772    0.2303 O.3     1  LIG1       -0.4946
      8 C          -1.3310   -5.0904    0.3533 C.3     1  LIG1        0.0788
      9 H          -0.5959   -5.8953    0.3081 H       1  LIG1        0.0660
     10 H          -1.8676   -5.1406    1.3102 H       1  LIG1        0.0660
     11 H          -2.0530   -5.2101   -0.4656 H       1  LIG1        0.0660
     12 H           0.4011   -1.3977    0.0196 H       1  LIG1        0.0666
     13 C          -1.2007    1.0051    0.0937 C.ar    1  LIG1        0.0682
     14 C           0.0513    1.6056    0.0173 C.ar    1  LIG1        0.1359
     15 C           0.0197    3.0226   -0.0525 C.ar    1  LIG1       -0.0039
     16 C          -1.2630    3.5417   -0.0333 C.ar    1  LIG1        0.0336
     17 S          -2.4427    2.2467    0.0630 S.2     1  LIG1       -0.0833
     18 O           1.1765    0.8368    0.0187 O.3     1  LIG1       -0.4939
     19 C           2.4273    1.5086   -0.0352 C.3     1  LIG1        0.0788
     20 H           2.5648    2.1715    0.8279 H       1  LIG1        0.0660
     21 H           3.1897    0.7285   -0.0155 H       1  LIG1        0.0660
     22 H           2.5305    2.0924   -0.9582 H       1  LIG1        0.0660
     23 H           0.8908    3.6561   -0.1110 H       1  LIG1        0.0666
     24 C          -1.6693    4.9208   -0.0861 C.ar    1  LIG1        0.0682
     25 C          -0.8769    6.0552   -0.2399 C.ar    1  LIG1        0.1359
     26 C          -1.5994    7.2762   -0.2603 C.ar    1  LIG1       -0.0039
     27 C          -2.9641    7.1051   -0.1201 C.ar    1  LIG1        0.0336
     28 S          -3.3528    5.4040    0.0533 S.2     1  LIG1       -0.0833
     29 O           0.4758    5.9313   -0.3615 O.3     1  LIG1       -0.4939
     30 C           1.2264    7.1239   -0.5496 C.3     1  LIG1        0.0788
     31 H           2.2693    6.8147   -0.6320 H       1  LIG1        0.0660
     32 H           0.9296    7.6440   -1.4685 H       1  LIG1        0.0660
     33 H           1.1175    7.8055    0.3028 H       1  LIG1        0.0660
     34 H          -1.1558    8.2524   -0.3788 H       1  LIG1        0.0666
     35 C          -3.9950    8.1142   -0.0980 C.ar    1  LIG1        0.0676
     36 C          -3.8483    9.4970   -0.0619 C.ar    1  LIG1        0.1353
     37 C          -5.0867   10.2071   -0.0360 C.ar    1  LIG1       -0.0123
     38 C          -6.1683    9.3708   -0.0547 C.ar    1  LIG1       -0.0202
     39 S          -5.7033    7.7072   -0.1124 S.2     1  LIG1       -0.0924
     40 H          -7.2151    9.6381   -0.0430 H       1  LIG1        0.0695
     41 O          -2.6051   10.0571   -0.0501 O.3     1  LIG1       -0.4939
     42 C          -2.5274   11.4731    0.0515 C.3     1  LIG1        0.0788
     43 H          -1.4646   11.7173    0.0705 H       1  LIG1        0.0660
     44 H          -2.9941   11.9644   -0.8112 H       1  LIG1        0.0660
     45 H          -2.9975   11.8359    0.9737 H       1  LIG1        0.0660
     46 H          -5.1722   11.2851   -0.0039 H       1  LIG1        0.0660
@<TRIPOS>BOND
     1    32    30    1
     2    22    19    1
     3    44    42    1
     4    31    30    1
     5    30    29    1
     6    30    33    1
     7    11     8    1
     8    34    26    1
     9    29    25    1
    10    26    25   ar
    11    26    27   ar
    12    25    24   ar
    13    27    35    1
    14    27    28   ar
    15    39    35   ar
    16    39    38   ar
    17    23    15    1
    18    35    36   ar
    19    24    16    1
    20    24    28   ar
    21    36    41    1
    22    36    37   ar
    23    38    40    1
    24    38    37   ar
    25    15    16   ar
    26    15    14   ar
    27    41    42    1
    28    37    46    1
    29    19    21    1
    30    19    18    1
    31    19    20    1
    32    16    17   ar
    33    14    18    1
    34    14    13   ar
    35    12     3    1
    36    42    43    1
    37    42    45    1
    38    17    13   ar
    39    13     4    1
    40     3     4   ar
    41     3     2   ar
    42     4     5   ar
    43     7     2    1
    44     7     8    1
    45     2     1   ar
    46     9     8    1
    47     8    10    1
    48     5     1   ar
    49     1     6    1
