@<TRIPOS>MOLECULE
mol_data/opt/b3lyp/geoms/mol2/5la5la5la-.out
 35 37 0 0 0
SMALL
GASTEIGER

@<TRIPOS>ATOM
      1 C          -2.7623   -2.3717   -0.2694 C.ar    1  LIG1        0.0180
      2 C          -1.4097   -2.4842   -0.0655 C.ar    1  LIG1        0.1277
      3 C          -0.7361   -1.2300    0.0344 C.ar    1  LIG1       -0.0045
      4 C          -1.5825   -0.1509   -0.0954 C.ar    1  LIG1        0.0330
      5 S          -3.2369   -0.6980   -0.3550 S.2     1  LIG1       -0.0923
      6 H          -3.5053   -3.1460   -0.3763 H       1  LIG1        0.0730
      7 O          -0.6785   -3.6278    0.0510 O.3     1  LIG1       -0.4946
      8 C          -1.4002   -4.8444   -0.0505 C.3     1  LIG1        0.0788
      9 H          -0.6706   -5.6475    0.0626 H       1  LIG1        0.0660
     10 H          -2.1579   -4.9264    0.7402 H       1  LIG1        0.0660
     11 H          -1.8940   -4.9355   -1.0271 H       1  LIG1        0.0660
     12 H           0.3270   -1.1414    0.2022 H       1  LIG1        0.0666
     13 C          -1.2600    1.2560   -0.0499 C.ar    1  LIG1        0.0682
     14 C          -0.0074    1.8574   -0.0466 C.ar    1  LIG1        0.1359
     15 C          -0.0395    3.2775   -0.0120 C.ar    1  LIG1       -0.0039
     16 C          -1.3214    3.7927    0.0154 C.ar    1  LIG1        0.0336
     17 S          -2.5013    2.4959    0.0133 S.2     1  LIG1       -0.0833
     18 O           1.1173    1.0892   -0.0815 O.3     1  LIG1       -0.4939
     19 C           2.3675    1.7618   -0.1440 C.3     1  LIG1        0.0788
     20 H           3.1279    0.9811   -0.1886 H       1  LIG1        0.0660
     21 H           2.4410    2.3908   -1.0397 H       1  LIG1        0.0660
     22 H           2.5364    2.3803    0.7462 H       1  LIG1        0.0660
     23 H           0.8325    3.9128   -0.0104 H       1  LIG1        0.0666
     24 C          -1.7303    5.1769    0.0518 C.ar    1  LIG1        0.0676
     25 C          -0.9313    6.3123    0.1337 C.ar    1  LIG1        0.1353
     26 C          -1.6680    7.5356    0.1533 C.ar    1  LIG1       -0.0123
     27 C          -3.0182    7.3331    0.0854 C.ar    1  LIG1       -0.0202
     28 S          -3.4193    5.6545   -0.0073 S.2     1  LIG1       -0.0924
     29 H          -3.8025    8.0763    0.0823 H       1  LIG1        0.0695
     30 O           0.4264    6.1969    0.1884 O.3     1  LIG1       -0.4939
     31 C           1.1806    7.3975    0.2912 C.3     1  LIG1        0.0788
     32 H           2.2278    7.0948    0.3285 H       1  LIG1        0.0660
     33 H           1.0238    8.0462   -0.5794 H       1  LIG1        0.0660
     34 H           0.9326    7.9510    1.2052 H       1  LIG1        0.0660
     35 H          -1.2193    8.5181    0.2153 H       1  LIG1        0.0660
@<TRIPOS>BOND
     1    21    19    1
     2    11     8    1
     3    33    31    1
     4     6     1    1
     5     5     1   ar
     6     5     4   ar
     7     1     2   ar
     8    20    19    1
     9    19    18    1
    10    19    22    1
    11     4    13    1
    12     4     3   ar
    13    18    14    1
    14     2     3   ar
    15     2     7    1
    16     8     7    1
    17     8     9    1
    18     8    10    1
    19    13    14   ar
    20    13    17   ar
    21    14    15   ar
    22    15    23    1
    23    15    16   ar
    24    28    24   ar
    25    28    27   ar
    26    17    16   ar
    27    16    24    1
    28     3    12    1
    29    24    25   ar
    30    29    27    1
    31    27    26   ar
    32    25    26   ar
    33    25    30    1
    34    26    35    1
    35    30    31    1
    36    31    32    1
    37    31    34    1
