@<TRIPOS>MOLECULE
mol_data/opt/b3lyp/geoms/mol2/5la5la5la5la.out
 46 49 0 0 0
SMALL
GASTEIGER

@<TRIPOS>ATOM
      1 C          -2.6607   -2.6355    0.1158 C.ar    1  LIG1        0.0180
      2 C          -1.2923   -2.7344    0.1510 C.ar    1  LIG1        0.1277
      3 C          -0.6224   -1.4746    0.1368 C.ar    1  LIG1       -0.0045
      4 C          -1.4879   -0.4028    0.0896 C.ar    1  LIG1        0.0330
      5 S          -3.1571   -0.9667    0.0576 S.2     1  LIG1       -0.0923
      6 H          -3.4046   -3.4162    0.1185 H       1  LIG1        0.0730
      7 O          -0.5417   -3.8708    0.1983 O.3     1  LIG1       -0.4946
      8 C          -1.2591   -5.0938    0.2142 C.3     1  LIG1        0.0788
      9 H          -0.5137   -5.8896    0.2522 H       1  LIG1        0.0660
     10 H          -1.9113   -5.1633    1.0950 H       1  LIG1        0.0660
     11 H          -1.8704   -5.2104   -0.6907 H       1  LIG1        0.0660
     12 H           0.4526   -1.3770    0.1634 H       1  LIG1        0.0666
     13 C          -1.1768    1.0062    0.0621 C.ar    1  LIG1        0.0682
     14 C           0.0704    1.6177   -0.0031 C.ar    1  LIG1        0.1359
     15 C           0.0287    3.0361   -0.0239 C.ar    1  LIG1       -0.0039
     16 C          -1.2572    3.5452    0.0272 C.ar    1  LIG1        0.0336
     17 S          -2.4262    2.2397    0.1122 S.2     1  LIG1       -0.0833
     18 O           1.2004    0.8572   -0.0455 O.3     1  LIG1       -0.4939
     19 C           2.4439    1.5384   -0.1378 C.3     1  LIG1        0.0788
     20 H           3.2108    0.7633   -0.1684 H       1  LIG1        0.0660
     21 H           2.5037    2.1435   -1.0508 H       1  LIG1        0.0660
     22 H           2.6148    2.1826    0.7335 H       1  LIG1        0.0660
     23 H           0.8945    3.6772   -0.0780 H       1  LIG1        0.0666
     24 C          -1.6734    4.9223    0.0224 C.ar    1  LIG1        0.0682
     25 C          -0.8839    6.0691    0.0364 C.ar    1  LIG1        0.1359
     26 C          -1.6161    7.2844    0.0354 C.ar    1  LIG1       -0.0039
     27 C          -2.9857    7.0964    0.0184 C.ar    1  LIG1        0.0336
     28 S          -3.3679    5.3853   -0.0107 S.2     1  LIG1       -0.0833
     29 O           0.4755    5.9615    0.0552 O.3     1  LIG1       -0.4939
     30 C           1.2254    7.1683    0.1027 C.3     1  LIG1        0.0788
     31 H           2.2749    6.8714    0.1199 H       1  LIG1        0.0660
     32 H           1.0401    7.7912   -0.7809 H       1  LIG1        0.0660
     33 H           0.9981    7.7465    1.0066 H       1  LIG1        0.0660
     34 H          -1.1754    8.2690    0.0531 H       1  LIG1        0.0666
     35 C          -4.0263    8.0957    0.0143 C.ar    1  LIG1        0.0676
     36 C          -3.8986    9.4739   -0.1245 C.ar    1  LIG1        0.1353
     37 C          -5.1430   10.1734   -0.0959 C.ar    1  LIG1       -0.0123
     38 C          -6.2100    9.3338    0.0658 C.ar    1  LIG1       -0.0202
     39 S          -5.7231    7.6805    0.1946 S.2     1  LIG1       -0.0924
     40 H          -7.2572    9.5936    0.1220 H       1  LIG1        0.0695
     41 O          -2.6669   10.0393   -0.2743 O.3     1  LIG1       -0.4939
     42 C          -2.6136   11.4459   -0.4745 C.3     1  LIG1        0.0788
     43 H          -1.5586   11.6946   -0.5958 H       1  LIG1        0.0660
     44 H          -3.1607   11.7440   -1.3772 H       1  LIG1        0.0660
     45 H          -3.0147   11.9905    0.3893 H       1  LIG1        0.0660
     46 H          -5.2429   11.2464   -0.1917 H       1  LIG1        0.0660
@<TRIPOS>BOND
     1    44    42    1
     2    21    19    1
     3    32    30    1
     4    11     8    1
     5    43    42    1
     6    42    41    1
     7    42    45    1
     8    41    36    1
     9    46    37    1
    10    20    19    1
    11    19    18    1
    12    19    22    1
    13    36    37   ar
    14    36    35   ar
    15    37    38   ar
    16    23    15    1
    17    18    14    1
    18    15    14   ar
    19    15    16   ar
    20    28    27   ar
    21    28    24   ar
    22    14    13   ar
    23    35    27    1
    24    35    39   ar
    25    27    26   ar
    26    24    16    1
    27    24    25   ar
    28    16    17   ar
    29    26    25   ar
    30    26    34    1
    31    25    29    1
    32    29    30    1
    33     5     4   ar
    34     5     1   ar
    35    13     4    1
    36    13    17   ar
    37    38    40    1
    38    38    39   ar
    39     4     3   ar
    40    30    31    1
    41    30    33    1
    42     1     6    1
    43     1     2   ar
    44     3     2   ar
    45     3    12    1
    46     2     7    1
    47     7     8    1
    48     8     9    1
    49     8    10    1
