@<TRIPOS>MOLECULE
mol_data/opt/b3lyp/geoms/mol2/5la5la-5la-5la-.out
 46 49 0 0 0
SMALL
GASTEIGER

@<TRIPOS>ATOM
      1 C          -2.6630   -2.6359   -0.0613 C.ar    1  LIG1        0.0180
      2 C          -1.2968   -2.7363    0.0238 C.ar    1  LIG1        0.1277
      3 C          -0.6272   -1.4769    0.0618 C.ar    1  LIG1       -0.0045
      4 C          -1.4905   -0.4038    0.0046 C.ar    1  LIG1        0.0330
      5 S          -3.1572   -0.9660   -0.1027 S.2     1  LIG1       -0.0923
      6 H          -3.4062   -3.4161   -0.1034 H       1  LIG1        0.0730
      7 O          -0.5483   -3.8739    0.0753 O.3     1  LIG1       -0.4946
      8 C          -1.2655   -5.0965    0.0374 C.3     1  LIG1        0.0788
      9 H          -0.5219   -5.8934    0.0866 H       1  LIG1        0.0660
     10 H          -1.9507   -5.1847    0.8911 H       1  LIG1        0.0660
     11 H          -1.8419   -5.1932   -0.8924 H       1  LIG1        0.0660
     12 H           0.4460   -1.3804    0.1312 H       1  LIG1        0.0666
     13 C          -1.1790    1.0053    0.0189 C.ar    1  LIG1        0.0682
     14 C           0.0697    1.6174    0.0153 C.ar    1  LIG1        0.1359
     15 C           0.0284    3.0359    0.0229 C.ar    1  LIG1       -0.0039
     16 C          -1.2586    3.5445    0.0347 C.ar    1  LIG1        0.0336
     17 S          -2.4297    2.2382    0.0464 S.2     1  LIG1       -0.0833
     18 O           1.2007    0.8573    0.0008 O.3     1  LIG1       -0.4939
     19 C           2.4466    1.5395   -0.0283 C.3     1  LIG1        0.0788
     20 H           3.2144    0.7648   -0.0453 H       1  LIG1        0.0660
     21 H           2.5420    2.1639   -0.9252 H       1  LIG1        0.0660
     22 H           2.5831    2.1650    0.8626 H       1  LIG1        0.0660
     23 H           0.8955    3.6774    0.0160 H       1  LIG1        0.0666
     24 C          -1.6747    4.9216    0.0428 C.ar    1  LIG1        0.0682
     25 C          -0.8867    6.0674    0.1127 C.ar    1  LIG1        0.1359
     26 C          -1.6186    7.2829    0.1088 C.ar    1  LIG1       -0.0039
     27 C          -2.9864    7.0960    0.0335 C.ar    1  LIG1        0.0336
     28 S          -3.3667    5.3862   -0.0477 S.2     1  LIG1       -0.0833
     29 O           0.4709    5.9587    0.1831 O.3     1  LIG1       -0.4939
     30 C           1.2179    7.1638    0.2864 C.3     1  LIG1        0.0788
     31 H           2.2661    6.8660    0.3387 H       1  LIG1        0.0660
     32 H           1.0677    7.8057   -0.5902 H       1  LIG1        0.0660
     33 H           0.9548    7.7224    1.1928 H       1  LIG1        0.0660
     34 H          -1.1793    8.2666    0.1651 H       1  LIG1        0.0666
     35 C          -4.0263    8.0958    0.0096 C.ar    1  LIG1        0.0676
     36 C          -3.8937    9.4765   -0.0952 C.ar    1  LIG1        0.1353
     37 C          -5.1385   10.1759   -0.1006 C.ar    1  LIG1       -0.0123
     38 C          -6.2107    9.3337    0.0017 C.ar    1  LIG1       -0.0202
     39 S          -5.7288    7.6778    0.1150 S.2     1  LIG1       -0.0924
     40 H          -7.2595    9.5928    0.0224 H       1  LIG1        0.0695
     41 O          -2.6572   10.0443   -0.1850 O.3     1  LIG1       -0.4939
     42 C          -2.5966   11.4546   -0.3543 C.3     1  LIG1        0.0788
     43 H          -1.5377   11.7052   -0.4294 H       1  LIG1        0.0660
     44 H          -3.1082   11.7713   -1.2714 H       1  LIG1        0.0660
     45 H          -3.0311   11.9818    0.5041 H       1  LIG1        0.0660
     46 H          -5.2349   11.2508   -0.1778 H       1  LIG1        0.0660
@<TRIPOS>BOND
     1    44    42    1
     2    21    19    1
     3    11     8    1
     4    32    30    1
     5    43    42    1
     6    42    41    1
     7    42    45    1
     8    41    36    1
     9    46    37    1
    10     6     1    1
    11     5     1   ar
    12     5     4   ar
    13    37    36   ar
    14    37    38   ar
    15    36    35   ar
    16     1     2   ar
    17    28    27   ar
    18    28    24   ar
    19    20    19    1
    20    19    18    1
    21    19    22    1
    22    18    14    1
    23    38    40    1
    24    38    39   ar
    25     4    13    1
    26     4     3   ar
    27    35    27    1
    28    35    39   ar
    29    14    13   ar
    30    14    15   ar
    31    23    15    1
    32    13    17   ar
    33    15    16   ar
    34     2     3   ar
    35     2     7    1
    36    27    26   ar
    37    16    24    1
    38    16    17   ar
    39     8     7    1
    40     8     9    1
    41     8    10    1
    42    24    25   ar
    43     3    12    1
    44    26    25   ar
    45    26    34    1
    46    25    29    1
    47    29    30    1
    48    30    31    1
    49    30    33    1
