@<TRIPOS>MOLECULE
mol_data/opt/b3lyp/geoms/mol2/5la5la-.out
 24 25 0 0 0
SMALL
GASTEIGER

@<TRIPOS>ATOM
      1 C          -2.6399   -2.0498    0.0474 C.ar    1  LIG1        0.0180
      2 C          -1.2821   -2.1435   -0.1266 C.ar    1  LIG1        0.1277
      3 C          -0.6168   -0.8800   -0.1489 C.ar    1  LIG1       -0.0045
      4 C          -1.4746    0.1840    0.0101 C.ar    1  LIG1        0.0330
      5 S          -3.1297   -0.3854    0.1998 S.2     1  LIG1       -0.0923
      6 H          -3.3794   -2.8330    0.0994 H       1  LIG1        0.0730
      7 O          -0.5379   -3.2738   -0.2774 O.3     1  LIG1       -0.4946
      8 C          -1.2501   -4.5003   -0.2509 C.3     1  LIG1        0.0788
      9 H          -0.5102   -5.2906   -0.3847 H       1  LIG1        0.0660
     10 H          -1.7653   -4.6419    0.7084 H       1  LIG1        0.0660
     11 H          -1.9881   -4.5509   -1.0624 H       1  LIG1        0.0660
     12 H           0.4498   -0.7766   -0.2830 H       1  LIG1        0.0666
     13 C          -1.1609    1.5976    0.0391 C.ar    1  LIG1        0.0676
     14 C           0.0893    2.2005    0.0785 C.ar    1  LIG1        0.1353
     15 C           0.0399    3.6287    0.1099 C.ar    1  LIG1       -0.0123
     16 C          -1.2404    4.1066    0.0916 C.ar    1  LIG1       -0.0202
     17 S          -2.4072    2.8329    0.0276 S.2     1  LIG1       -0.0924
     18 H          -1.5657    5.1369    0.1067 H       1  LIG1        0.0695
     19 O           1.2199    1.4400    0.0871 O.3     1  LIG1       -0.4939
     20 C           2.4649    2.1184    0.1816 C.3     1  LIG1        0.0788
     21 H           3.2313    1.3424    0.1936 H       1  LIG1        0.0660
     22 H           2.6315    2.7760   -0.6808 H       1  LIG1        0.0660
     23 H           2.5332    2.7075    1.1046 H       1  LIG1        0.0660
     24 H           0.9116    4.2688    0.1455 H       1  LIG1        0.0660
@<TRIPOS>BOND
     1    11     8    1
     2    22    20    1
     3     9     8    1
     4    12     3    1
     5     7     8    1
     6     7     2    1
     7     8    10    1
     8     3     2   ar
     9     3     4   ar
    10     2     1   ar
    11     4    13    1
    12     4     5   ar
    13    17    13   ar
    14    17    16   ar
    15    13    14   ar
    16     1     6    1
    17     1     5   ar
    18    14    19    1
    19    14    15   ar
    20    19    20    1
    21    16    18    1
    22    16    15   ar
    23    15    24    1
    24    20    21    1
    25    20    23    1
