@<TRIPOS>MOLECULE
mol_data/opt/b3lyp/geoms/mol2/5la5la-5la-.out
 35 37 0 0 0
SMALL
GASTEIGER

@<TRIPOS>ATOM
      1 C          -2.6825   -2.4129    0.1931 C.ar    1  LIG1        0.0180
      2 C          -1.3296   -2.4972   -0.0228 C.ar    1  LIG1        0.1277
      3 C          -0.6784   -1.2295   -0.0982 C.ar    1  LIG1       -0.0045
      4 C          -1.5423   -0.1686    0.0625 C.ar    1  LIG1        0.0330
      5 S          -3.1850   -0.7501    0.3210 S.2     1  LIG1       -0.0923
      6 H          -3.4113   -3.2022    0.2872 H       1  LIG1        0.0730
      7 O          -0.5799   -3.6249   -0.1709 O.3     1  LIG1       -0.4946
      8 C          -1.2798   -4.8559   -0.0928 C.3     1  LIG1        0.0788
      9 H          -0.5374   -5.6434   -0.2297 H       1  LIG1        0.0660
     10 H          -1.7648   -4.9782    0.8848 H       1  LIG1        0.0660
     11 H          -2.0418   -4.9326   -0.8799 H       1  LIG1        0.0660
     12 H           0.3817   -1.1187   -0.2714 H       1  LIG1        0.0666
     13 C          -1.2442    1.2443    0.0474 C.ar    1  LIG1        0.0682
     14 C          -0.0022    1.8672    0.0511 C.ar    1  LIG1        0.1359
     15 C          -0.0588    3.2870    0.0492 C.ar    1  LIG1       -0.0039
     16 C          -1.3496    3.7804    0.0405 C.ar    1  LIG1        0.0336
     17 S          -2.5069    2.4637    0.0191 S.2     1  LIG1       -0.0833
     18 O           1.1358    1.1179    0.0625 O.3     1  LIG1       -0.4939
     19 C           2.3745    1.8105    0.1338 C.3     1  LIG1        0.0788
     20 H           3.1485    1.0421    0.1566 H       1  LIG1        0.0660
     21 H           2.5278    2.4518   -0.7430 H       1  LIG1        0.0660
     22 H           2.4423    2.4202    1.0431 H       1  LIG1        0.0660
     23 H           0.8021    3.9371    0.0576 H       1  LIG1        0.0666
     24 C          -1.7824    5.1579    0.0379 C.ar    1  LIG1        0.0676
     25 C          -1.0034    6.3084   -0.0223 C.ar    1  LIG1        0.1353
     26 C          -1.7612    7.5189   -0.0099 C.ar    1  LIG1       -0.0123
     27 C          -3.1073    7.2916    0.0605 C.ar    1  LIG1       -0.0202
     28 S          -3.4789    5.6046    0.1170 S.2     1  LIG1       -0.0924
     29 H          -3.9042    8.0208    0.0848 H       1  LIG1        0.0695
     30 O           0.3557    6.2178   -0.0869 O.3     1  LIG1       -0.4939
     31 C           1.0885    7.4333   -0.1665 C.3     1  LIG1        0.0788
     32 H           2.1406    7.1498   -0.2164 H       1  LIG1        0.0660
     33 H           0.8258    8.0031   -1.0663 H       1  LIG1        0.0660
     34 H           0.9257    8.0594    0.7195 H       1  LIG1        0.0660
     35 H          -1.3297    8.5103   -0.0518 H       1  LIG1        0.0660
@<TRIPOS>BOND
     1    33    31    1
     2    11     8    1
     3    21    19    1
     4    12     3    1
     5     9     8    1
     6    32    31    1
     7     7     8    1
     8     7     2    1
     9    31    30    1
    10    31    34    1
    11     3     2   ar
    12     3     4   ar
    13     8    10    1
    14    30    25    1
    15    35    26    1
    16     2     1   ar
    17    25    26   ar
    18    25    24   ar
    19    26    27   ar
    20    17    16   ar
    21    17    13   ar
    22    24    16    1
    23    24    28   ar
    24    16    15   ar
    25    13    14   ar
    26    13     4    1
    27    15    14   ar
    28    15    23    1
    29    14    18    1
    30    27    29    1
    31    27    28   ar
    32     4     5   ar
    33    18    19    1
    34    19    20    1
    35    19    22    1
    36     1     6    1
    37     1     5   ar
