@<TRIPOS>MOLECULE
mol_data/opt/b3lyp/geoms/mol2/5la5la5la.out
 35 37 0 0 0
SMALL
GASTEIGER

@<TRIPOS>ATOM
      1 C          -2.6610   -2.4262    0.0003 C.ar    1  LIG1        0.0180
      2 C          -1.2964   -2.5004   -0.1275 C.ar    1  LIG1        0.1277
      3 C          -0.6498   -1.2283   -0.1463 C.ar    1  LIG1       -0.0045
      4 C          -1.5290   -0.1741   -0.0310 C.ar    1  LIG1        0.0330
      5 S          -3.1814   -0.7678    0.1129 S.2     1  LIG1       -0.0923
      6 H          -3.3894   -3.2206    0.0379 H       1  LIG1        0.0730
      7 O          -0.5314   -3.6222   -0.2383 O.3     1  LIG1       -0.4946
      8 C          -1.2272   -4.8579   -0.2196 C.3     1  LIG1        0.0788
      9 H          -0.4723   -5.6396   -0.3160 H       1  LIG1        0.0660
     10 H          -1.7743   -4.9939    0.7228 H       1  LIG1        0.0660
     11 H          -1.9354   -4.9301   -1.0558 H       1  LIG1        0.0660
     12 H           0.4187   -1.1096   -0.2485 H       1  LIG1        0.0666
     13 C          -1.2396    1.2405   -0.0112 C.ar    1  LIG1        0.0682
     14 C          -0.0043    1.8704    0.0786 C.ar    1  LIG1        0.1359
     15 C          -0.0698    3.2897    0.0888 C.ar    1  LIG1       -0.0039
     16 C          -1.3605    3.7759    0.0033 C.ar    1  LIG1        0.0336
     17 S          -2.5057    2.4530   -0.1063 S.2     1  LIG1       -0.0833
     18 O           1.1354    1.1275    0.1541 O.3     1  LIG1       -0.4939
     19 C           2.3627    1.8262    0.3115 C.3     1  LIG1        0.0788
     20 H           3.1385    1.0621    0.3749 H       1  LIG1        0.0660
     21 H           2.5671    2.4785   -0.5466 H       1  LIG1        0.0660
     22 H           2.3687    2.4258    1.2300 H       1  LIG1        0.0660
     23 H           0.7847    3.9446    0.1593 H       1  LIG1        0.0666
     24 C          -1.8011    5.1508   -0.0115 C.ar    1  LIG1        0.0676
     25 C          -1.0272    6.3064   -0.0090 C.ar    1  LIG1        0.1353
     26 C          -1.7919    7.5124   -0.0315 C.ar    1  LIG1       -0.0123
     27 C          -3.1383    7.2767   -0.0497 C.ar    1  LIG1       -0.0202
     28 S          -3.5020    5.5870   -0.0359 S.2     1  LIG1       -0.0924
     29 H          -3.9398    8.0010   -0.0682 H       1  LIG1        0.0695
     30 O           0.3339    6.2242    0.0123 O.3     1  LIG1       -0.4939
     31 C           1.0625    7.4447   -0.0062 C.3     1  LIG1        0.0788
     32 H           2.1174    7.1677    0.0081 H       1  LIG1        0.0660
     33 H           0.8542    8.0235   -0.9144 H       1  LIG1        0.0660
     34 H           0.8393    8.0593    0.8746 H       1  LIG1        0.0660
     35 H          -1.3650    8.5066   -0.0347 H       1  LIG1        0.0660
@<TRIPOS>BOND
     1    11     8    1
     2    33    31    1
     3    21    19    1
     4     9     8    1
     5    12     3    1
     6     7     8    1
     7     7     2    1
     8     8    10    1
     9     3     2   ar
    10     3     4   ar
    11     2     1   ar
    12    17    13   ar
    13    17    16   ar
    14    29    27    1
    15    27    28   ar
    16    27    26   ar
    17    28    24   ar
    18    35    26    1
    19    26    25   ar
    20     4    13    1
    21     4     5   ar
    22    24    25   ar
    23    24    16    1
    24    13    14   ar
    25    25    30    1
    26    31    32    1
    27    31    30    1
    28    31    34    1
    29     1     6    1
    30     1     5   ar
    31    16    15   ar
    32    14    15   ar
    33    14    18    1
    34    15    23    1
    35    18    19    1
    36    19    20    1
    37    19    22    1
