@<TRIPOS>MOLECULE
mol_data/opt/b3lyp/geoms/mol2/5la5la-5la.out
 35 37 0 0 0
SMALL
GASTEIGER

@<TRIPOS>ATOM
      1 C          -2.7501   -2.3857   -0.0270 C.ar    1  LIG1        0.0180
      2 C          -1.3919   -2.4833   -0.1994 C.ar    1  LIG1        0.1277
      3 C          -0.7211   -1.2237   -0.2126 C.ar    1  LIG1       -0.0045
      4 C          -1.5752   -0.1555   -0.0479 C.ar    1  LIG1        0.0330
      5 S          -3.2338   -0.7205    0.1361 S.2     1  LIG1       -0.0923
      6 H          -3.4925   -3.1667    0.0172 H       1  LIG1        0.0730
      7 O          -0.6530   -3.6169   -0.3575 O.3     1  LIG1       -0.4946
      8 C          -1.3721   -4.8391   -0.3424 C.3     1  LIG1        0.0788
      9 H          -0.6363   -5.6329   -0.4789 H       1  LIG1        0.0660
     10 H          -1.8921   -4.9848    0.6138 H       1  LIG1        0.0660
     11 H          -2.1075   -4.8799   -1.1570 H       1  LIG1        0.0660
     12 H           0.3458   -1.1233   -0.3460 H       1  LIG1        0.0666
     13 C          -1.2575    1.2526   -0.0081 C.ar    1  LIG1        0.0682
     14 C          -0.0078    1.8567    0.0556 C.ar    1  LIG1        0.1359
     15 C          -0.0449    3.2765    0.0971 C.ar    1  LIG1       -0.0039
     16 C          -1.3278    3.7890    0.0625 C.ar    1  LIG1        0.0336
     17 S          -2.5018    2.4908   -0.0381 S.2     1  LIG1       -0.0833
     18 O           1.1188    1.0908    0.0798 O.3     1  LIG1       -0.4939
     19 C           2.3639    1.7625    0.2129 C.3     1  LIG1        0.0788
     20 H           3.1261    0.9825    0.2360 H       1  LIG1        0.0660
     21 H           2.5544    2.4288   -0.6375 H       1  LIG1        0.0660
     22 H           2.4103    2.3421    1.1430 H       1  LIG1        0.0660
     23 H           0.8241    3.9133    0.1540 H       1  LIG1        0.0666
     24 C          -1.7413    5.1720    0.0899 C.ar    1  LIG1        0.0676
     25 C          -0.9451    6.3123    0.0915 C.ar    1  LIG1        0.1353
     26 C          -1.6861    7.5329    0.1180 C.ar    1  LIG1       -0.0123
     27 C          -3.0368    7.3234    0.1377 C.ar    1  LIG1       -0.0202
     28 S          -3.4332    5.6411    0.1284 S.2     1  LIG1       -0.0924
     29 H          -3.8239    8.0632    0.1595 H       1  LIG1        0.0695
     30 O           0.4141    6.2036    0.0679 O.3     1  LIG1       -0.4939
     31 C           1.1658    7.4100    0.0510 C.3     1  LIG1        0.0788
     32 H           2.2149    7.1126    0.0261 H       1  LIG1        0.0660
     33 H           0.9405    8.0116   -0.8382 H       1  LIG1        0.0660
     34 H           0.9826    8.0102    0.9507 H       1  LIG1        0.0660
     35 H          -1.2399    8.5185    0.1217 H       1  LIG1        0.0660
@<TRIPOS>BOND
     1    11     8    1
     2    33    31    1
     3    21    19    1
     4     9     8    1
     5     7     8    1
     6     7     2    1
     7    12     3    1
     8     8    10    1
     9     3     2   ar
    10     3     4   ar
    11     2     1   ar
    12     4    13    1
    13     4     5   ar
    14    17    13   ar
    15    17    16   ar
    16     1     6    1
    17     1     5   ar
    18    13    14   ar
    19    32    31    1
    20    31    30    1
    21    31    34    1
    22    14    18    1
    23    14    15   ar
    24    16    24    1
    25    16    15   ar
    26    30    25    1
    27    18    19    1
    28    24    25   ar
    29    24    28   ar
    30    25    26   ar
    31    15    23    1
    32    26    35    1
    33    26    27   ar
    34    28    27   ar
    35    27    29    1
    36    19    20    1
    37    19    22    1
