@<TRIPOS>MOLECULE
mol_data/opt/b3lyp/geoms/mol2/5la5la.out
 24 25 0 0 0
SMALL
GASTEIGER

@<TRIPOS>ATOM
      1 C          -2.6331   -2.0543   -0.1008 C.ar    1  LIG1        0.0180
      2 C          -1.2676   -2.1421   -0.2031 C.ar    1  LIG1        0.1277
      3 C          -0.6057   -0.8772   -0.1653 C.ar    1  LIG1       -0.0045
      4 C          -1.4739    0.1819   -0.0322 C.ar    1  LIG1        0.0330
      5 S          -3.1351   -0.3941    0.0570 S.2     1  LIG1       -0.0923
      6 H          -3.3720   -2.8398   -0.1039 H       1  LIG1        0.0730
      7 O          -0.5131   -3.2680   -0.3353 O.3     1  LIG1       -0.4946
      8 C          -1.2221   -4.4960   -0.3709 C.3     1  LIG1        0.0788
      9 H          -0.4738   -5.2822   -0.4798 H       1  LIG1        0.0660
     10 H          -1.7878   -4.6571    0.5564 H       1  LIG1        0.0660
     11 H          -1.9152   -4.5323   -1.2218 H       1  LIG1        0.0660
     12 H           0.4662   -0.7693   -0.2398 H       1  LIG1        0.0666
     13 C          -1.1664    1.5953    0.0407 C.ar    1  LIG1        0.0676
     14 C           0.0782    2.1996    0.1586 C.ar    1  LIG1        0.1353
     15 C           0.0230    3.6269    0.2149 C.ar    1  LIG1       -0.0123
     16 C          -1.2559    4.1027    0.1374 C.ar    1  LIG1       -0.0202
     17 S          -2.4139    2.8283   -0.0134 S.2     1  LIG1       -0.0924
     18 H          -1.5846    5.1318    0.1549 H       1  LIG1        0.0695
     19 O           1.2089    1.4413    0.2129 O.3     1  LIG1       -0.4939
     20 C           2.4451    2.1201    0.3865 C.3     1  LIG1        0.0788
     21 H           3.2120    1.3455    0.4245 H       1  LIG1        0.0660
     22 H           2.6555    2.7944   -0.4531 H       1  LIG1        0.0660
     23 H           2.4625    2.6915    1.3229 H       1  LIG1        0.0660
     24 H           0.8896    4.2678    0.3093 H       1  LIG1        0.0660
@<TRIPOS>BOND
     1    11     8    1
     2     9     8    1
     3    22    20    1
     4     8     7    1
     5     8    10    1
     6     7     2    1
     7    12     3    1
     8     2     3   ar
     9     2     1   ar
    10     3     4   ar
    11     6     1    1
    12     1     5   ar
    13     4    13    1
    14     4     5   ar
    15    17    13   ar
    16    17    16   ar
    17    13    14   ar
    18    16    18    1
    19    16    15   ar
    20    14    19    1
    21    14    15   ar
    22    19    20    1
    23    15    24    1
    24    20    21    1
    25    20    23    1
