@<TRIPOS>MOLECULE
mol_data/opt/b3lyp/geoms/mol2/5la5la-5la5la-.out
 46 49 0 0 0
SMALL
GASTEIGER

@<TRIPOS>ATOM
      1 C          -2.7026   -2.6258    0.2032 C.ar    1  LIG1        0.0180
      2 C          -1.3380   -2.7363    0.1059 C.ar    1  LIG1        0.1277
      3 C          -0.6612   -1.4821    0.0370 C.ar    1  LIG1       -0.0045
      4 C          -1.5172   -0.4027    0.0828 C.ar    1  LIG1        0.0330
      5 S          -3.1861   -0.9523    0.2182 S.2     1  LIG1       -0.0923
      6 H          -3.4501   -3.4003    0.2678 H       1  LIG1        0.0730
      7 O          -0.5971   -3.8794    0.0681 O.3     1  LIG1       -0.4946
      8 C          -1.3213   -5.0966    0.1365 C.3     1  LIG1        0.0788
      9 H          -0.5831   -5.8989    0.0946 H       1  LIG1        0.0660
     10 H          -1.8885   -5.1721    1.0738 H       1  LIG1        0.0660
     11 H          -2.0159   -5.1965   -0.7082 H       1  LIG1        0.0660
     12 H           0.4118   -1.3938   -0.0455 H       1  LIG1        0.0666
     13 C          -1.1972    1.0038    0.0385 C.ar    1  LIG1        0.0682
     14 C           0.0551    1.6080    0.0187 C.ar    1  LIG1        0.1359
     15 C           0.0224    3.0263   -0.0156 C.ar    1  LIG1       -0.0039
     16 C          -1.2615    3.5427   -0.0250 C.ar    1  LIG1        0.0336
     17 S          -2.4406    2.2438   -0.0009 S.2     1  LIG1       -0.0833
     18 O           1.1815    0.8412    0.0372 O.3     1  LIG1       -0.4939
     19 C           2.4318    1.5160    0.0419 C.3     1  LIG1        0.0788
     20 H           3.1950    0.7370    0.0666 H       1  LIG1        0.0660
     21 H           2.5639    2.1237   -0.8619 H       1  LIG1        0.0660
     22 H           2.5393    2.1567    0.9258 H       1  LIG1        0.0660
     23 H           0.8934    3.6624   -0.0291 H       1  LIG1        0.0666
     24 C          -1.6691    4.9220   -0.0555 C.ar    1  LIG1        0.0682
     25 C          -0.8748    6.0613   -0.1541 C.ar    1  LIG1        0.1359
     26 C          -1.5992    7.2813   -0.1666 C.ar    1  LIG1       -0.0039
     27 C          -2.9674    7.1045   -0.0756 C.ar    1  LIG1        0.0336
     28 S          -3.3574    5.3990    0.0412 S.2     1  LIG1       -0.0833
     29 O           0.4814    5.9427   -0.2346 O.3     1  LIG1       -0.4939
     30 C           1.2349    7.1409   -0.3674 C.3     1  LIG1        0.0788
     31 H           2.2806    6.8355   -0.4235 H       1  LIG1        0.0660
     32 H           0.9670    7.6840   -1.2818 H       1  LIG1        0.0660
     33 H           1.0965    7.8002    0.4982 H       1  LIG1        0.0660
     34 H          -1.1543    8.2609   -0.2454 H       1  LIG1        0.0666
     35 C          -4.0008    8.1111   -0.0612 C.ar    1  LIG1        0.0676
     36 C          -3.8587    9.4927    0.0157 C.ar    1  LIG1        0.1353
     37 C          -5.0991   10.1999    0.0193 C.ar    1  LIG1       -0.0123
     38 C          -6.1774    9.3628   -0.0567 C.ar    1  LIG1       -0.0202
     39 S          -5.7068    7.7020   -0.1425 S.2     1  LIG1       -0.0924
     40 H          -7.2247    9.6280   -0.0726 H       1  LIG1        0.0695
     41 O          -2.6180   10.0543    0.0830 O.3     1  LIG1       -0.4939
     42 C          -2.5471   11.4673    0.2240 C.3     1  LIG1        0.0788
     43 H          -1.4860   11.7125    0.2843 H       1  LIG1        0.0660
     44 H          -2.9865   11.9803   -0.6404 H       1  LIG1        0.0660
     45 H          -3.0480   11.8050    1.1395 H       1  LIG1        0.0660
     46 H          -5.1882   11.2767    0.0766 H       1  LIG1        0.0660
@<TRIPOS>BOND
     1    32    30    1
     2    21    19    1
     3    11     8    1
     4    44    42    1
     5    31    30    1
     6    30    29    1
     7    30    33    1
     8    34    26    1
     9    29    25    1
    10    26    25   ar
    11    26    27   ar
    12    25    24   ar
    13    39    35   ar
    14    39    38   ar
    15    27    35    1
    16    27    28   ar
    17    40    38    1
    18    35    36   ar
    19    38    37   ar
    20    24    16    1
    21    24    28   ar
    22    12     3    1
    23    23    15    1
    24    16    15   ar
    25    16    17   ar
    26    15    14   ar
    27    17    13   ar
    28    36    37   ar
    29    36    41    1
    30    14    18    1
    31    14    13   ar
    32    37    46    1
    33     3     4   ar
    34     3     2   ar
    35    18    19    1
    36    13     4    1
    37    19    20    1
    38    19    22    1
    39     7     2    1
    40     7     8    1
    41     4     5   ar
    42    41    42    1
    43     9     8    1
    44     2     1   ar
    45     8    10    1
    46     1     5   ar
    47     1     6    1
    48    42    43    1
    49    42    45    1
