@<TRIPOS>MOLECULE
mol_data/opt/b3lyp/geoms/mol2/5ld.out
 14 14 0 0 0
SMALL
GASTEIGER

@<TRIPOS>ATOM
      1 C          -2.2222   -1.6231    0.0002 C.ar    1  LIG1        0.0187
      2 C          -0.8525   -1.6744   -0.0002 C.ar    1  LIG1        0.1444
      3 C          -0.2485   -0.3616   -0.0002 C.ar    1  LIG1        0.1003
      4 C          -1.1873    0.6427    0.0003 C.ar    1  LIG1       -0.0033
      5 S          -2.7922    0.0217    0.0006 S.2     1  LIG1       -0.1000
      6 H          -2.9281   -2.4387    0.0002 H       1  LIG1        0.0730
      7 H          -1.0029    1.7068    0.0004 H       1  LIG1        0.0707
      8 O          -0.0479   -2.7589   -0.0007 O.3     1  LIG1       -0.4933
      9 C          -0.6915   -4.0281   -0.0008 C.3     1  LIG1        0.0789
     10 H           0.1051   -4.7718   -0.0012 H       1  LIG1        0.0660
     11 H          -1.3128   -4.1547    0.8946 H       1  LIG1        0.0660
     12 H          -1.3133   -4.1543   -0.8959 H       1  LIG1        0.0660
     13 N           2.3066    0.0514   -0.0008 N.1     1  LIG1       -0.1907
     14 C           1.1588   -0.1390   -0.0005 C.1     1  LIG1        0.1034
@<TRIPOS>BOND
     1    12     9    1
     2    10     9    1
     3    13    14    3
     4     9     8    1
     5     9    11    1
     6     8     2    1
     7    14     3    1
     8     2     3   ar
     9     2     1   ar
    10     3     4   ar
    11     1     6    1
    12     1     5   ar
    13     4     7    1
    14     4     5   ar
