@<TRIPOS>MOLECULE
mol_data/opt/b3lyp/geoms/mol2/5le.out
 15 15 0 0 0
SMALL
GASTEIGER

@<TRIPOS>ATOM
      1 C          -2.2235   -1.6306    0.0002 C.ar    1  LIG1        0.0186
      2 C          -0.8542   -1.6638   -0.0003 C.ar    1  LIG1        0.1424
      3 C          -0.2518   -0.3467   -0.0003 C.ar    1  LIG1        0.0732
      4 C          -1.2075    0.6422    0.0003 C.ar    1  LIG1       -0.0053
      5 S          -2.8128    0.0081    0.0008 S.2     1  LIG1       -0.1001
      6 H          -2.9196   -2.4543    0.0004 H       1  LIG1        0.0730
      7 H          -1.0361    1.7087    0.0004 H       1  LIG1        0.0707
      8 O          -0.0430   -2.7487   -0.0008 O.3     1  LIG1       -0.4934
      9 C          -0.6856   -4.0153   -0.0008 C.3     1  LIG1        0.0789
     10 H           0.1090   -4.7620   -0.0012 H       1  LIG1        0.0660
     11 H          -1.3086   -4.1441    0.8937 H       1  LIG1        0.0660
     12 H          -1.3093   -4.1437   -0.8949 H       1  LIG1        0.0660
     13 C           1.1506   -0.1170   -0.0008 C.1     1  LIG1       -0.0655
     14 C           2.3438    0.0835   -0.0012 C.1     1  LIG1       -0.1138
     15 H           3.3950    0.2550   -0.0016 H       1  LIG1        0.1232
@<TRIPOS>BOND
     1    12     9    1
     2    15    14    1
     3    10     9    1
     4    14    13    3
     5     9     8    1
     6     9    11    1
     7     8     2    1
     8    13     3    1
     9     2     3   ar
    10     2     1   ar
    11     3     4   ar
    12     1     6    1
    13     1     5   ar
    14     4     7    1
    15     4     5   ar
