@<TRIPOS>MOLECULE
mol_data/opt/b3lyp/geoms/mol2/5lf.out
 14 14 0 0 0
SMALL
GASTEIGER

@<TRIPOS>ATOM
      1 C          -2.2214   -1.6176    0.0001 C.ar    1  LIG1        0.0211
      2 C          -0.8532   -1.6581   -0.0002 C.ar    1  LIG1        0.1683
      3 C          -0.2584   -0.3441   -0.0001 C.ar    1  LIG1        0.1656
      4 C          -1.1885    0.6552    0.0003 C.ar    1  LIG1        0.0209
      5 S          -2.8116    0.0213    0.0005 S.2     1  LIG1       -0.0976
      6 H          -2.9180   -2.4413    0.0001 H       1  LIG1        0.0731
      7 H          -1.0177    1.7223    0.0004 H       1  LIG1        0.0731
      8 O          -0.0333   -2.7397   -0.0006 O.3     1  LIG1       -0.4909
      9 C          -0.6750   -4.0052   -0.0007 C.3     1  LIG1        0.0790
     10 H           0.1192   -4.7526   -0.0011 H       1  LIG1        0.0660
     11 H          -1.2991   -4.1354    0.8933 H       1  LIG1        0.0660
     12 H          -1.2995   -4.1351   -0.8946 H       1  LIG1        0.0660
     13 O           1.1004   -0.2341   -0.0004 O.3     1  LIG1       -0.5029
     14 H           1.3363    0.7026   -0.0004 H       1  LIG1        0.2923
@<TRIPOS>BOND
     1    12     9    1
     2    10     9    1
     3     9     8    1
     4     9    11    1
     5     8     2    1
     6    13    14    1
     7    13     3    1
     8     2     3   ar
     9     2     1   ar
    10     3     4   ar
    11     1     6    1
    12     1     5   ar
    13     4     7    1
    14     4     5   ar
