@<TRIPOS>MOLECULE
mol_data/opt/b3lyp/geoms/mol2/5lg.out
 14 14 0 0 0
SMALL
GASTEIGER

@<TRIPOS>ATOM
      1 C          -2.2685   -1.6366    0.0002 C.ar    1  LIG1        0.0185
      2 C          -0.8992   -1.6631   -0.0002 C.ar    1  LIG1        0.1402
      3 C          -0.3053   -0.3508   -0.0001 C.ar    1  LIG1        0.0535
      4 C          -1.2468    0.6384    0.0003 C.ar    1  LIG1       -0.0075
      5 S          -2.8632   -0.0023    0.0006 S.2     1  LIG1       -0.1002
      6 H          -2.9585   -2.4656    0.0002 H       1  LIG1        0.0730
      7 H          -1.0898    1.7076    0.0005 H       1  LIG1        0.0705
      8 O          -0.0722   -2.7397   -0.0006 O.3     1  LIG1       -0.4935
      9 C          -0.6941   -4.0167   -0.0007 C.3     1  LIG1        0.0789
     10 H           0.1118   -4.7511   -0.0011 H       1  LIG1        0.0660
     11 H          -1.3150   -4.1537    0.8939 H       1  LIG1        0.0660
     12 H          -1.3155   -4.1534   -0.8951 H       1  LIG1        0.0660
     13 S           1.4668   -0.1880   -0.0006 S.3     1  LIG1       -0.1386
     14 H           1.4775    1.1597   -0.0006 H       1  LIG1        0.1072
@<TRIPOS>BOND
     1    12     9    1
     2    10     9    1
     3     9     8    1
     4     9    11    1
     5     8     2    1
     6    13    14    1
     7    13     3    1
     8     2     3   ar
     9     2     1   ar
    10     3     4   ar
    11     1     6    1
    12     1     5   ar
    13     4     7    1
    14     4     5   ar
