@<TRIPOS>MOLECULE
mol_data/opt/b3lyp/geoms/mol2/5lg5lg5lg5lg-.out
 50 53 0 0 0
SMALL
GASTEIGER

@<TRIPOS>ATOM
      1 C          -1.2673   -2.1665   -1.3404 C.ar    1  LIG1        0.0191
      2 C          -0.0246   -2.0969   -0.7704 C.ar    1  LIG1        0.1408
      3 C           0.2495   -0.8387   -0.1236 C.ar    1  LIG1        0.0619
      4 C          -0.8125    0.0415   -0.2203 C.ar    1  LIG1        0.0462
      5 S          -2.1581   -0.6999   -1.0879 S.2     1  LIG1       -0.0912
      6 H          -1.7155   -2.9876   -1.8777 H       1  LIG1        0.0731
      7 O           0.9465   -3.0438   -0.7663 O.3     1  LIG1       -0.4935
      8 C           0.6534   -4.2563   -1.4453 C.3     1  LIG1        0.0789
      9 H           1.5385   -4.8849   -1.3447 H       1  LIG1        0.0660
     10 H          -0.2090   -4.7641   -0.9947 H       1  LIG1        0.0660
     11 H           0.4501   -4.0760   -2.5087 H       1  LIG1        0.0660
     12 S           1.8575   -0.5793    0.5809 S.3     1  LIG1       -0.1380
     13 H           1.4824    0.3977    1.4352 H       1  LIG1        0.1072
     14 C          -0.9429    1.4208    0.2192 C.ar    1  LIG1        0.0704
     15 C          -0.5680    2.0179    1.4036 C.ar    1  LIG1        0.1491
     16 C          -0.8257    3.4229    1.4728 C.ar    1  LIG1        0.0626
     17 C          -1.4438    3.9150    0.3355 C.ar    1  LIG1        0.0468
     18 S          -1.6498    2.6193   -0.8469 S.2     1  LIG1       -0.0822
     19 O           0.0432    1.3850    2.4598 O.3     1  LIG1       -0.4928
     20 C          -0.8000    0.4950    3.2151 C.3     1  LIG1        0.0789
     21 H          -0.1812    0.1127    4.0278 H       1  LIG1        0.0660
     22 H          -1.6560    1.0398    3.6259 H       1  LIG1        0.0660
     23 H          -1.1496   -0.3352    2.5946 H       1  LIG1        0.0660
     24 S          -0.3020    4.2588    2.9525 S.3     1  LIG1       -0.1380
     25 H          -0.5835    5.5077    2.5316 H       1  LIG1        0.1072
     26 C          -1.9458    5.2395    0.0228 C.ar    1  LIG1        0.0704
     27 C          -2.0780    5.8159   -1.2261 C.ar    1  LIG1        0.1491
     28 C          -2.6831    7.1154   -1.2347 C.ar    1  LIG1        0.0626
     29 C          -3.0297    7.5478    0.0316 C.ar    1  LIG1        0.0468
     30 S          -2.5938    6.3344    1.2357 S.2     1  LIG1       -0.0822
     31 O          -1.7440    5.1709   -2.3850 O.3     1  LIG1       -0.4928
     32 C          -0.4060    5.4164   -2.8530 C.3     1  LIG1        0.0789
     33 H          -0.2566    6.4823   -3.0518 H       1  LIG1        0.0660
     34 H           0.3305    5.0623   -2.1239 H       1  LIG1        0.0660
     35 H          -0.3027    4.8523   -3.7806 H       1  LIG1        0.0660
     36 S          -2.9907    7.8976   -2.7983 S.3     1  LIG1       -0.1380
     37 H          -2.9745    9.1642   -2.3274 H       1  LIG1        0.1072
     38 C          -3.7080    8.7543    0.4711 C.ar    1  LIG1        0.0698
     39 C          -3.5240   10.0669    0.0842 C.ar    1  LIG1        0.1484
     40 C          -4.4002   10.9999    0.7289 C.ar    1  LIG1        0.0542
     41 C          -5.2376   10.3914    1.6216 C.ar    1  LIG1       -0.0069
     42 S          -4.9868    8.6741    1.6738 S.2     1  LIG1       -0.0912
     43 H          -5.9913   10.8429    2.2506 H       1  LIG1        0.0706
     44 O          -2.6140   10.4968   -0.8518 O.3     1  LIG1       -0.4928
     45 C          -1.2509   10.5652   -0.3922 C.3     1  LIG1        0.0789
     46 H          -0.6660   10.9324   -1.2364 H       1  LIG1        0.0660
     47 H          -1.1669   11.2631    0.4468 H       1  LIG1        0.0660
     48 H          -0.8896    9.5767   -0.0927 H       1  LIG1        0.0660
     49 S          -4.2855   12.7264    0.3162 S.3     1  LIG1       -0.1386
     50 H          -5.1430   13.1519    1.2644 H       1  LIG1        0.1072
@<TRIPOS>BOND
     1    35    32    1
     2    33    32    1
     3    32    31    1
     4    32    34    1
     5    36    37    1
     6    36    28    1
     7    11     8    1
     8    31    27    1
     9     6     1    1
    10     8     9    1
    11     8    10    1
    12     8     7    1
    13     1     5   ar
    14     1     2   ar
    15    46    45    1
    16    28    27   ar
    17    28    29   ar
    18    27    26   ar
    19     5     4   ar
    20    44    45    1
    21    44    39    1
    22    18    14   ar
    23    18    17   ar
    24     2     7    1
    25     2     3   ar
    26    45    48    1
    27    45    47    1
    28     4     3   ar
    29     4    14    1
    30     3    12    1
    31    26    17    1
    32    26    30   ar
    33    29    38    1
    34    29    30   ar
    35    39    38   ar
    36    39    40   ar
    37    14    15   ar
    38    49    40    1
    39    49    50    1
    40    17    16   ar
    41    38    42   ar
    42    12    13    1
    43    40    41   ar
    44    15    16   ar
    45    15    19    1
    46    16    24    1
    47    41    42   ar
    48    41    43    1
    49    19    20    1
    50    25    24    1
    51    23    20    1
    52    20    22    1
    53    20    21    1
