@<TRIPOS>MOLECULE
mol_data/opt/b3lyp/geoms/mol2/5lg5lg.out
 26 27 0 0 0
SMALL
GASTEIGER

@<TRIPOS>ATOM
      1 C          -2.1328   -1.8898    0.7998 C.ar    1  LIG1        0.0191
      2 C          -1.1219   -2.0033   -0.1159 C.ar    1  LIG1        0.1408
      3 C          -0.5755   -0.7385   -0.5396 C.ar    1  LIG1        0.0619
      4 C          -1.1975    0.3319    0.0736 C.ar    1  LIG1        0.0462
      5 S          -2.4376   -0.2279    1.1959 S.2     1  LIG1       -0.0912
      6 H          -2.7049   -2.6735    1.2712 H       1  LIG1        0.0731
      7 O          -0.6112   -3.1352   -0.6611 O.3     1  LIG1       -0.4935
      8 C          -1.1946   -4.3606   -0.2429 C.3     1  LIG1        0.0789
      9 H          -0.6684   -5.1494   -0.7810 H       1  LIG1        0.0660
     10 H          -1.0711   -4.5094    0.8376 H       1  LIG1        0.0660
     11 H          -2.2630   -4.3962   -0.4916 H       1  LIG1        0.0660
     12 S           0.6878   -0.7338   -1.7863 S.3     1  LIG1       -0.1380
     13 H           1.1838    0.4856   -1.4852 H       1  LIG1        0.1072
     14 C          -1.0094    1.7628   -0.1082 C.ar    1  LIG1        0.0698
     15 C           0.1494    2.5075   -0.1962 C.ar    1  LIG1        0.1484
     16 C          -0.0661    3.9101   -0.4014 C.ar    1  LIG1        0.0542
     17 C          -1.3938    4.2291   -0.4512 C.ar    1  LIG1       -0.0069
     18 S          -2.3998    2.8258   -0.2666 S.2     1  LIG1       -0.0912
     19 H          -1.8462    5.2016   -0.5818 H       1  LIG1        0.0706
     20 O           1.4311    2.0168   -0.1383 O.3     1  LIG1       -0.4928
     21 C           1.8435    1.4996    1.1404 C.3     1  LIG1        0.0789
     22 H           2.8928    1.2247    1.0276 H       1  LIG1        0.0660
     23 H           1.7427    2.2689    1.9124 H       1  LIG1        0.0660
     24 H           1.2584    0.6173    1.4153 H       1  LIG1        0.0660
     25 S           1.3400    4.9911   -0.5385 S.3     1  LIG1       -0.1386
     26 H           0.6277    6.1334   -0.5985 H       1  LIG1        0.1072
@<TRIPOS>BOND
     1    12    13    1
     2    12     3    1
     3     9     8    1
     4     7     8    1
     5     7     2    1
     6    26    25    1
     7    19    17    1
     8     3     2   ar
     9     3     4   ar
    10    25    16    1
    11    11     8    1
    12    17    16   ar
    13    17    18   ar
    14    16    15   ar
    15    18    14   ar
    16     8    10    1
    17    15    20    1
    18    15    14   ar
    19    20    21    1
    20     2     1   ar
    21    14     4    1
    22     4     5   ar
    23     1     5   ar
    24     1     6    1
    25    22    21    1
    26    21    24    1
    27    21    23    1
