@<TRIPOS>MOLECULE
mol_data/opt/b3lyp/geoms/mol2/5lg5lg-5lg-5lg.out
 50 53 0 0 0
SMALL
GASTEIGER

@<TRIPOS>ATOM
      1 C          -0.2005   -1.7992    2.0866 C.ar    1  LIG1        0.0191
      2 C          -0.5891   -2.2097    0.8401 C.ar    1  LIG1        0.1408
      3 C          -0.8234   -1.1285   -0.0836 C.ar    1  LIG1        0.0619
      4 C          -0.6067    0.1089    0.4941 C.ar    1  LIG1        0.0462
      5 S          -0.0866   -0.0700    2.1714 S.2     1  LIG1       -0.0912
      6 H           0.0354   -2.4016    2.9499 H       1  LIG1        0.0731
      7 O          -0.7881   -3.4778    0.4028 O.3     1  LIG1       -0.4935
      8 C          -0.5903   -4.5155    1.3520 C.3     1  LIG1        0.0789
      9 H          -0.8027   -5.4500    0.8321 H       1  LIG1        0.0660
     10 H           0.4449   -4.5270    1.7166 H       1  LIG1        0.0660
     11 H          -1.2718   -4.4071    2.2054 H       1  LIG1        0.0660
     12 S          -1.4174   -1.5186   -1.7096 S.3     1  LIG1       -0.1380
     13 H          -1.0101   -0.3685   -2.2889 H       1  LIG1        0.1072
     14 C          -0.7926    1.4477   -0.0398 C.ar    1  LIG1        0.0704
     15 C          -0.4440    1.9753   -1.2647 C.ar    1  LIG1        0.1491
     16 C          -0.7798    3.3540   -1.4377 C.ar    1  LIG1        0.0626
     17 C          -1.3961    3.9055   -0.3265 C.ar    1  LIG1        0.0468
     18 S          -1.5420    2.6883    0.9453 S.2     1  LIG1       -0.0822
     19 O           0.1575    1.2829   -2.2880 O.3     1  LIG1       -0.4928
     20 C           1.5514    0.9816   -2.0904 C.3     1  LIG1        0.0789
     21 H           1.8770    0.4600   -2.9913 H       1  LIG1        0.0660
     22 H           2.1255    1.9057   -1.9699 H       1  LIG1        0.0660
     23 H           1.6922    0.3362   -1.2185 H       1  LIG1        0.0660
     24 S          -0.3291    4.1022   -2.9876 S.3     1  LIG1       -0.1380
     25 H          -0.4320    5.3819   -2.5767 H       1  LIG1        0.1072
     26 C          -1.9379    5.2305   -0.0994 C.ar    1  LIG1        0.0704
     27 C          -2.1345    5.8644    1.1140 C.ar    1  LIG1        0.1491
     28 C          -2.7752    7.1431    1.0352 C.ar    1  LIG1        0.0626
     29 C          -3.0837    7.5021   -0.2637 C.ar    1  LIG1        0.0468
     30 S          -2.5603    6.2494   -1.3896 S.2     1  LIG1       -0.0822
     31 O          -1.8299    5.2876    2.3172 O.3     1  LIG1       -0.4928
     32 C          -0.5193    5.5959    2.8221 C.3     1  LIG1        0.0789
     33 H          -0.4441    5.1002    3.7906 H       1  LIG1        0.0660
     34 H           0.2547    5.2089    2.1505 H       1  LIG1        0.0660
     35 H          -0.3987    6.6760    2.9515 H       1  LIG1        0.0660
     36 S          -3.1684    7.9898    2.5455 S.3     1  LIG1       -0.1380
     37 H          -3.1771    9.2316    2.0119 H       1  LIG1        0.1072
     38 C          -3.7859    8.6599   -0.7880 C.ar    1  LIG1        0.0698
     39 C          -3.6687    9.9955   -0.4571 C.ar    1  LIG1        0.1484
     40 C          -4.5518   10.8618   -1.1803 C.ar    1  LIG1        0.0542
     41 C          -5.3269   10.1796   -2.0761 C.ar    1  LIG1       -0.0069
     42 S          -5.0090    8.4734   -2.0361 S.2     1  LIG1       -0.0912
     43 H          -6.0697   10.5711   -2.7561 H       1  LIG1        0.0706
     44 O          -2.8152   10.5051    0.4925 O.3     1  LIG1       -0.4928
     45 C          -1.4376   10.6002    0.0854 C.3     1  LIG1        0.0789
     46 H          -0.9022   11.0355    0.9302 H       1  LIG1        0.0660
     47 H          -1.0290    9.6109   -0.1427 H       1  LIG1        0.0660
     48 H          -1.3433   11.2533   -0.7878 H       1  LIG1        0.0660
     49 S          -4.5212   12.6089   -0.8467 S.3     1  LIG1       -0.1386
     50 H          -5.3608   12.9538   -1.8426 H       1  LIG1        0.1072
@<TRIPOS>BOND
     1    21    20    1
     2    24    25    1
     3    24    16    1
     4    43    41    1
     5    13    12    1
     6    19    20    1
     7    19    15    1
     8    20    22    1
     9    20    23    1
    10    41    42   ar
    11    41    40   ar
    12    42    38   ar
    13    50    49    1
    14    12     3    1
    15    16    15   ar
    16    16    17   ar
    17    30    29   ar
    18    30    26   ar
    19    15    14   ar
    20    40    49    1
    21    40    39   ar
    22    38    39   ar
    23    38    29    1
    24    48    45    1
    25    39    44    1
    26    17    26    1
    27    17    18   ar
    28    29    28   ar
    29    47    45    1
    30    26    27   ar
    31     3     4   ar
    32     3     2   ar
    33    14     4    1
    34    14    18   ar
    35    45    44    1
    36    45    46    1
    37     7     2    1
    38     7     8    1
    39     4     5   ar
    40     9     8    1
    41     2     1   ar
    42    28    27   ar
    43    28    36    1
    44    27    31    1
    45     8    10    1
    46     8    11    1
    47    37    36    1
    48     1     5   ar
    49     1     6    1
    50    34    32    1
    51    31    32    1
    52    32    35    1
    53    32    33    1
