@<TRIPOS>MOLECULE
mol_data/opt/b3lyp/geoms/mol2/5lg5lg-5lg-5lg-.out
 50 53 0 0 0
SMALL
GASTEIGER

@<TRIPOS>ATOM
      1 C          -1.2987   -2.1755    0.8338 C.ar    1  LIG1        0.0191
      2 C          -0.0060   -1.9855    0.4257 C.ar    1  LIG1        0.1408
      3 C           0.2730   -0.6431   -0.0171 C.ar    1  LIG1        0.0619
      4 C          -0.8359    0.1786    0.0682 C.ar    1  LIG1        0.0462
      5 S          -2.2297   -0.7210    0.6706 S.2     1  LIG1       -0.0912
      6 H          -1.7610   -3.0765    1.2059 H       1  LIG1        0.0731
      7 O           1.0073   -2.8870    0.4121 O.3     1  LIG1       -0.4935
      8 C           0.7043   -4.1902    0.8889 C.3     1  LIG1        0.0789
      9 H           1.6256   -4.7674    0.8080 H       1  LIG1        0.0660
     10 H           0.3789   -4.1631    1.9367 H       1  LIG1        0.0660
     11 H          -0.0779   -4.6623    0.2806 H       1  LIG1        0.0660
     12 S           1.9352   -0.2368   -0.4895 S.3     1  LIG1       -0.1380
     13 H           1.6112    0.8425   -1.2323 H       1  LIG1        0.1072
     14 C          -0.9883    1.5992   -0.2003 C.ar    1  LIG1        0.0704
     15 C          -0.5299    2.3624   -1.2522 C.ar    1  LIG1        0.1491
     16 C          -0.8566    3.7547   -1.1663 C.ar    1  LIG1        0.0626
     17 C          -1.6016    4.0646   -0.0393 C.ar    1  LIG1        0.0468
     18 S          -1.8718    2.6112    0.9262 S.2     1  LIG1       -0.0822
     19 O           0.2169    1.8861   -2.3066 O.3     1  LIG1       -0.4928
     20 C          -0.5020    1.0540   -3.2387 C.3     1  LIG1        0.0789
     21 H          -0.8612    0.1440   -2.7508 H       1  LIG1        0.0660
     22 H          -1.3456    1.6046   -3.6672 H       1  LIG1        0.0660
     23 H           0.2104    0.7947   -4.0230 H       1  LIG1        0.0660
     24 S          -0.3237    4.9000   -2.4167 S.3     1  LIG1       -0.1380
     25 H           0.4419    3.9817   -3.0419 H       1  LIG1        0.1072
     26 C          -2.1704    5.3243    0.3873 C.ar    1  LIG1        0.0704
     27 C          -2.6308    5.6577    1.6489 C.ar    1  LIG1        0.1491
     28 C          -3.1765    6.9717    1.7549 C.ar    1  LIG1        0.0626
     29 C          -3.1372    7.6723    0.5608 C.ar    1  LIG1        0.0468
     30 S          -2.4087    6.6776   -0.7004 S.2     1  LIG1       -0.0822
     31 O          -2.6194    4.7910    2.7108 O.3     1  LIG1       -0.4928
     32 C          -1.4449    4.8692    3.5419 C.3     1  LIG1        0.0789
     33 H          -0.5455    4.6286    2.9660 H       1  LIG1        0.0660
     34 H          -1.3508    5.8652    3.9851 H       1  LIG1        0.0660
     35 H          -1.5838    4.1275    4.3293 H       1  LIG1        0.0660
     36 S          -3.8146    7.4757    3.3381 S.3     1  LIG1       -0.1380
     37 H          -3.7661    8.8027    3.1065 H       1  LIG1        0.1072
     38 C          -3.6184    8.9964    0.2158 C.ar    1  LIG1        0.0698
     39 C          -3.1482    9.8310   -0.7827 C.ar    1  LIG1        0.1484
     40 C          -3.8964   11.0425   -0.9408 C.ar    1  LIG1        0.0542
     41 C          -4.9373   11.1286   -0.0601 C.ar    1  LIG1       -0.0069
     42 S          -5.0317    9.7317    0.9682 S.2     1  LIG1       -0.0912
     43 H          -5.6580   11.9252    0.0563 H       1  LIG1        0.0706
     44 O          -2.0995    9.5298   -1.6104 O.3     1  LIG1       -0.4928
     45 C          -0.8019    9.8761   -1.0949 C.3     1  LIG1        0.0789
     46 H          -0.0864    9.6065   -1.8726 H       1  LIG1        0.0660
     47 H          -0.7396   10.9504   -0.8915 H       1  LIG1        0.0660
     48 H          -0.5815    9.3108   -0.1836 H       1  LIG1        0.0660
     49 S          -3.4171   12.2031   -2.2006 S.3     1  LIG1       -0.1386
     50 H          -4.2617   13.1802   -1.8168 H       1  LIG1        0.1072
@<TRIPOS>BOND
     1    23    20    1
     2    22    20    1
     3    20    21    1
     4    20    19    1
     5    25    24    1
     6    24    16    1
     7    19    15    1
     8    49    50    1
     9    49    40    1
    10    46    45    1
    11    44    45    1
    12    44    39    1
    13    15    16   ar
    14    15    14   ar
    15    13    12    1
    16    16    17   ar
    17    45    47    1
    18    45    48    1
    19    40    39   ar
    20    40    41   ar
    21    39    38   ar
    22    30    26   ar
    23    30    29   ar
    24    12     3    1
    25    14     4    1
    26    14    18   ar
    27    41    43    1
    28    41    42   ar
    29    17    26    1
    30    17    18   ar
    31     3     4   ar
    32     3     2   ar
    33     4     5   ar
    34    38    29    1
    35    38    42   ar
    36    11     8    1
    37    26    27   ar
    38     7     2    1
    39     7     8    1
    40     2     1   ar
    41    29    28   ar
    42     5     1   ar
    43     9     8    1
    44     1     6    1
    45     8    10    1
    46    27    28   ar
    47    27    31    1
    48    28    36    1
    49    31    32    1
    50    33    32    1
    51    37    36    1
    52    32    34    1
    53    32    35    1
