@<TRIPOS>MOLECULE
mol_data/opt/b3lyp/geoms/mol2/5lg5lg5lg.out
 38 40 0 0 0
SMALL
GASTEIGER

@<TRIPOS>ATOM
      1 C          -1.9943   -1.8409   -1.4247 C.ar    1  LIG1        0.0191
      2 C          -1.3704   -2.1361   -0.2428 C.ar    1  LIG1        0.1408
      3 C          -0.8614   -0.9808    0.4533 C.ar    1  LIG1        0.0619
      4 C          -1.1191    0.1941   -0.2277 C.ar    1  LIG1        0.0462
      5 S          -1.9638   -0.1356   -1.7420 S.2     1  LIG1       -0.0912
      6 H          -2.4545   -2.5155   -2.1296 H       1  LIG1        0.0731
      7 O          -1.2028   -3.3535    0.3304 O.3     1  LIG1       -0.4935
      8 C          -1.7470   -4.4642   -0.3675 C.3     1  LIG1        0.0789
      9 H          -1.5239   -5.3441    0.2363 H       1  LIG1        0.0660
     10 H          -2.8338   -4.3652   -0.4844 H       1  LIG1        0.0660
     11 H          -1.2866   -4.5738   -1.3579 H       1  LIG1        0.0660
     12 S          -0.1057   -1.2132    2.0412 S.3     1  LIG1       -0.1380
     13 H           0.6168   -0.0722    2.0181 H       1  LIG1        0.1072
     14 C          -0.8547    1.5783    0.1309 C.ar    1  LIG1        0.0704
     15 C           0.2771    2.1639    0.6579 C.ar    1  LIG1        0.1491
     16 C           0.1816    3.5778    0.8767 C.ar    1  LIG1        0.0626
     17 C          -1.0466    4.0894    0.5009 C.ar    1  LIG1        0.0468
     18 S          -2.0772    2.8079   -0.1327 S.2     1  LIG1       -0.0822
     19 O           1.4115    1.4743    1.0079 O.3     1  LIG1       -0.4928
     20 C           2.3164    1.1996   -0.0762 C.3     1  LIG1        0.0789
     21 H           3.1489    0.6443    0.3577 H       1  LIG1        0.0660
     22 H           1.8280    0.5933   -0.8456 H       1  LIG1        0.0660
     23 H           2.6837    2.1349   -0.5102 H       1  LIG1        0.0660
     24 S           1.5574    4.4120    1.6285 S.3     1  LIG1       -0.1380
     25 H           1.2782    5.6333    1.1216 H       1  LIG1        0.1072
     26 C          -1.5814    5.4372    0.6009 C.ar    1  LIG1        0.0698
     27 C          -0.9982    6.6496    0.2918 C.ar    1  LIG1        0.1484
     28 C          -1.8352    7.7864    0.5394 C.ar    1  LIG1        0.0542
     29 C          -3.0633    7.4293    1.0215 C.ar    1  LIG1       -0.0069
     30 S          -3.2116    5.7086    1.1977 S.2     1  LIG1       -0.0912
     31 H          -3.8926    8.0696    1.2861 H       1  LIG1        0.0706
     32 O           0.2782    6.8232   -0.1874 O.3     1  LIG1       -0.4928
     33 C           0.4787    6.4311   -1.5582 C.3     1  LIG1        0.0789
     34 H          -0.1851    6.9987   -2.2179 H       1  LIG1        0.0660
     35 H           1.5181    6.6672   -1.7897 H       1  LIG1        0.0660
     36 H           0.3044    5.3589   -1.6880 H       1  LIG1        0.0660
     37 S          -1.2097    9.4155    0.1948 S.3     1  LIG1       -0.1386
     38 H          -2.3672   10.0609    0.4382 H       1  LIG1        0.1072
@<TRIPOS>BOND
     1    34    33    1
     2     6     1    1
     3    35    33    1
     4     5     1   ar
     5     5     4   ar
     6    36    33    1
     7    33    32    1
     8     1     2   ar
     9    11     8    1
    10    22    20    1
    11    23    20    1
    12    10     8    1
    13     8     9    1
    14     8     7    1
    15     2     7    1
    16     2     3   ar
    17     4    14    1
    18     4     3   ar
    19    32    27    1
    20    18    14   ar
    21    18    17   ar
    22    20    21    1
    23    20    19    1
    24    14    15   ar
    25    37    38    1
    26    37    28    1
    27    27    28   ar
    28    27    26   ar
    29     3    12    1
    30    17    26    1
    31    17    16   ar
    32    28    29   ar
    33    26    30   ar
    34    15    16   ar
    35    15    19    1
    36    16    24    1
    37    29    30   ar
    38    29    31    1
    39    25    24    1
    40    13    12    1
