@<TRIPOS>MOLECULE
mol_data/opt/b3lyp/geoms/mol2/5lg5lg5lg5lg.out
 50 53 0 0 0
SMALL
GASTEIGER

@<TRIPOS>ATOM
      1 C          -1.3076   -2.1458   -1.4359 C.ar    1  LIG1        0.0191
      2 C          -0.0498   -2.0849   -0.8989 C.ar    1  LIG1        0.1408
      3 C           0.2424   -0.8368   -0.2408 C.ar    1  LIG1        0.0619
      4 C          -0.8214    0.0449   -0.2952 C.ar    1  LIG1        0.0462
      5 S          -2.1905   -0.6831   -1.1371 S.2     1  LIG1       -0.0912
      6 H          -1.7706   -2.9587   -1.9732 H       1  LIG1        0.0731
      7 O           0.9206   -3.0318   -0.9356 O.3     1  LIG1       -0.4935
      8 C           0.6083   -4.2343   -1.6239 C.3     1  LIG1        0.0789
      9 H           1.4954   -4.8645   -1.5565 H       1  LIG1        0.0660
     10 H          -0.2419   -4.7483   -1.1572 H       1  LIG1        0.0660
     11 H           0.3762   -4.0386   -2.6786 H       1  LIG1        0.0660
     12 S           1.8690   -0.5883    0.4240 S.3     1  LIG1       -0.1380
     13 H           1.5177    0.3761    1.3023 H       1  LIG1        0.1072
     14 C          -0.9390    1.4175    0.1683 C.ar    1  LIG1        0.0704
     15 C          -0.5321    1.9964    1.3512 C.ar    1  LIG1        0.1491
     16 C          -0.7869    3.4004    1.4485 C.ar    1  LIG1        0.0626
     17 C          -1.4350    3.9097    0.3358 C.ar    1  LIG1        0.0468
     18 S          -1.6735    2.6322   -0.8601 S.2     1  LIG1       -0.0822
     19 O           0.1069    1.3476    2.3808 O.3     1  LIG1       -0.4928
     20 C          -0.7161    0.4460    3.1448 C.3     1  LIG1        0.0789
     21 H          -0.0760    0.0518    3.9350 H       1  LIG1        0.0660
     22 H          -1.5608    0.9843    3.5863 H       1  LIG1        0.0660
     23 H          -1.0820   -0.3749    2.5214 H       1  LIG1        0.0660
     24 S          -0.2233    4.2135    2.9261 S.3     1  LIG1       -0.1380
     25 H          -0.5138    5.4689    2.5313 H       1  LIG1        0.1072
     26 C          -1.9442    5.2390    0.0567 C.ar    1  LIG1        0.0704
     27 C          -2.1100    5.8340   -1.1794 C.ar    1  LIG1        0.1491
     28 C          -2.7142    7.1337   -1.1521 C.ar    1  LIG1        0.0626
     29 C          -3.0257    7.5473    0.1294 C.ar    1  LIG1        0.0468
     30 S          -2.5581    6.3159    1.3030 S.2     1  LIG1       -0.0822
     31 O          -1.8080    5.2063   -2.3565 O.3     1  LIG1       -0.4928
     32 C          -0.4831    5.4585   -2.8571 C.3     1  LIG1        0.0789
     33 H          -0.4055    4.9080   -3.7953 H       1  LIG1        0.0660
     34 H          -0.3386    6.5272   -3.0443 H       1  LIG1        0.0660
     35 H           0.2728    5.0936   -2.1536 H       1  LIG1        0.0660
     36 S          -3.0638    7.9393   -2.6949 S.3     1  LIG1       -0.1380
     37 H          -3.0333    9.1987   -2.2058 H       1  LIG1        0.1072
     38 C          -3.6910    8.7473    0.6052 C.ar    1  LIG1        0.0698
     39 C          -3.5160   10.0654    0.2332 C.ar    1  LIG1        0.1484
     40 C          -4.3735   10.9892    0.9153 C.ar    1  LIG1        0.0542
     41 C          -5.1872   10.3679    1.8210 C.ar    1  LIG1       -0.0069
     42 S          -4.9368    8.6499    1.8407 S.2     1  LIG1       -0.0912
     43 H          -5.9231   10.8104    2.4769 H       1  LIG1        0.0706
     44 O          -2.6311   10.5085   -0.7205 O.3     1  LIG1       -0.4928
     45 C          -1.2562   10.5697   -0.2966 C.3     1  LIG1        0.0789
     46 H          -0.6938   10.9490   -1.1506 H       1  LIG1        0.0660
     47 H          -1.1493   11.2551    0.5500 H       1  LIG1        0.0660
     48 H          -0.8878    9.5767   -0.0214 H       1  LIG1        0.0660
     49 S          -4.2683   12.7217    0.5256 S.3     1  LIG1       -0.1386
     50 H          -5.0991   13.1334    1.5032 H       1  LIG1        0.1072
@<TRIPOS>BOND
     1    33    32    1
     2    34    32    1
     3    32    31    1
     4    32    35    1
     5    36    37    1
     6    36    28    1
     7    11     8    1
     8    31    27    1
     9     6     1    1
    10     8     9    1
    11     8    10    1
    12     8     7    1
    13     1     5   ar
    14     1     2   ar
    15    27    28   ar
    16    27    26   ar
    17    28    29   ar
    18    46    45    1
    19     5     4   ar
    20     7     2    1
    21     2     3   ar
    22    18    14   ar
    23    18    17   ar
    24    44    45    1
    25    44    39    1
    26    45    48    1
    27    45    47    1
    28     4     3   ar
    29     4    14    1
    30     3    12    1
    31    26    17    1
    32    26    30   ar
    33    29    38    1
    34    29    30   ar
    35    14    15   ar
    36    39    38   ar
    37    39    40   ar
    38    17    16   ar
    39    12    13    1
    40    49    40    1
    41    49    50    1
    42    38    42   ar
    43    40    41   ar
    44    15    16   ar
    45    15    19    1
    46    16    24    1
    47    41    42   ar
    48    41    43    1
    49    19    20    1
    50    23    20    1
    51    25    24    1
    52    20    22    1
    53    20    21    1
