@<TRIPOS>MOLECULE
mol_data/opt/b3lyp/geoms/mol2/5lg5lg-.out
 26 27 0 0 0
SMALL
GASTEIGER

@<TRIPOS>ATOM
      1 C          -2.0812   -1.9086    0.8456 C.ar    1  LIG1        0.0191
      2 C          -1.0936   -2.0134   -0.0963 C.ar    1  LIG1        0.1408
      3 C          -0.5751   -0.7436   -0.5398 C.ar    1  LIG1        0.0619
      4 C          -1.1945    0.3215    0.0852 C.ar    1  LIG1        0.0462
      5 S          -2.3970   -0.2490    1.2424 S.2     1  LIG1       -0.0912
      6 H          -2.6304   -2.6975    1.3352 H       1  LIG1        0.0731
      7 O          -0.5828   -3.1411   -0.6499 O.3     1  LIG1       -0.4935
      8 C          -1.1402   -4.3719   -0.2123 C.3     1  LIG1        0.0789
      9 H          -0.6187   -5.1563   -0.7613 H       1  LIG1        0.0660
     10 H          -0.9867   -4.5151    0.8650 H       1  LIG1        0.0660
     11 H          -2.2142   -4.4212   -0.4329 H       1  LIG1        0.0660
     12 S           0.6546   -0.7281   -1.8195 S.3     1  LIG1       -0.1380
     13 H           1.1430    0.4985   -1.5362 H       1  LIG1        0.1072
     14 C          -1.0297    1.7539   -0.1077 C.ar    1  LIG1        0.0698
     15 C           0.1167    2.5129   -0.2289 C.ar    1  LIG1        0.1484
     16 C          -0.1221    3.9116   -0.4346 C.ar    1  LIG1        0.0542
     17 C          -1.4548    4.2133   -0.4515 C.ar    1  LIG1       -0.0069
     18 S          -2.4374    2.7982   -0.2347 S.2     1  LIG1       -0.0912
     19 H          -1.9229    5.1794   -0.5746 H       1  LIG1        0.0706
     20 O           1.4057    2.0390   -0.2023 O.3     1  LIG1       -0.4928
     21 C           1.8578    1.5329    1.0675 C.3     1  LIG1        0.0789
     22 H           2.9073    1.2708    0.9285 H       1  LIG1        0.0660
     23 H           1.7674    2.3045    1.8386 H       1  LIG1        0.0660
     24 H           1.2914    0.6447    1.3614 H       1  LIG1        0.0660
     25 S           1.2659    5.0100   -0.6130 S.3     1  LIG1       -0.1386
     26 H           0.5376    6.1429   -0.6578 H       1  LIG1        0.1072
@<TRIPOS>BOND
     1    12    13    1
     2    12     3    1
     3     9     8    1
     4    26    25    1
     5     7     8    1
     6     7     2    1
     7    25    16    1
     8    19    17    1
     9     3     2   ar
    10     3     4   ar
    11    17    16   ar
    12    17    18   ar
    13    16    15   ar
    14    11     8    1
    15    18    14   ar
    16    15    20    1
    17    15    14   ar
    18     8    10    1
    19    20    21    1
    20    14     4    1
    21     2     1   ar
    22     4     5   ar
    23     1     5   ar
    24     1     6    1
    25    22    21    1
    26    21    24    1
    27    21    23    1
