@<TRIPOS>MOLECULE
mol_data/opt/b3lyp/geoms/mol2/5lg5lg-5lg-.out
 38 40 0 0 0
SMALL
GASTEIGER

@<TRIPOS>ATOM
      1 C          -1.8753   -1.9292    1.2666 C.ar    1  LIG1        0.0191
      2 C          -1.2447   -2.1613    0.0742 C.ar    1  LIG1        0.1408
      3 C          -0.7684   -0.9664   -0.5767 C.ar    1  LIG1        0.0619
      4 C          -1.0576    0.1738    0.1492 C.ar    1  LIG1        0.0462
      5 S          -1.8914   -0.2373    1.6495 S.2     1  LIG1       -0.0912
      6 H          -2.3159   -2.6430    1.9449 H       1  LIG1        0.0731
      7 O          -1.0443   -3.3506   -0.5456 O.3     1  LIG1       -0.4935
      8 C          -1.5581   -4.5018    0.1083 C.3     1  LIG1        0.0789
      9 H          -1.3120   -5.3512   -0.5293 H       1  LIG1        0.0660
     10 H          -1.0942   -4.6376    1.0938 H       1  LIG1        0.0660
     11 H          -2.6470   -4.4364    0.2286 H       1  LIG1        0.0660
     12 S          -0.0084   -1.1162   -2.1726 S.3     1  LIG1       -0.1380
     13 H           0.6833    0.0420   -2.1050 H       1  LIG1        0.1072
     14 C          -0.8316    1.5776   -0.1559 C.ar    1  LIG1        0.0704
     15 C           0.2834    2.2136   -0.6596 C.ar    1  LIG1        0.1491
     16 C           0.1492    3.6318   -0.8238 C.ar    1  LIG1        0.0626
     17 C          -1.0921    4.0949   -0.4287 C.ar    1  LIG1        0.0468
     18 S          -2.0869    2.7622    0.1548 S.2     1  LIG1       -0.0822
     19 O           1.4358    1.5693   -1.0358 O.3     1  LIG1       -0.4928
     20 C           2.3482    1.2760    0.0372 C.3     1  LIG1        0.0789
     21 H           3.1949    0.7605   -0.4178 H       1  LIG1        0.0660
     22 H           2.6909    2.2029    0.5079 H       1  LIG1        0.0660
     23 H           1.8764    0.6273    0.7819 H       1  LIG1        0.0660
     24 S           1.5012    4.5315   -1.5425 S.3     1  LIG1       -0.1380
     25 H           1.1885    5.7245   -0.9897 H       1  LIG1        0.1072
     26 C          -1.6637    5.4303   -0.4769 C.ar    1  LIG1        0.0698
     27 C          -1.1137    6.6456   -0.1217 C.ar    1  LIG1        0.1484
     28 C          -1.9818    7.7676   -0.3254 C.ar    1  LIG1        0.0542
     29 C          -3.2003    7.3957   -0.8206 C.ar    1  LIG1       -0.0069
     30 S          -3.3015    5.6795   -1.0626 S.2     1  LIG1       -0.0912
     31 H          -4.0472    8.0225   -1.0603 H       1  LIG1        0.0706
     32 O           0.1581    6.8358    0.3637 O.3     1  LIG1       -0.4928
     33 C           0.3706    6.3977    1.7187 C.3     1  LIG1        0.0789
     34 H          -0.3075    6.9219    2.3994 H       1  LIG1        0.0660
     35 H           0.2253    5.3171    1.8079 H       1  LIG1        0.0660
     36 H           1.4036    6.6527    1.9588 H       1  LIG1        0.0660
     37 S          -1.4008    9.3990    0.0812 S.3     1  LIG1       -0.1386
     38 H          -2.5753   10.0215   -0.1391 H       1  LIG1        0.1072
@<TRIPOS>BOND
     1    12    13    1
     2    12     3    1
     3    24    25    1
     4    24    16    1
     5    30    29   ar
     6    30    26   ar
     7    31    29    1
     8    19    15    1
     9    19    20    1
    10    16    15   ar
    11    16    17   ar
    12    29    28   ar
    13    15    14   ar
    14     3     2   ar
    15     3     4   ar
    16     7     2    1
    17     7     8    1
    18     9     8    1
    19    26    17    1
    20    26    27   ar
    21    17    18   ar
    22    21    20    1
    23    28    27   ar
    24    28    37    1
    25    14     4    1
    26    14    18   ar
    27    38    37    1
    28    27    32    1
    29    20    22    1
    30    20    23    1
    31     2     1   ar
    32     8    11    1
    33     8    10    1
    34     4     5   ar
    35    32    33    1
    36     1     5   ar
    37     1     6    1
    38    33    35    1
    39    33    36    1
    40    33    34    1
