@<TRIPOS>MOLECULE
mol_data/opt/b3lyp/geoms/mol2/5lh.out
 15 15 0 0 0
SMALL
GASTEIGER

@<TRIPOS>ATOM
      1 C          -2.2463   -1.6172    0.0305 C.ar    1  LIG1        0.0193
      2 C          -0.8800   -1.6414   -0.0081 C.ar    1  LIG1        0.1476
      3 C          -0.2725   -0.3324   -0.0394 C.ar    1  LIG1        0.0739
      4 C          -1.2167    0.6579   -0.0309 C.ar    1  LIG1        0.0000
      5 S          -2.8388    0.0191    0.0286 S.2     1  LIG1       -0.0995
      6 H          -2.9358   -2.4465    0.0524 H       1  LIG1        0.0731
      7 H          -1.0556    1.7263   -0.0362 H       1  LIG1        0.0713
      8 O          -0.0419   -2.7186   -0.0378 O.3     1  LIG1       -0.4927
      9 C          -0.6616   -3.9954   -0.0218 C.3     1  LIG1        0.0789
     10 H           0.1424   -4.7320   -0.0507 H       1  LIG1        0.0660
     11 H          -1.2531   -4.1355    0.8920 H       1  LIG1        0.0660
     12 H          -1.3139   -4.1302   -0.8946 H       1  LIG1        0.0660
     13 N           1.1177   -0.1920   -0.0134 N.pl3   1  LIG1       -0.3547
     14 H           1.5954   -1.0105   -0.3698 H       1  LIG1        0.1424
     15 H           1.4583    0.6551   -0.4482 H       1  LIG1        0.1424
@<TRIPOS>BOND
     1    12     9    1
     2    15    13    1
     3    14    13    1
     4    10     9    1
     5     3     4   ar
     6     3    13    1
     7     3     2   ar
     8     8     9    1
     9     8     2    1
    10     7     4    1
    11     4     5   ar
    12     9    11    1
    13     2     1   ar
    14     5     1   ar
    15     1     6    1
