@<TRIPOS>MOLECULE
mol_data/opt/b3lyp/geoms/mol2/5lh5lh-5lh5lh.out
 54 57 0 0 0
SMALL
GASTEIGER

@<TRIPOS>ATOM
      1 C          -0.2434   -1.4216    2.7767 C.ar    1  LIG1        0.0199
      2 C          -0.5297   -1.9598    1.5559 C.ar    1  LIG1        0.1482
      3 C          -0.6461   -0.9918    0.4922 C.ar    1  LIG1        0.0824
      4 C          -0.4476    0.3046    0.9468 C.ar    1  LIG1        0.0538
      5 S          -0.0732    0.3061    2.6788 S.2     1  LIG1       -0.0904
      6 H          -0.1009   -1.9274    3.7190 H       1  LIG1        0.0731
      7 O          -0.7417   -3.2664    1.2256 O.3     1  LIG1       -0.4927
      8 C          -0.6699   -4.2016    2.2913 C.3     1  LIG1        0.0789
      9 H          -0.8719   -5.1820    1.8580 H       1  LIG1        0.0660
     10 H           0.3277   -4.2036    2.7490 H       1  LIG1        0.0660
     11 H          -1.4179   -3.9805    3.0638 H       1  LIG1        0.0660
     12 N          -0.9000   -1.4183   -0.7922 N.pl3   1  LIG1       -0.3542
     13 H          -1.4106   -2.2843   -0.8745 H       1  LIG1        0.1425
     14 H          -1.0614   -0.7112   -1.4946 H       1  LIG1        0.1425
     15 C          -0.5744    1.5616    0.2408 C.ar    1  LIG1        0.0718
     16 C          -0.3877    1.8616   -1.0931 C.ar    1  LIG1        0.1565
     17 C          -0.6023    3.2318   -1.4467 C.ar    1  LIG1        0.0831
     18 C          -0.9721    4.0104   -0.3605 C.ar    1  LIG1        0.0544
     19 S          -1.0426    3.0196    1.1052 S.2     1  LIG1       -0.0814
     20 O          -0.0271    0.9620   -2.0806 O.3     1  LIG1       -0.4921
     21 C           1.3815    0.6711   -2.1228 C.3     1  LIG1        0.0789
     22 H           1.5292   -0.0124   -2.9610 H       1  LIG1        0.0660
     23 H           1.9554    1.5894   -2.2851 H       1  LIG1        0.0660
     24 H           1.7054    0.1879   -1.1962 H       1  LIG1        0.0660
     25 N          -0.3414    3.6477   -2.7443 N.pl3   1  LIG1       -0.3542
     26 H          -0.5069    2.9358   -3.4427 H       1  LIG1        0.1425
     27 H          -0.6673    4.5672   -3.0039 H       1  LIG1        0.1425
     28 C          -1.3201    5.4101   -0.3191 C.ar    1  LIG1        0.0719
     29 C          -1.2290    6.2936    0.7343 C.ar    1  LIG1        0.1565
     30 C          -1.6975    7.6236    0.4693 C.ar    1  LIG1        0.0831
     31 C          -2.1744    7.7683   -0.8243 C.ar    1  LIG1        0.0544
     32 S          -2.0753    6.2260   -1.6875 S.2     1  LIG1       -0.0814
     33 O          -0.7434    5.9717    1.9827 O.3     1  LIG1       -0.4921
     34 C           0.6846    6.0874    2.1023 C.3     1  LIG1        0.0789
     35 H           0.9262    5.8471    3.1394 H       1  LIG1        0.0660
     36 H           1.1894    5.3790    1.4377 H       1  LIG1        0.0660
     37 H           1.0124    7.1072    1.8713 H       1  LIG1        0.0660
     38 N          -1.5580    8.6124    1.4280 N.pl3   1  LIG1       -0.3542
     39 H          -1.4771    8.2289    2.3616 H       1  LIG1        0.1425
     40 H          -2.2307    9.3687    1.3516 H       1  LIG1        0.1425
     41 C          -2.6592    8.9510   -1.4979 C.ar    1  LIG1        0.0713
     42 C          -3.3613   10.0231   -0.9882 C.ar    1  LIG1        0.1559
     43 C          -3.6625   11.0603   -1.9344 C.ar    1  LIG1        0.0746
     44 C          -3.1909   10.7606   -3.1842 C.ar    1  LIG1        0.0006
     45 S          -2.3576    9.2269   -3.2097 S.2     1  LIG1       -0.0905
     46 H          -3.2978   11.3313   -4.0953 H       1  LIG1        0.0713
     47 O          -3.7664   10.1471    0.3308 O.3     1  LIG1       -0.4921
     48 C          -5.0372    9.5283    0.6045 C.3     1  LIG1        0.0789
     49 H          -5.2465    9.7058    1.6615 H       1  LIG1        0.0660
     50 H          -5.8226    9.9817   -0.0091 H       1  LIG1        0.0660
     51 H          -4.9931    8.4517    0.4119 H       1  LIG1        0.0660
     52 N          -4.4294   12.1655   -1.5481 N.pl3   1  LIG1       -0.3547
     53 H          -4.2897   12.3961   -0.5710 H       1  LIG1        0.1424
     54 H          -4.3026   12.9794   -2.1354 H       1  LIG1        0.1424
@<TRIPOS>BOND
     1    46    44    1
     2    26    25    1
     3    45    44   ar
     4    45    41   ar
     5    44    43   ar
     6    27    25    1
     7    22    21    1
     8    25    17    1
     9    23    21    1
    10    54    52    1
    11    21    20    1
    12    21    24    1
    13    20    16    1
    14    43    52    1
    15    43    42   ar
    16    32    31   ar
    17    32    28   ar
    18    52    53    1
    19    41    42   ar
    20    41    31    1
    21    14    12    1
    22    17    16   ar
    23    17    18   ar
    24    16    15   ar
    25    42    47    1
    26    13    12    1
    27    31    30   ar
    28    12     3    1
    29    18    28    1
    30    18    19   ar
    31    28    29   ar
    32    50    48    1
    33    15     4    1
    34    15    19   ar
    35    47    48    1
    36    51    48    1
    37    30    29   ar
    38    30    38    1
    39     3     4   ar
    40     3     2   ar
    41    48    49    1
    42    29    33    1
    43     4     5   ar
    44     7     2    1
    45     7     8    1
    46    40    38    1
    47    38    39    1
    48    36    34    1
    49     2     1   ar
    50     9     8    1
    51    37    34    1
    52    33    34    1
    53    34    35    1
    54     8    10    1
    55     8    11    1
    56     5     1   ar
    57     1     6    1
