@<TRIPOS>MOLECULE
mol_data/opt/b3lyp/geoms/mol2/5lh5lh5lh-.out
 41 43 0 0 0
SMALL
GASTEIGER

@<TRIPOS>ATOM
      1 C          -2.1554   -2.0142    1.0011 C.ar    1  LIG1        0.0199
      2 C          -1.1280   -2.1926    0.1209 C.ar    1  LIG1        0.1482
      3 C          -0.5114   -0.9677   -0.3288 C.ar    1  LIG1        0.0824
      4 C          -1.1124    0.1506    0.2313 C.ar    1  LIG1        0.0538
      5 S          -2.4020   -0.3284    1.3473 S.2     1  LIG1       -0.0904
      6 H          -2.7673   -2.7610    1.4827 H       1  LIG1        0.0731
      7 O          -0.6379   -3.3558   -0.3971 O.3     1  LIG1       -0.4927
      8 C          -1.2840   -4.5485    0.0218 C.3     1  LIG1        0.0789
      9 H          -0.7812   -5.3702   -0.4897 H       1  LIG1        0.0660
     10 H          -1.1955   -4.6853    1.1072 H       1  LIG1        0.0660
     11 H          -2.3469   -4.5406   -0.2525 H       1  LIG1        0.0660
     12 N           0.5602   -1.0215   -1.1925 N.pl3   1  LIG1       -0.3542
     13 H           0.5889   -1.8231   -1.8043 H       1  LIG1        0.1425
     14 H           0.9078   -0.1456   -1.5549 H       1  LIG1        0.1425
     15 C          -0.8704    1.5556   -0.0205 C.ar    1  LIG1        0.0718
     16 C           0.2773    2.2147   -0.4070 C.ar    1  LIG1        0.1565
     17 C           0.1509    3.6341   -0.5734 C.ar    1  LIG1        0.0831
     18 C          -1.1339    4.0845   -0.3087 C.ar    1  LIG1        0.0544
     19 S          -2.1685    2.7277    0.1638 S.2     1  LIG1       -0.0814
     20 O           1.4954    1.6141   -0.6713 O.3     1  LIG1       -0.4921
     21 C           2.2850    1.3522    0.5016 C.3     1  LIG1        0.0789
     22 H           3.2209    0.9131    0.1513 H       1  LIG1        0.0660
     23 H           2.4895    2.2842    1.0392 H       1  LIG1        0.0660
     24 H           1.7747    0.6451    1.1626 H       1  LIG1        0.0660
     25 N           1.2649    4.3791   -0.9129 N.pl3   1  LIG1       -0.3542
     26 H           1.9275    3.8965   -1.5031 H       1  LIG1        0.1425
     27 H           1.1119    5.3580   -1.1107 H       1  LIG1        0.1425
     28 C          -1.7040    5.4093   -0.4326 C.ar    1  LIG1        0.0713
     29 C          -1.1164    6.6542   -0.3216 C.ar    1  LIG1        0.1559
     30 C          -2.0000    7.7662   -0.5349 C.ar    1  LIG1        0.0746
     31 C          -3.2771    7.3579   -0.8106 C.ar    1  LIG1        0.0006
     32 S          -3.4073    5.6187   -0.8274 S.2     1  LIG1       -0.0905
     33 H          -4.1536    7.9659   -0.9816 H       1  LIG1        0.0713
     34 O           0.2201    6.8936   -0.0505 O.3     1  LIG1       -0.4921
     35 C           0.5624    6.7926    1.3428 C.3     1  LIG1        0.0789
     36 H           1.6241    7.0356    1.4176 H       1  LIG1        0.0660
     37 H          -0.0251    7.5038    1.9332 H       1  LIG1        0.0660
     38 H           0.3929    5.7764    1.7113 H       1  LIG1        0.0660
     39 N          -1.5342    9.0755   -0.3755 N.pl3   1  LIG1       -0.3547
     40 H          -0.5422    9.1467   -0.5694 H       1  LIG1        0.1424
     41 H          -2.0608    9.7675   -0.8922 H       1  LIG1        0.1424
@<TRIPOS>BOND
     1    13    12    1
     2    14    12    1
     3    26    25    1
     4    12     3    1
     5    27    25    1
     6    33    31    1
     7    25    17    1
     8    41    39    1
     9    32    31   ar
    10    32    28   ar
    11    31    30   ar
    12    20    16    1
    13    20    21    1
    14    17    16   ar
    15    17    18   ar
    16    40    39    1
    17    30    39    1
    18    30    29   ar
    19     9     8    1
    20    28    29   ar
    21    28    18    1
    22    16    15   ar
    23     7     8    1
    24     7     2    1
    25     3     2   ar
    26     3     4   ar
    27    29    34    1
    28    18    19   ar
    29    11     8    1
    30    34    35    1
    31    15    19   ar
    32    15     4    1
    33     8    10    1
    34     2     1   ar
    35    22    21    1
    36     4     5   ar
    37    21    23    1
    38    21    24    1
    39     1     5   ar
    40     1     6    1
    41    35    36    1
    42    35    38    1
    43    35    37    1
