@<TRIPOS>MOLECULE
mol_data/opt/b3lyp/geoms/mol2/5lh5lh-.out
 28 29 0 0 0
SMALL
GASTEIGER

@<TRIPOS>ATOM
      1 C          -1.1198   -1.9583   -1.2033 C.ar    1  LIG1        0.0199
      2 C          -1.0558   -2.1110    0.1516 C.ar    1  LIG1        0.1482
      3 C          -0.7803   -0.8925    0.8646 C.ar    1  LIG1        0.0824
      4 C          -0.6369    0.1924    0.0174 C.ar    1  LIG1        0.0537
      5 S          -0.8376   -0.3059   -1.6695 S.2     1  LIG1       -0.0904
      6 H          -1.2935   -2.7099   -1.9578 H       1  LIG1        0.0731
      7 O          -1.1977   -3.2461    0.8976 O.3     1  LIG1       -0.4927
      8 C          -1.4603   -4.4410    0.1778 C.3     1  LIG1        0.0789
      9 H          -1.5492   -5.2367    0.9185 H       1  LIG1        0.0660
     10 H          -2.3969   -4.3624   -0.3888 H       1  LIG1        0.0660
     11 H          -0.6413   -4.6750   -0.5146 H       1  LIG1        0.0660
     12 N          -0.7354   -0.8859    2.2565 N.pl3   1  LIG1       -0.3542
     13 H          -0.6374   -1.8160    2.6441 H       1  LIG1        0.1425
     14 H          -0.0803   -0.2280    2.6616 H       1  LIG1        0.1425
     15 C          -0.3906    1.5750    0.3613 C.ar    1  LIG1        0.0712
     16 C           0.0569    2.5952   -0.4518 C.ar    1  LIG1        0.1559
     17 C           0.1643    3.8777    0.1852 C.ar    1  LIG1        0.0746
     18 C          -0.2002    3.8248    1.5033 C.ar    1  LIG1        0.0006
     19 S          -0.7030    2.2215    1.9719 S.2     1  LIG1       -0.0905
     20 H          -0.2055    4.6225    2.2319 H       1  LIG1        0.0713
     21 O           0.3387    2.4497   -1.7932 O.3     1  LIG1       -0.4921
     22 C           1.7273    2.2024   -2.0711 C.3     1  LIG1        0.0789
     23 H           1.8203    2.1581   -3.1580 H       1  LIG1        0.0660
     24 H           2.3524    3.0116   -1.6778 H       1  LIG1        0.0660
     25 H           2.0443    1.2472   -1.6396 H       1  LIG1        0.0660
     26 N           0.6533    4.9774   -0.5287 N.pl3   1  LIG1       -0.3547
     27 H           0.4169    4.9152   -1.5129 H       1  LIG1        0.1424
     28 H           0.3744    5.8716   -0.1459 H       1  LIG1        0.1424
@<TRIPOS>BOND
     1    23    22    1
     2    22    21    1
     3    22    24    1
     4    22    25    1
     5     6     1    1
     6    21    16    1
     7     5     1   ar
     8     5     4   ar
     9    27    26    1
    10     1     2   ar
    11    26    28    1
    12    26    17    1
    13    11     8    1
    14    16    17   ar
    15    16    15   ar
    16    10     8    1
    17     4    15    1
    18     4     3   ar
    19     2     3   ar
    20     2     7    1
    21     8     7    1
    22     8     9    1
    23    17    18   ar
    24    15    19   ar
    25     3    12    1
    26    18    19   ar
    27    18    20    1
    28    12    13    1
    29    12    14    1
