@<TRIPOS>MOLECULE
mol_data/opt/b3lyp/geoms/mol2/5lh5lh.out
 28 29 0 0 0
SMALL
GASTEIGER

@<TRIPOS>ATOM
      1 C          -2.2309   -1.9343    0.5662 C.ar    1  LIG1        0.0199
      2 C          -1.0235   -2.0072   -0.0661 C.ar    1  LIG1        0.1482
      3 C          -0.4268   -0.7256   -0.3554 C.ar    1  LIG1        0.0824
      4 C          -1.2241    0.3251    0.0696 C.ar    1  LIG1        0.0537
      5 S          -2.6826   -0.2824    0.8682 S.2     1  LIG1       -0.0904
      6 H          -2.8718   -2.7395    0.8901 H       1  LIG1        0.0731
      7 O          -0.3386   -3.1138   -0.4759 O.3     1  LIG1       -0.4927
      8 C          -0.9591   -4.3645   -0.2192 C.3     1  LIG1        0.0789
      9 H          -0.2889   -5.1302   -0.6119 H       1  LIG1        0.0660
     10 H          -1.1010   -4.5211    0.8579 H       1  LIG1        0.0660
     11 H          -1.9322   -4.4352   -0.7224 H       1  LIG1        0.0660
     12 N           0.8134   -0.6680   -0.9576 N.pl3   1  LIG1       -0.3542
     13 H           1.0333   -1.4391   -1.5705 H       1  LIG1        0.1425
     14 H           1.1490    0.2439   -1.2316 H       1  LIG1        0.1425
     15 C          -1.0422    1.7525   -0.1076 C.ar    1  LIG1        0.0712
     16 C           0.1120    2.5037   -0.1974 C.ar    1  LIG1        0.1559
     17 C          -0.0930    3.9108   -0.4069 C.ar    1  LIG1        0.0746
     18 C          -1.4230    4.2272   -0.4750 C.ar    1  LIG1        0.0006
     19 S          -2.4315    2.8155   -0.2987 S.2     1  LIG1       -0.0905
     20 H          -1.8747    5.2017   -0.5912 H       1  LIG1        0.0713
     21 O           1.4038    2.0128   -0.1336 O.3     1  LIG1       -0.4921
     22 C           1.8511    1.6923    1.1953 C.3     1  LIG1        0.0789
     23 H           2.8849    1.3560    1.0982 H       1  LIG1        0.0660
     24 H           1.8059    2.5784    1.8377 H       1  LIG1        0.0660
     25 H           1.2454    0.8902    1.6268 H       1  LIG1        0.0660
     26 N           0.9987    4.7833   -0.4416 N.pl3   1  LIG1       -0.3547
     27 H           1.8437    4.3157   -0.7478 H       1  LIG1        0.1424
     28 H           0.8352    5.6329   -0.9653 H       1  LIG1        0.1424
@<TRIPOS>BOND
     1    13    12    1
     2    14    12    1
     3    28    26    1
     4    12     3    1
     5    27    26    1
     6    11     8    1
     7     9     8    1
     8    20    18    1
     9     7     8    1
    10     7     2    1
    11    18    17   ar
    12    18    19   ar
    13    26    17    1
    14    17    16   ar
    15     3     2   ar
    16     3     4   ar
    17    19    15   ar
    18     8    10    1
    19    16    21    1
    20    16    15   ar
    21    21    22    1
    22    15     4    1
    23     2     1   ar
    24     4     5   ar
    25     1     5   ar
    26     1     6    1
    27    23    22    1
    28    22    25    1
    29    22    24    1
