@<TRIPOS>MOLECULE
mol_data/opt/b3lyp/geoms/mol2/5lh5lh-5lh5lh-.out
 54 57 0 0 0
SMALL
GASTEIGER

@<TRIPOS>ATOM
      1 C           1.0135   -2.0525    1.1152 C.ar    1  LIG1        0.0199
      2 C          -0.1642   -1.7518    1.7364 C.ar    1  LIG1        0.1482
      3 C          -0.7118   -0.4721    1.3666 C.ar    1  LIG1        0.0824
      4 C           0.0935    0.1985    0.4597 C.ar    1  LIG1        0.0538
      5 S           1.5088   -0.7808    0.0376 S.2     1  LIG1       -0.0904
      6 H           1.6111   -2.9464    1.2073 H       1  LIG1        0.0731
      7 O          -0.8684   -2.4875    2.6451 O.3     1  LIG1       -0.4927
      8 C          -0.3086   -3.7416    3.0039 C.3     1  LIG1        0.0789
      9 H          -0.9876   -4.1882    3.7313 H       1  LIG1        0.0660
     10 H          -0.2241   -4.4009    2.1304 H       1  LIG1        0.0660
     11 H           0.6839   -3.6179    3.4564 H       1  LIG1        0.0660
     12 N          -1.9503   -0.0927    1.8550 N.pl3   1  LIG1       -0.3542
     13 H          -2.1955   -0.4982    2.7468 H       1  LIG1        0.1425
     14 H          -2.2194    0.8730    1.7413 H       1  LIG1        0.1425
     15 C          -0.0790    1.5221   -0.0957 C.ar    1  LIG1        0.0718
     16 C           0.3878    2.0196   -1.2918 C.ar    1  LIG1        0.1565
     17 C           0.0998    3.4009   -1.5322 C.ar    1  LIG1        0.0831
     18 C          -0.6165    3.9892   -0.5006 C.ar    1  LIG1        0.0544
     19 S          -0.8800    2.8121    0.7986 S.2     1  LIG1       -0.0814
     20 O           1.1287    1.3030   -2.2061 O.3     1  LIG1       -0.4921
     21 C           0.3346    0.5712   -3.1555 C.3     1  LIG1        0.0789
     22 H           1.0383    0.0842   -3.8332 H       1  LIG1        0.0660
     23 H          -0.2717   -0.1882   -2.6516 H       1  LIG1        0.0660
     24 H          -0.3170    1.2472   -3.7208 H       1  LIG1        0.0660
     25 N           0.4920    3.9879   -2.7292 N.pl3   1  LIG1       -0.3542
     26 H           1.2575    3.4833   -3.1612 H       1  LIG1        0.1425
     27 H           0.6593    4.9860   -2.6889 H       1  LIG1        0.1425
     28 C          -1.1346    5.3285   -0.4031 C.ar    1  LIG1        0.0719
     29 C          -1.5629    6.0073    0.7194 C.ar    1  LIG1        0.1565
     30 C          -2.0525    7.3337    0.4910 C.ar    1  LIG1        0.0831
     31 C          -1.9996    7.6907   -0.8482 C.ar    1  LIG1        0.0544
     32 S          -1.3833    6.3474   -1.8200 S.2     1  LIG1       -0.0814
     33 O          -1.5471    5.4774    1.9927 O.3     1  LIG1       -0.4921
     34 C          -0.3492    5.7813    2.7307 C.3     1  LIG1        0.0789
     35 H          -0.4821    5.3483    3.7240 H       1  LIG1        0.0660
     36 H           0.5264    5.3313    2.2517 H       1  LIG1        0.0660
     37 H          -0.2086    6.8645    2.8131 H       1  LIG1        0.0660
     38 N          -2.4274    8.1334    1.5595 N.pl3   1  LIG1       -0.3542
     39 H          -2.6969    7.5844    2.3669 H       1  LIG1        0.1425
     40 H          -3.1013    8.8545    1.3207 H       1  LIG1        0.1425
     41 C          -2.3237    8.9522   -1.4751 C.ar    1  LIG1        0.0713
     42 C          -3.2935    9.8745   -1.1418 C.ar    1  LIG1        0.1559
     43 C          -3.3216   11.0534   -1.9610 C.ar    1  LIG1        0.0746
     44 C          -2.3643   11.0156   -2.9389 C.ar    1  LIG1        0.0006
     45 S          -1.4096    9.5571   -2.8522 S.2     1  LIG1       -0.0905
     46 H          -2.1728   11.7399   -3.7174 H       1  LIG1        0.0713
     47 O          -4.1959    9.7302   -0.1004 O.3     1  LIG1       -0.4921
     48 C          -5.3972    9.0293   -0.4724 C.3     1  LIG1        0.0789
     49 H          -6.0246    8.9949    0.4208 H       1  LIG1        0.0660
     50 H          -5.9201    9.5656   -1.2710 H       1  LIG1        0.0660
     51 H          -5.1656    8.0114   -0.8015 H       1  LIG1        0.0660
     52 N          -4.3061   12.0279   -1.7601 N.pl3   1  LIG1       -0.3547
     53 H          -4.5844   12.0856   -0.7871 H       1  LIG1        0.1424
     54 H          -4.0603   12.9403   -2.1218 H       1  LIG1        0.1424
@<TRIPOS>BOND
     1    22    21    1
     2    24    21    1
     3    46    44    1
     4    26    25    1
     5    21    23    1
     6    21    20    1
     7    44    45   ar
     8    44    43   ar
     9    45    41   ar
    10    25    27    1
    11    25    17    1
    12    20    16    1
    13    54    52    1
    14    43    52    1
    15    43    42   ar
    16    32    31   ar
    17    32    28   ar
    18    52    53    1
    19    17    16   ar
    20    17    18   ar
    21    41    42   ar
    22    41    31    1
    23    16    15   ar
    24    50    48    1
    25    42    47    1
    26    31    30   ar
    27    51    48    1
    28    18    28    1
    29    18    19   ar
    30    48    47    1
    31    48    49    1
    32    28    29   ar
    33    15     4    1
    34    15    19   ar
    35     5     4   ar
    36     5     1   ar
    37     4     3   ar
    38    30    29   ar
    39    30    38    1
    40    29    33    1
    41     1     6    1
    42     1     2   ar
    43    40    38    1
    44     3     2   ar
    45     3    12    1
    46    38    39    1
    47     2     7    1
    48    14    12    1
    49    12    13    1
    50    33    34    1
    51    10     8    1
    52    36    34    1
    53     7     8    1
    54    34    37    1
    55    34    35    1
    56     8    11    1
    57     8     9    1
