@<TRIPOS>MOLECULE
mol_data/opt/b3lyp/geoms/mol2/5lh5lh-5lh-5lh.out
 54 57 0 0 0
SMALL
GASTEIGER

@<TRIPOS>ATOM
      1 C          -0.2333   -1.4000    2.8135 C.ar    1  LIG1        0.0199
      2 C          -0.5006   -1.9457    1.5917 C.ar    1  LIG1        0.1482
      3 C          -0.6117   -0.9834    0.5223 C.ar    1  LIG1        0.0824
      4 C          -0.4288    0.3165    0.9736 C.ar    1  LIG1        0.0538
      5 S          -0.0754    0.3285    2.7099 S.2     1  LIG1       -0.0904
      6 H          -0.0982   -1.9006    3.7596 H       1  LIG1        0.0731
      7 O          -0.6984   -3.2554    1.2647 O.3     1  LIG1       -0.4927
      8 C          -0.6321   -4.1854    2.3353 C.3     1  LIG1        0.0789
      9 H          -0.8213   -5.1692    1.9040 H       1  LIG1        0.0660
     10 H           0.3600   -4.1775    2.8048 H       1  LIG1        0.0660
     11 H          -1.3909   -3.9668    3.0979 H       1  LIG1        0.0660
     12 N          -0.8467   -1.4174   -0.7631 N.pl3   1  LIG1       -0.3542
     13 H          -1.3497   -2.2876   -0.8476 H       1  LIG1        0.1425
     14 H          -1.0056   -0.7146   -1.4704 H       1  LIG1        0.1425
     15 C          -0.5567    1.5694    0.2605 C.ar    1  LIG1        0.0718
     16 C          -0.3562    1.8651   -1.0723 C.ar    1  LIG1        0.1565
     17 C          -0.5771    3.2320   -1.4347 C.ar    1  LIG1        0.0831
     18 C          -0.9659    4.0124   -0.3565 C.ar    1  LIG1        0.0544
     19 S          -1.0465    3.0275    1.1127 S.2     1  LIG1       -0.0814
     20 O           0.0231    0.9640   -2.0515 O.3     1  LIG1       -0.4921
     21 C           1.4342    0.6833   -2.0751 C.3     1  LIG1        0.0789
     22 H           1.5972   -0.0028   -2.9083 H       1  LIG1        0.0660
     23 H           2.0033    1.6051   -2.2346 H       1  LIG1        0.0660
     24 H           1.7502    0.2068   -1.1423 H       1  LIG1        0.0660
     25 N          -0.3038    3.6442   -2.7308 N.pl3   1  LIG1       -0.3542
     26 H          -0.4547    2.9279   -3.4280 H       1  LIG1        0.1425
     27 H          -0.6339    4.5599   -2.9986 H       1  LIG1        0.1425
     28 C          -1.3251    5.4096   -0.3256 C.ar    1  LIG1        0.0719
     29 C          -1.2533    6.2985    0.7247 C.ar    1  LIG1        0.1565
     30 C          -1.7290    7.6236    0.4482 C.ar    1  LIG1        0.0831
     31 C          -2.1918    7.7587   -0.8516 C.ar    1  LIG1        0.0544
     32 S          -2.0704    6.2134   -1.7065 S.2     1  LIG1       -0.0814
     33 O          -0.7800    5.9860    1.9803 O.3     1  LIG1       -0.4921
     34 C           0.6457    6.1122    2.1158 C.3     1  LIG1        0.0789
     35 H           0.8769    5.8786    3.1568 H       1  LIG1        0.0660
     36 H           1.1630    5.4042    1.4605 H       1  LIG1        0.0660
     37 H           0.9691    7.1332    1.8837 H       1  LIG1        0.0660
     38 N          -1.6086    8.6177    1.4039 N.pl3   1  LIG1       -0.3542
     39 H          -1.5353    8.2391    2.3401 H       1  LIG1        0.1425
     40 H          -2.2865    9.3682    1.3164 H       1  LIG1        0.1425
     41 C          -2.6775    8.9347   -1.5362 C.ar    1  LIG1        0.0713
     42 C          -3.3940   10.0035   -1.0397 C.ar    1  LIG1        0.1559
     43 C          -3.6919   11.0342   -1.9941 C.ar    1  LIG1        0.0746
     44 C          -3.2032   10.7326   -3.2369 C.ar    1  LIG1        0.0006
     45 S          -2.3577    9.2053   -3.2455 S.2     1  LIG1       -0.0905
     46 H          -3.3034   11.2985   -4.1517 H       1  LIG1        0.0713
     47 O          -3.8158   10.1301    0.2738 O.3     1  LIG1       -0.4921
     48 C          -5.0855    9.5037    0.5349 C.3     1  LIG1        0.0789
     49 H          -5.3087    9.6843    1.5885 H       1  LIG1        0.0660
     50 H          -5.8665    9.9488   -0.0900 H       1  LIG1        0.0660
     51 H          -5.0315    8.4266    0.3477 H       1  LIG1        0.0660
     52 N          -4.4719   12.1350   -1.6219 N.pl3   1  LIG1       -0.3547
     53 H          -4.3453   12.3711   -0.6443 H       1  LIG1        0.1424
     54 H          -4.3444   12.9473   -2.2114 H       1  LIG1        0.1424
@<TRIPOS>BOND
     1    46    44    1
     2    26    25    1
     3    45    44   ar
     4    45    41   ar
     5    44    43   ar
     6    27    25    1
     7    22    21    1
     8    25    17    1
     9    23    21    1
    10    54    52    1
    11    21    20    1
    12    21    24    1
    13    20    16    1
    14    43    52    1
    15    43    42   ar
    16    32    31   ar
    17    32    28   ar
    18    52    53    1
    19    41    42   ar
    20    41    31    1
    21    14    12    1
    22    17    16   ar
    23    17    18   ar
    24    16    15   ar
    25    42    47    1
    26    31    30   ar
    27    13    12    1
    28    12     3    1
    29    18    28    1
    30    18    19   ar
    31    28    29   ar
    32    50    48    1
    33    15     4    1
    34    15    19   ar
    35    47    48    1
    36    51    48    1
    37    30    29   ar
    38    30    38    1
    39     3     4   ar
    40     3     2   ar
    41    48    49    1
    42    29    33    1
    43     4     5   ar
    44     7     2    1
    45     7     8    1
    46    40    38    1
    47    38    39    1
    48    36    34    1
    49     2     1   ar
    50    37    34    1
    51     9     8    1
    52    33    34    1
    53    34    35    1
    54     8    10    1
    55     8    11    1
    56     5     1   ar
    57     1     6    1
