@<TRIPOS>MOLECULE
mol_data/opt/b3lyp/geoms/mol2/5lh5lh-5lh-.out
 41 43 0 0 0
SMALL
GASTEIGER

@<TRIPOS>ATOM
      1 C          -2.1442   -2.0305    0.9499 C.ar    1  LIG1        0.0199
      2 C          -1.0905   -2.1984    0.0991 C.ar    1  LIG1        0.1482
      3 C          -0.4724   -0.9674   -0.3314 C.ar    1  LIG1        0.0824
      4 C          -1.0992    0.1447    0.2126 C.ar    1  LIG1        0.0538
      5 S          -2.4156   -0.3474    1.2909 S.2     1  LIG1       -0.0904
      6 H          -2.7627   -2.7835    1.4130 H       1  LIG1        0.0731
      7 O          -0.5754   -3.3564   -0.4060 O.3     1  LIG1       -0.4927
      8 C          -1.2224   -4.5554   -0.0071 C.3     1  LIG1        0.0789
      9 H          -0.6977   -5.3719   -0.5049 H       1  LIG1        0.0660
     10 H          -1.1637   -4.6930    1.0803 H       1  LIG1        0.0660
     11 H          -2.2771   -4.5568   -0.3116 H       1  LIG1        0.0660
     12 N           0.6238   -1.0103   -1.1642 N.pl3   1  LIG1       -0.3542
     13 H           0.6769   -1.8105   -1.7762 H       1  LIG1        0.1425
     14 H           0.9736   -0.1307   -1.5155 H       1  LIG1        0.1425
     15 C          -0.8628    1.5521   -0.0304 C.ar    1  LIG1        0.0718
     16 C           0.2896    2.2221   -0.3828 C.ar    1  LIG1        0.1565
     17 C           0.1553    3.6406   -0.5507 C.ar    1  LIG1        0.0831
     18 C          -1.1406    4.0791   -0.3225 C.ar    1  LIG1        0.0544
     19 S          -2.1761    2.7122    0.1179 S.2     1  LIG1       -0.0814
     20 O           1.5202    1.6328   -0.6127 O.3     1  LIG1       -0.4921
     21 C           2.2777    1.3755    0.5822 C.3     1  LIG1        0.0789
     22 H           3.2274    0.9458    0.2583 H       1  LIG1        0.0660
     23 H           2.4578    2.3081    1.1273 H       1  LIG1        0.0660
     24 H           1.7549    0.6623    1.2266 H       1  LIG1        0.0660
     25 N           1.2719    4.3961   -0.8570 N.pl3   1  LIG1       -0.3542
     26 H           1.9556    3.9203   -1.4283 H       1  LIG1        0.1425
     27 H           1.1157    5.3738   -1.0581 H       1  LIG1        0.1425
     28 C          -1.7188    5.3988   -0.4611 C.ar    1  LIG1        0.0713
     29 C          -1.1459    6.6488   -0.3313 C.ar    1  LIG1        0.1559
     30 C          -2.0330    7.7532   -0.5685 C.ar    1  LIG1        0.0746
     31 C          -3.2979    7.3338   -0.8814 C.ar    1  LIG1        0.0006
     32 S          -3.4119    5.5936   -0.9044 S.2     1  LIG1       -0.0905
     33 H          -4.1745    7.9343   -1.0770 H       1  LIG1        0.0713
     34 O           0.1799    6.8996   -0.0215 O.3     1  LIG1       -0.4921
     35 C           0.4829    6.7986    1.3810 C.3     1  LIG1        0.0789
     36 H           1.5397    7.0511    1.4869 H       1  LIG1        0.0660
     37 H          -0.1280    7.5032    1.9556 H       1  LIG1        0.0660
     38 H           0.3121    5.7801    1.7424 H       1  LIG1        0.0660
     39 N          -1.5838    9.0662   -0.3938 N.pl3   1  LIG1       -0.3547
     40 H          -0.5874    9.1468   -0.5592 H       1  LIG1        0.1424
     41 H          -2.1019    9.7546   -0.9238 H       1  LIG1        0.1424
@<TRIPOS>BOND
     1    13    12    1
     2    14    12    1
     3    26    25    1
     4    12     3    1
     5    33    31    1
     6    27    25    1
     7    41    39    1
     8    32    31   ar
     9    32    28   ar
    10    31    30   ar
    11    25    17    1
    12    20    16    1
    13    20    21    1
    14    30    39    1
    15    30    29   ar
    16    40    39    1
    17    17    16   ar
    18    17    18   ar
    19     9     8    1
    20    28    29   ar
    21    28    18    1
    22     7     8    1
    23     7     2    1
    24    16    15   ar
    25     3     2   ar
    26     3     4   ar
    27    29    34    1
    28    18    19   ar
    29    11     8    1
    30    15    19   ar
    31    15     4    1
    32    34    35    1
    33     8    10    1
    34     2     1   ar
    35     4     5   ar
    36    22    21    1
    37    21    23    1
    38    21    24    1
    39     1     5   ar
    40     1     6    1
    41    35    36    1
    42    35    38    1
    43    35    37    1
