@<TRIPOS>MOLECULE
mol_data/opt/b3lyp/geoms/mol2/5lh5lh5lh-5lh.out
 54 57 0 0 0
SMALL
GASTEIGER

@<TRIPOS>ATOM
      1 C          -0.3128   -1.4527    2.7209 C.ar    1  LIG1        0.0199
      2 C          -0.5505   -1.9759    1.4832 C.ar    1  LIG1        0.1482
      3 C          -0.6336   -0.9944    0.4289 C.ar    1  LIG1        0.0824
      4 C          -0.4600    0.2969    0.9078 C.ar    1  LIG1        0.0538
      5 S          -0.1498    0.2770    2.6523 S.2     1  LIG1       -0.0904
      6 H          -0.2022   -1.9705    3.6609 H       1  LIG1        0.0731
      7 O          -0.7423   -3.2791    1.1280 O.3     1  LIG1       -0.4927
      8 C          -0.7040   -4.2283    2.1831 C.3     1  LIG1        0.0789
      9 H          -0.8838   -5.2038    1.7296 H       1  LIG1        0.0660
     10 H           0.2761   -4.2307    2.6771 H       1  LIG1        0.0660
     11 H          -1.4811   -4.0219    2.9303 H       1  LIG1        0.0660
     12 N          -0.8371   -1.4048   -0.8697 N.pl3   1  LIG1       -0.3542
     13 H          -1.3398   -2.2721   -0.9821 H       1  LIG1        0.1425
     14 H          -0.9776   -0.6890   -1.5677 H       1  LIG1        0.1425
     15 C          -0.5683    1.5626    0.2144 C.ar    1  LIG1        0.0718
     16 C          -0.3340    1.8817   -1.1075 C.ar    1  LIG1        0.1565
     17 C          -0.5440    3.2552   -1.4507 C.ar    1  LIG1        0.0831
     18 C          -0.9589    4.0169   -0.3688 C.ar    1  LIG1        0.0544
     19 S          -1.0774    3.0061    1.0801 S.2     1  LIG1       -0.0814
     20 O           0.0686    0.9976   -2.0928 O.3     1  LIG1       -0.4921
     21 C           1.4793    0.7138   -2.0852 C.3     1  LIG1        0.0789
     22 H           1.6623    0.0425   -2.9263 H       1  LIG1        0.0660
     23 H           2.0542    1.6369   -2.2131 H       1  LIG1        0.0660
     24 H           1.7701    0.2195   -1.1535 H       1  LIG1        0.0660
     25 N          -0.2378    3.6901   -2.7320 N.pl3   1  LIG1       -0.3542
     26 H          -0.3714    2.9864   -3.4453 H       1  LIG1        0.1425
     27 H          -0.5601    4.6108   -2.9917 H       1  LIG1        0.1425
     28 C          -1.3169    5.4139   -0.3218 C.ar    1  LIG1        0.0719
     29 C          -1.2707    6.2836    0.7459 C.ar    1  LIG1        0.1565
     30 C          -1.7374    7.6143    0.4814 C.ar    1  LIG1        0.0831
     31 C          -2.1668    7.7737   -0.8270 C.ar    1  LIG1        0.0544
     32 S          -2.0258    6.2438   -1.7064 S.2     1  LIG1       -0.0814
     33 O          -0.8299    5.9477    2.0072 O.3     1  LIG1       -0.4921
     34 C           0.5919    6.0698    2.1816 C.3     1  LIG1        0.0789
     35 H           0.7963    5.8165    3.2236 H       1  LIG1        0.0660
     36 H           1.1255    5.3737    1.5266 H       1  LIG1        0.0660
     37 H           0.9218    7.0946    1.9770 H       1  LIG1        0.0660
     38 N          -1.6399    8.5908    1.4576 N.pl3   1  LIG1       -0.3542
     39 H          -1.5913    8.1953    2.3885 H       1  LIG1        0.1425
     40 H          -2.3142    9.3441    1.3663 H       1  LIG1        0.1425
     41 C          -2.6334    8.9627   -1.5025 C.ar    1  LIG1        0.0713
     42 C          -3.3606   10.0237   -1.0051 C.ar    1  LIG1        0.1559
     43 C          -3.6327   11.0720   -1.9480 C.ar    1  LIG1        0.0746
     44 C          -3.1130   10.7919   -3.1832 C.ar    1  LIG1        0.0006
     45 S          -2.2698    9.2634   -3.1979 S.2     1  LIG1       -0.0905
     46 H          -3.1893   11.3743   -4.0900 H       1  LIG1        0.0713
     47 O          -3.8154   10.1275    0.2993 O.3     1  LIG1       -0.4921
     48 C          -5.0922    9.4988    0.5168 C.3     1  LIG1        0.0789
     49 H          -5.3416    9.6605    1.5676 H       1  LIG1        0.0660
     50 H          -5.8565    9.9567   -0.1193 H       1  LIG1        0.0660
     51 H          -5.0350    8.4252    0.3114 H       1  LIG1        0.0660
     52 N          -4.4203   12.1674   -1.5759 N.pl3   1  LIG1       -0.3547
     53 H          -4.3181   12.3859   -0.5915 H       1  LIG1        0.1424
     54 H          -4.2770   12.9898   -2.1476 H       1  LIG1        0.1424
@<TRIPOS>BOND
     1    46    44    1
     2    26    25    1
     3    45    44   ar
     4    45    41   ar
     5    44    43   ar
     6    27    25    1
     7    22    21    1
     8    25    17    1
     9    23    21    1
    10    54    52    1
    11    20    21    1
    12    20    16    1
    13    21    24    1
    14    43    52    1
    15    43    42   ar
    16    32    31   ar
    17    32    28   ar
    18    52    53    1
    19    14    12    1
    20    41    42   ar
    21    41    31    1
    22    17    16   ar
    23    17    18   ar
    24    16    15   ar
    25    42    47    1
    26    13    12    1
    27    12     3    1
    28    31    30   ar
    29    18    28    1
    30    18    19   ar
    31    28    29   ar
    32    50    48    1
    33    15     4    1
    34    15    19   ar
    35    47    48    1
    36    51    48    1
    37     3     4   ar
    38     3     2   ar
    39    30    29   ar
    40    30    38    1
    41    48    49    1
    42    29    33    1
    43     4     5   ar
    44     7     2    1
    45     7     8    1
    46    40    38    1
    47    38    39    1
    48     2     1   ar
    49    36    34    1
    50     9     8    1
    51    37    34    1
    52    33    34    1
    53    34    35    1
    54     8    10    1
    55     8    11    1
    56     5     1   ar
    57     1     6    1
