@<TRIPOS>MOLECULE
mol_data/opt/b3lyp/geoms/mol2/5lh5lh-5lh.out
 41 43 0 0 0
SMALL
GASTEIGER

@<TRIPOS>ATOM
      1 C          -2.1554   -2.0165    0.9881 C.ar    1  LIG1        0.0199
      2 C          -1.1129   -2.1944    0.1258 C.ar    1  LIG1        0.1482
      3 C          -0.4938   -0.9691   -0.3189 C.ar    1  LIG1        0.0824
      4 C          -1.1084    0.1492    0.2263 C.ar    1  LIG1        0.0538
      5 S          -2.4143   -0.3302    1.3230 S.2     1  LIG1       -0.0904
      6 H          -2.7724   -2.7637    1.4625 H       1  LIG1        0.0731
      7 O          -0.6097   -3.3579   -0.3790 O.3     1  LIG1       -0.4927
      8 C          -1.2579   -4.5514    0.0343 C.3     1  LIG1        0.0789
      9 H          -0.7433   -5.3733   -0.4651 H       1  LIG1        0.0660
     10 H          -1.1869   -4.6832    1.1217 H       1  LIG1        0.0660
     11 H          -2.3161   -4.5491   -0.2576 H       1  LIG1        0.0660
     12 N           0.5923   -1.0222   -1.1645 N.pl3   1  LIG1       -0.3542
     13 H           0.6338   -1.8260   -1.7727 H       1  LIG1        0.1425
     14 H           0.9421   -0.1463   -1.5250 H       1  LIG1        0.1425
     15 C          -0.8675    1.5541   -0.0271 C.ar    1  LIG1        0.0718
     16 C           0.2839    2.2161   -0.3973 C.ar    1  LIG1        0.1565
     17 C           0.1549    3.6342   -0.5717 C.ar    1  LIG1        0.0831
     18 C          -1.1359    4.0807   -0.3305 C.ar    1  LIG1        0.0544
     19 S          -2.1729    2.7219    0.1304 S.2     1  LIG1       -0.0814
     20 O           1.5086    1.6192   -0.6387 O.3     1  LIG1       -0.4921
     21 C           2.2789    1.3642    0.5485 C.3     1  LIG1        0.0789
     22 H           3.2225    0.9277    0.2157 H       1  LIG1        0.0660
     23 H           2.4704    2.2987    1.0865 H       1  LIG1        0.0660
     24 H           1.7602    0.6571    1.2028 H       1  LIG1        0.0660
     25 N           1.2716    4.3821   -0.8957 N.pl3   1  LIG1       -0.3542
     26 H           1.9459    3.8997   -1.4725 H       1  LIG1        0.1425
     27 H           1.1182    5.3596   -1.1003 H       1  LIG1        0.1425
     28 C          -1.7089    5.4027   -0.4695 C.ar    1  LIG1        0.0713
     29 C          -1.1280    6.6504   -0.3540 C.ar    1  LIG1        0.1559
     30 C          -2.0122    7.7580   -0.5867 C.ar    1  LIG1        0.0746
     31 C          -3.2830    7.3436   -0.8818 C.ar    1  LIG1        0.0006
     32 S          -3.4063    5.6039   -0.8933 S.2     1  LIG1       -0.0905
     33 H          -4.1588    7.9475   -1.0699 H       1  LIG1        0.0713
     34 O           0.2029    6.8960   -0.0620 O.3     1  LIG1       -0.4921
     35 C           0.5224    6.8021    1.3373 C.3     1  LIG1        0.0789
     36 H           1.5818    7.0494    1.4286 H       1  LIG1        0.0660
     37 H          -0.0774    7.5136    1.9148 H       1  LIG1        0.0660
     38 H           0.3506    5.7869    1.7072 H       1  LIG1        0.0660
     39 N          -1.5541    9.0697   -0.4250 N.pl3   1  LIG1       -0.3547
     40 H          -0.5595    9.1443   -0.6036 H       1  LIG1        0.1424
     41 H          -2.0755    9.7578   -0.9520 H       1  LIG1        0.1424
@<TRIPOS>BOND
     1    13    12    1
     2    14    12    1
     3    26    25    1
     4    12     3    1
     5    27    25    1
     6    33    31    1
     7    41    39    1
     8    25    17    1
     9    32    31   ar
    10    32    28   ar
    11    31    30   ar
    12    20    16    1
    13    20    21    1
    14    40    39    1
    15    30    39    1
    16    30    29   ar
    17    17    16   ar
    18    17    18   ar
    19    28    29   ar
    20    28    18    1
    21     9     8    1
    22    16    15   ar
    23     7     8    1
    24     7     2    1
    25    29    34    1
    26    18    19   ar
    27     3     2   ar
    28     3     4   ar
    29    11     8    1
    30    34    35    1
    31    15    19   ar
    32    15     4    1
    33     8    10    1
    34     2     1   ar
    35    22    21    1
    36     4     5   ar
    37    21    23    1
    38    21    24    1
    39     1     5   ar
    40     1     6    1
    41    35    36    1
    42    35    38    1
    43    35    37    1
