@<TRIPOS>MOLECULE
mol_data/opt/b3lyp/geoms/mol2/5li.out
 16 16 0 0 0
SMALL
GASTEIGER

@<TRIPOS>ATOM
      1 C          -2.2607   -1.6389    0.0184 C.ar    1  LIG1        0.0176
      2 C          -0.8906   -1.6532   -0.0003 C.ar    1  LIG1        0.1300
      3 C          -0.2889   -0.3438    0.0275 C.ar    1  LIG1       -0.0018
      4 C          -1.2427    0.6321    0.0670 C.ar    1  LIG1       -0.0178
      5 S          -2.8595   -0.0048    0.0711 S.2     1  LIG1       -0.1011
      6 H          -2.9496   -2.4689    0.0049 H       1  LIG1        0.0730
      7 H          -1.0860    1.7017    0.0942 H       1  LIG1        0.0697
      8 O          -0.0644   -2.7361   -0.0410 O.3     1  LIG1       -0.4943
      9 C          -0.6954   -4.0068   -0.0673 C.3     1  LIG1        0.0788
     10 H           0.1034   -4.7491   -0.0983 H       1  LIG1        0.0660
     11 H          -1.3071   -4.1655    0.8305 H       1  LIG1        0.0660
     12 H          -1.3309   -4.1167   -0.9559 H       1  LIG1        0.0660
     13 C           1.1974   -0.1304    0.0137 C.3     1  LIG1       -0.0357
     14 H           1.4425    0.9343    0.0399 H       1  LIG1        0.0279
     15 H           1.6502   -0.5657   -0.8839 H       1  LIG1        0.0279
     16 H           1.6734   -0.6142    0.8738 H       1  LIG1        0.0279
@<TRIPOS>BOND
     1    12     9    1
     2    15    13    1
     3    10     9    1
     4     9     8    1
     5     9    11    1
     6     8     2    1
     7     2     1   ar
     8     2     3   ar
     9     6     1    1
    10    13     3    1
    11    13    14    1
    12    13    16    1
    13     1     5   ar
    14     3     4   ar
    15     4     5   ar
    16     4     7    1
