@<TRIPOS>MOLECULE
mol_data/opt/b3lyp/geoms/mol2/5li5li5li5li-.out
 58 61 0 0 0
SMALL
GASTEIGER

@<TRIPOS>ATOM
      1 C          -0.4263   -1.7578   -2.0348 C.ar    1  LIG1        0.0183
      2 C          -1.6739   -1.4206   -1.5817 C.ar    1  LIG1        0.1306
      3 C          -1.7493   -0.1270   -0.9601 C.ar    1  LIG1        0.0066
      4 C          -0.5236    0.5111   -0.9591 C.ar    1  LIG1        0.0359
      5 S           0.7150   -0.4885   -1.7186 S.2     1  LIG1       -0.0920
      6 H          -0.1019   -2.6700   -2.5110 H       1  LIG1        0.0730
      7 O          -2.8120   -2.1693   -1.6430 O.3     1  LIG1       -0.4943
      8 C          -2.6897   -3.4502   -2.2403 C.3     1  LIG1        0.0788
      9 H          -3.6812   -3.9038   -2.2056 H       1  LIG1        0.0660
     10 H          -2.3604   -3.3724   -3.2847 H       1  LIG1        0.0660
     11 H          -1.9800   -4.0810   -1.6889 H       1  LIG1        0.0660
     12 C          -3.0393    0.3854   -0.3820 C.3     1  LIG1       -0.0351
     13 H          -3.6638    0.8656   -1.1454 H       1  LIG1        0.0279
     14 H          -2.8648    1.1157    0.4107 H       1  LIG1        0.0279
     15 H          -3.6197   -0.4462    0.0264 H       1  LIG1        0.0279
     16 C          -0.1754    1.8448   -0.4952 C.ar    1  LIG1        0.0687
     17 C           1.0241    2.2932    0.0281 C.ar    1  LIG1        0.1388
     18 C           1.0840    3.6926    0.3158 C.ar    1  LIG1        0.0072
     19 C          -0.0936    4.3351   -0.0067 C.ar    1  LIG1        0.0365
     20 S          -1.2672    3.2038   -0.6663 S.2     1  LIG1       -0.0831
     21 O           2.1139    1.4827    0.2461 O.3     1  LIG1       -0.4937
     22 C           2.0267    0.6632    1.4182 C.3     1  LIG1        0.0789
     23 H           2.9627    0.1042    1.4719 H       1  LIG1        0.0660
     24 H           1.9149    1.2781    2.3197 H       1  LIG1        0.0660
     25 H           1.1887   -0.0385    1.3526 H       1  LIG1        0.0660
     26 C           2.2972    4.3315    0.9241 C.3     1  LIG1       -0.0351
     27 H           2.0194    5.1920    1.5382 H       1  LIG1        0.0279
     28 H           2.9913    4.6780    0.1510 H       1  LIG1        0.0279
     29 H           2.8397    3.6159    1.5466 H       1  LIG1        0.0279
     30 C          -0.4770    5.7321    0.1365 C.ar    1  LIG1        0.0687
     31 C           0.1540    6.8757   -0.3165 C.ar    1  LIG1        0.1388
     32 C          -0.6012    8.0841   -0.1418 C.ar    1  LIG1        0.0072
     33 C          -1.8092    7.8551    0.4973 C.ar    1  LIG1        0.0365
     34 S          -2.0260    6.1448    0.8428 S.2     1  LIG1       -0.0831
     35 O           1.3392    6.8151   -1.0065 O.3     1  LIG1       -0.4937
     36 C           2.4469    7.5196   -0.4385 C.3     1  LIG1        0.0789
     37 H           2.3276    8.6052   -0.5099 H       1  LIG1        0.0660
     38 H           2.5966    7.2469    0.6115 H       1  LIG1        0.0660
     39 H           3.3233    7.2221   -1.0177 H       1  LIG1        0.0660
     40 C          -0.1573    9.3976   -0.7288 C.3     1  LIG1       -0.0351
     41 H          -1.0143   10.0108   -1.0166 H       1  LIG1        0.0279
     42 H           0.4430    9.2151   -1.6247 H       1  LIG1        0.0279
     43 H           0.4498    9.9929   -0.0356 H       1  LIG1        0.0279
     44 C          -2.8302    8.8009    0.9129 C.ar    1  LIG1        0.0681
     45 C          -4.1750    8.5686    1.1454 C.ar    1  LIG1        0.1382
     46 C          -4.9132    9.6968    1.6321 C.ar    1  LIG1       -0.0011
     47 C          -4.1055   10.7909    1.7728 C.ar    1  LIG1       -0.0172
     48 S          -2.4606   10.4701    1.3257 S.2     1  LIG1       -0.0921
     49 H          -4.3828   11.7800    2.1109 H       1  LIG1        0.0697
     50 O          -4.7648    7.3357    0.9943 O.3     1  LIG1       -0.4937
     51 C          -5.2673    7.0682   -0.3211 C.3     1  LIG1        0.0789
     52 H          -5.7281    6.0799   -0.2792 H       1  LIG1        0.0660
     53 H          -6.0197    7.8099   -0.6151 H       1  LIG1        0.0660
     54 H          -4.4575    7.0611   -1.0586 H       1  LIG1        0.0660
     55 C          -6.3797    9.6412    1.9543 C.3     1  LIG1       -0.0357
     56 H          -6.7061   10.5534    2.4598 H       1  LIG1        0.0279
     57 H          -6.6016    8.7872    2.6018 H       1  LIG1        0.0279
     58 H          -6.9888    9.5242    1.0503 H       1  LIG1        0.0279
@<TRIPOS>BOND
     1    10     8    1
     2     6     1    1
     3     8     9    1
     4     8    11    1
     5     8     7    1
     6     1     5   ar
     7     1     2   ar
     8     5     4   ar
     9     7     2    1
    10    42    40    1
    11     2     3   ar
    12    13    12    1
    13    54    51    1
    14    39    36    1
    15    41    40    1
    16    35    36    1
    17    35    31    1
    18     3     4   ar
    19     3    12    1
    20     4    16    1
    21    40    32    1
    22    40    43    1
    23    20    16   ar
    24    20    19   ar
    25    53    51    1
    26    37    36    1
    27    16    17   ar
    28    36    38    1
    29    12    15    1
    30    12    14    1
    31    51    52    1
    32    51    50    1
    33    31    32   ar
    34    31    30   ar
    35    32    33   ar
    36    19    30    1
    37    19    18   ar
    38    17    21    1
    39    17    18   ar
    40    30    34   ar
    41    28    26    1
    42    21    22    1
    43    18    26    1
    44    33    34   ar
    45    33    44    1
    46    44    45   ar
    47    44    48   ar
    48    26    27    1
    49    26    29    1
    50    50    45    1
    51    58    55    1
    52    45    46   ar
    53    48    47   ar
    54    25    22    1
    55    22    23    1
    56    22    24    1
    57    46    47   ar
    58    46    55    1
    59    47    49    1
    60    55    56    1
    61    55    57    1
