@<TRIPOS>MOLECULE
mol_data/opt/b3lyp/geoms/mol2/5li5li5li-.out
 44 46 0 0 0
SMALL
GASTEIGER

@<TRIPOS>ATOM
      1 C          -0.0490   -1.9940   -1.4178 C.ar    1  LIG1        0.0183
      2 C          -1.2557   -1.6336   -0.8812 C.ar    1  LIG1        0.1306
      3 C          -1.2917   -0.3007   -0.3460 C.ar    1  LIG1        0.0066
      4 C          -0.0762    0.3459   -0.4969 C.ar    1  LIG1        0.0359
      5 S           1.1033   -0.7025   -1.2909 S.2     1  LIG1       -0.0920
      6 H           0.2408   -2.9333   -1.8627 H       1  LIG1        0.0730
      7 O          -2.3857   -2.3932   -0.7972 O.3     1  LIG1       -0.4943
      8 C          -2.2964   -3.7118   -1.3116 C.3     1  LIG1        0.0788
      9 H          -3.2749   -4.1698   -1.1602 H       1  LIG1        0.0660
     10 H          -2.0586   -3.7060   -2.3835 H       1  LIG1        0.0660
     11 H          -1.5335   -4.2962   -0.7806 H       1  LIG1        0.0660
     12 C          -2.5377    0.2432    0.2978 C.3     1  LIG1       -0.0351
     13 H          -2.3115    0.8199    1.1989 H       1  LIG1        0.0279
     14 H          -3.2004   -0.5808    0.5704 H       1  LIG1        0.0279
     15 H          -3.0963    0.9013   -0.3791 H       1  LIG1        0.0279
     16 C           0.2974    1.7013   -0.1386 C.ar    1  LIG1        0.0687
     17 C           1.5674    2.2412   -0.0361 C.ar    1  LIG1        0.1388
     18 C           1.6241    3.6377    0.2537 C.ar    1  LIG1        0.0072
     19 C           0.3596    4.1898    0.3850 C.ar    1  LIG1        0.0365
     20 S          -0.8858    2.9680    0.1340 S.2     1  LIG1       -0.0831
     21 O           2.7075    1.5045   -0.2658 O.3     1  LIG1       -0.4937
     22 C           3.2899    0.9330    0.9127 C.3     1  LIG1        0.0789
     23 H           4.1793    0.3915    0.5857 H       1  LIG1        0.0660
     24 H           3.5790    1.7127    1.6275 H       1  LIG1        0.0660
     25 H           2.5959    0.2367    1.3958 H       1  LIG1        0.0660
     26 C           2.9395    4.3608    0.3488 C.3     1  LIG1       -0.0351
     27 H           2.9072    5.3280   -0.1608 H       1  LIG1        0.0279
     28 H           3.7197    3.7535   -0.1163 H       1  LIG1        0.0279
     29 H           3.2364    4.5510    1.3875 H       1  LIG1        0.0279
     30 C          -0.0288    5.5463    0.7192 C.ar    1  LIG1        0.0681
     31 C          -1.2666    6.1493    0.5681 C.ar    1  LIG1        0.1382
     32 C          -1.3572    7.4923    1.0602 C.ar    1  LIG1       -0.0011
     33 C          -0.1655    7.9043    1.5883 C.ar    1  LIG1       -0.0172
     34 S           1.0637    6.6838    1.5014 S.2     1  LIG1       -0.0921
     35 H           0.0684    8.8649    2.0265 H       1  LIG1        0.0697
     36 O          -2.3582    5.4911    0.0500 O.3     1  LIG1       -0.4937
     37 C          -2.5554    5.6747   -1.3581 C.3     1  LIG1        0.0789
     38 H          -3.4614    5.1237   -1.6162 H       1  LIG1        0.0660
     39 H          -2.6912    6.7344   -1.6043 H       1  LIG1        0.0660
     40 H          -1.7108    5.2748   -1.9295 H       1  LIG1        0.0660
     41 C          -2.6195    8.3064    1.0077 C.3     1  LIG1       -0.0357
     42 H          -2.5392    9.1969    1.6360 H       1  LIG1        0.0279
     43 H          -3.4742    7.7154    1.3509 H       1  LIG1        0.0279
     44 H          -2.8471    8.6395   -0.0119 H       1  LIG1        0.0279
@<TRIPOS>BOND
     1    10     8    1
     2    40    37    1
     3     6     1    1
     4    38    37    1
     5    39    37    1
     6     1     5   ar
     7     1     2   ar
     8    37    36    1
     9     8     9    1
    10     8     7    1
    11     8    11    1
    12     5     4   ar
    13     2     7    1
    14     2     3   ar
    15     4     3   ar
    16     4    16    1
    17    15    12    1
    18     3    12    1
    19    21    17    1
    20    21    22    1
    21    27    26    1
    22    16    17   ar
    23    16    20   ar
    24    28    26    1
    25    17    18   ar
    26    44    41    1
    27    36    31    1
    28    20    19   ar
    29    18    26    1
    30    18    19   ar
    31    12    14    1
    32    12    13    1
    33    26    29    1
    34    19    30    1
    35    31    30   ar
    36    31    32   ar
    37    23    22    1
    38    30    34   ar
    39    22    25    1
    40    22    24    1
    41    41    32    1
    42    41    43    1
    43    41    42    1
    44    32    33   ar
    45    34    33   ar
    46    33    35    1
