@<TRIPOS>MOLECULE
mol_data/opt/b3lyp/geoms/mol2/5li5li-5li-.out
 44 46 0 0 0
SMALL
GASTEIGER

@<TRIPOS>ATOM
      1 C           0.1624   -1.9727   -1.4159 C.ar    1  LIG1        0.0183
      2 C          -1.0589   -1.6677   -0.8776 C.ar    1  LIG1        0.1306
      3 C          -1.1550   -0.3381   -0.3422 C.ar    1  LIG1        0.0066
      4 C           0.0295    0.3634   -0.4945 C.ar    1  LIG1        0.0359
      5 S           1.2546   -0.6300   -1.2903 S.2     1  LIG1       -0.0920
      6 H           0.4940   -2.8977   -1.8615 H       1  LIG1        0.0730
      7 O          -2.1529   -2.4782   -0.7923 O.3     1  LIG1       -0.4943
      8 C          -2.0040   -3.7915   -1.3064 C.3     1  LIG1        0.0788
      9 H          -2.9602   -4.2939   -1.1535 H       1  LIG1        0.0660
     10 H          -1.7683   -3.7753   -2.3787 H       1  LIG1        0.0660
     11 H          -1.2142   -4.3401   -0.7764 H       1  LIG1        0.0660
     12 C          -2.4236    0.1483    0.3039 C.3     1  LIG1       -0.0351
     13 H          -2.2225    0.7344    1.2049 H       1  LIG1        0.0279
     14 H          -3.0474   -0.7053    0.5772 H       1  LIG1        0.0279
     15 H          -3.0128    0.7803   -0.3719 H       1  LIG1        0.0279
     16 C           0.3415    1.7343   -0.1365 C.ar    1  LIG1        0.0687
     17 C           1.5856    2.3317   -0.0355 C.ar    1  LIG1        0.1388
     18 C           1.5788    3.7292    0.2544 C.ar    1  LIG1        0.0072
     19 C           0.2906    4.2230    0.3875 C.ar    1  LIG1        0.0365
     20 S          -0.8980    2.9457    0.1379 S.2     1  LIG1       -0.0831
     21 O           2.7579    1.6479   -0.2670 O.3     1  LIG1       -0.4937
     22 C           3.3674    1.1036    0.9107 C.3     1  LIG1        0.0789
     23 H           4.2802    0.6033    0.5824 H       1  LIG1        0.0660
     24 H           3.6215    1.8956    1.6252 H       1  LIG1        0.0660
     25 H           2.7067    0.3762    1.3946 H       1  LIG1        0.0660
     26 C           2.8599    4.5118    0.3477 C.3     1  LIG1       -0.0351
     27 H           2.7826    5.4766   -0.1614 H       1  LIG1        0.0279
     28 H           3.6663    3.9409   -0.1189 H       1  LIG1        0.0279
     29 H           3.1495    4.7150    1.3861 H       1  LIG1        0.0279
     30 C          -0.1589    5.5603    0.7226 C.ar    1  LIG1        0.0681
     31 C          -1.4231    6.1062    0.5732 C.ar    1  LIG1        0.1382
     32 C          -1.5743    7.4436    1.0657 C.ar    1  LIG1       -0.0011
     33 C          -0.4019    7.9095    1.5923 C.ar    1  LIG1       -0.0172
     34 S           0.8815    6.7464    1.5036 S.2     1  LIG1       -0.0921
     35 H          -0.2115    8.8797    2.0305 H       1  LIG1        0.0697
     36 O          -2.4843    5.3990    0.0564 O.3     1  LIG1       -0.4937
     37 C          -2.6916    5.5738   -1.3514 C.3     1  LIG1        0.0789
     38 H          -3.5717    4.9818   -1.6084 H       1  LIG1        0.0660
     39 H          -2.8762    6.6262   -1.5970 H       1  LIG1        0.0660
     40 H          -1.8303    5.2133   -1.9240 H       1  LIG1        0.0660
     41 C          -2.8723    8.1993    1.0146 C.3     1  LIG1       -0.0357
     42 H          -2.8334    9.0906    1.6457 H       1  LIG1        0.0279
     43 H          -3.6994    7.5687    1.3552 H       1  LIG1        0.0279
     44 H          -3.1142    8.5250   -0.0042 H       1  LIG1        0.0279
@<TRIPOS>BOND
     1    10     8    1
     2    40    37    1
     3     6     1    1
     4    38    37    1
     5    39    37    1
     6     1     5   ar
     7     1     2   ar
     8    37    36    1
     9     8     9    1
    10     8     7    1
    11     8    11    1
    12     5     4   ar
    13     2     7    1
    14     2     3   ar
    15     4     3   ar
    16     4    16    1
    17    15    12    1
    18     3    12    1
    19    21    17    1
    20    21    22    1
    21    27    26    1
    22    16    17   ar
    23    16    20   ar
    24    28    26    1
    25    17    18   ar
    26    44    41    1
    27    36    31    1
    28    20    19   ar
    29    18    26    1
    30    18    19   ar
    31    12    14    1
    32    12    13    1
    33    26    29    1
    34    19    30    1
    35    31    30   ar
    36    31    32   ar
    37    23    22    1
    38    30    34   ar
    39    22    25    1
    40    22    24    1
    41    41    32    1
    42    41    43    1
    43    41    42    1
    44    32    33   ar
    45    34    33   ar
    46    33    35    1
