@<TRIPOS>MOLECULE
mol_data/opt/b3lyp/geoms/mol2/5li5li.out
 30 31 0 0 0
SMALL
GASTEIGER

@<TRIPOS>ATOM
      1 C          -2.0327   -1.8833    0.8487 C.ar    1  LIG1        0.0183
      2 C          -0.9397   -1.9597    0.0255 C.ar    1  LIG1        0.1306
      3 C          -0.4411   -0.6853   -0.4195 C.ar    1  LIG1        0.0066
      4 C          -1.1757    0.3561    0.1048 C.ar    1  LIG1        0.0359
      5 S          -2.4797   -0.2283    1.1319 S.2     1  LIG1       -0.0920
      6 H          -2.6006   -2.6831    1.2978 H       1  LIG1        0.0730
      7 O          -0.3093   -3.0833   -0.4174 O.3     1  LIG1       -0.4943
      8 C          -0.8616   -4.3217    0.0009 C.3     1  LIG1        0.0788
      9 H          -0.2454   -5.1022   -0.4474 H       1  LIG1        0.0660
     10 H          -0.8358   -4.4198    1.0942 H       1  LIG1        0.0660
     11 H          -1.8984   -4.4313   -0.3430 H       1  LIG1        0.0660
     12 C           0.7135   -0.5591   -1.3704 C.3     1  LIG1       -0.0351
     13 H           1.6760   -0.6028   -0.8475 H       1  LIG1        0.0279
     14 H           0.6765    0.3919   -1.9054 H       1  LIG1        0.0279
     15 H           0.6984   -1.3796   -2.0930 H       1  LIG1        0.0279
     16 C          -0.9900    1.7851   -0.1025 C.ar    1  LIG1        0.0681
     17 C           0.1641    2.5410   -0.0239 C.ar    1  LIG1        0.1382
     18 C          -0.0056    3.9268   -0.3664 C.ar    1  LIG1       -0.0011
     19 C          -1.3050    4.2048   -0.6850 C.ar    1  LIG1       -0.0172
     20 S          -2.3326    2.8109   -0.5894 S.2     1  LIG1       -0.0921
     21 H          -1.7244    5.1625   -0.9616 H       1  LIG1        0.0697
     22 O           1.4105    2.0868    0.3244 O.3     1  LIG1       -0.4937
     23 C           1.5308    1.4923    1.6213 C.3     1  LIG1        0.0789
     24 H           2.5986    1.3287    1.7798 H       1  LIG1        0.0660
     25 H           1.1457    2.1646    2.3971 H       1  LIG1        0.0660
     26 H           1.0028    0.5360    1.6800 H       1  LIG1        0.0660
     27 C           1.1266    4.9134   -0.3498 C.3     1  LIG1       -0.0357
     28 H           0.7785    5.9155   -0.6127 H       1  LIG1        0.0279
     29 H           1.9111    4.6256   -1.0578 H       1  LIG1        0.0279
     30 H           1.5961    4.9619    0.6386 H       1  LIG1        0.0279
@<TRIPOS>BOND
     1    15    12    1
     2    14    12    1
     3    12    13    1
     4    12     3    1
     5    29    27    1
     6    21    19    1
     7    19    20   ar
     8    19    18   ar
     9    28    27    1
    10    20    16   ar
    11     9     8    1
    12     3     2   ar
    13     3     4   ar
    14     7     8    1
    15     7     2    1
    16    18    27    1
    17    18    17   ar
    18    27    30    1
    19    11     8    1
    20    16    17   ar
    21    16     4    1
    22    17    22    1
    23     8    10    1
    24     2     1   ar
    25     4     5   ar
    26    22    23    1
    27     1     5   ar
    28     1     6    1
    29    23    26    1
    30    23    24    1
    31    23    25    1
