@<TRIPOS>MOLECULE
mol_data/opt/b3lyp/geoms/mol2/5li5li-5li5li.out
 58 61 0 0 0
SMALL
GASTEIGER

@<TRIPOS>ATOM
      1 C          -0.3834   -1.7318   -2.0669 C.ar    1  LIG1        0.0183
      2 C          -1.6202   -1.4213   -1.5674 C.ar    1  LIG1        0.1306
      3 C          -1.6981   -0.1326   -0.9358 C.ar    1  LIG1        0.0066
      4 C          -0.4857    0.5291   -0.9750 C.ar    1  LIG1        0.0359
      5 S           0.7437   -0.4419   -1.7845 S.2     1  LIG1       -0.0920
      6 H          -0.0588   -2.6350   -2.5597 H       1  LIG1        0.0730
      7 O          -2.7452   -2.1916   -1.5921 O.3     1  LIG1       -0.4943
      8 C          -2.6199   -3.4667   -2.2010 C.3     1  LIG1        0.0788
      9 H          -3.6005   -3.9398   -2.1332 H       1  LIG1        0.0660
     10 H          -2.3303   -3.3770   -3.2562 H       1  LIG1        0.0660
     11 H          -1.8786   -4.0864   -1.6795 H       1  LIG1        0.0660
     12 C          -2.9759    0.3517   -0.3086 C.3     1  LIG1       -0.0351
     13 H          -2.7873    1.0873    0.4759 H       1  LIG1        0.0279
     14 H          -3.5214   -0.4919    0.1228 H       1  LIG1        0.0279
     15 H          -3.6401    0.8162   -1.0479 H       1  LIG1        0.0279
     16 C          -0.1469    1.8669   -0.5156 C.ar    1  LIG1        0.0687
     17 C           1.0587    2.3333   -0.0231 C.ar    1  LIG1        0.1388
     18 C           1.1033    3.7327    0.2674 C.ar    1  LIG1        0.0072
     19 C          -0.0928    4.3567   -0.0216 C.ar    1  LIG1        0.0365
     20 S          -1.2650    3.2082   -0.6534 S.2     1  LIG1       -0.0831
     21 O           2.1672    1.5408    0.1638 O.3     1  LIG1       -0.4937
     22 C           2.1210    0.7096    1.3300 C.3     1  LIG1        0.0789
     23 H           3.0685    0.1683    1.3584 H       1  LIG1        0.0660
     24 H           2.0173    1.3145    2.2392 H       1  LIG1        0.0660
     25 H           1.2954   -0.0074    1.2763 H       1  LIG1        0.0660
     26 C           2.3214    4.3897    0.8459 C.3     1  LIG1       -0.0351
     27 H           2.0457    5.2433    1.4705 H       1  LIG1        0.0279
     28 H           2.9890    4.7505    0.0561 H       1  LIG1        0.0279
     29 H           2.8919    3.6809    1.4509 H       1  LIG1        0.0279
     30 C          -0.4947    5.7468    0.1368 C.ar    1  LIG1        0.0687
     31 C           0.1055    6.9018   -0.3292 C.ar    1  LIG1        0.1388
     32 C          -0.6636    8.0974   -0.1294 C.ar    1  LIG1        0.0072
     33 C          -1.8499    7.8471    0.5416 C.ar    1  LIG1        0.0365
     34 S          -2.0300    6.1324    0.8866 S.2     1  LIG1       -0.0831
     35 O           1.2722    6.8622   -1.0515 O.3     1  LIG1       -0.4937
     36 C           2.3838    7.5825   -0.5119 C.3     1  LIG1        0.0789
     37 H           3.2490    7.2991   -1.1145 H       1  LIG1        0.0660
     38 H           2.2462    8.6663   -0.5782 H       1  LIG1        0.0660
     39 H           2.5654    7.3108    0.5334 H       1  LIG1        0.0660
     40 C          -0.2566    9.4198   -0.7233 C.3     1  LIG1       -0.0351
     41 H           0.3602   10.0220   -0.0447 H       1  LIG1        0.0279
     42 H          -1.1305   10.0205   -0.9849 H       1  LIG1        0.0279
     43 H           0.3215    9.2498   -1.6361 H       1  LIG1        0.0279
     44 C          -2.8739    8.7752    0.9887 C.ar    1  LIG1        0.0681
     45 C          -4.2076    8.5205    1.2583 C.ar    1  LIG1        0.1382
     46 C          -4.9498    9.6353    1.7693 C.ar    1  LIG1       -0.0011
     47 C          -4.1562   10.7420    1.8908 C.ar    1  LIG1       -0.0172
     48 S          -2.5196   10.4491    1.3964 S.2     1  LIG1       -0.0921
     49 H          -4.4397   11.7255    2.2397 H       1  LIG1        0.0697
     50 O          -4.7817    7.2788    1.1200 O.3     1  LIG1       -0.4937
     51 C          -5.3164    7.0065   -0.1817 C.3     1  LIG1        0.0789
     52 H          -5.7598    6.0107   -0.1299 H       1  LIG1        0.0660
     53 H          -6.0886    7.7366   -0.4523 H       1  LIG1        0.0660
     54 H          -4.5276    7.0144   -0.9416 H       1  LIG1        0.0660
     55 C          -6.4055    9.5551    2.1329 C.3     1  LIG1       -0.0357
     56 H          -6.7328   10.4619    2.6474 H       1  LIG1        0.0279
     57 H          -6.5944    8.6978    2.7865 H       1  LIG1        0.0279
     58 H          -7.0379    9.4272    1.2466 H       1  LIG1        0.0279
@<TRIPOS>BOND
     1    10     8    1
     2     6     1    1
     3     8     9    1
     4     8    11    1
     5     8     7    1
     6     1     5   ar
     7     1     2   ar
     8     5     4   ar
     9    43    40    1
    10     7     2    1
    11     2     3   ar
    12    37    36    1
    13    35    36    1
    14    35    31    1
    15    15    12    1
    16    42    40    1
    17     4     3   ar
    18     4    16    1
    19    54    51    1
    20     3    12    1
    21    40    32    1
    22    40    41    1
    23    20    16   ar
    24    20    19   ar
    25    38    36    1
    26    16    17   ar
    27    36    39    1
    28    53    51    1
    29    31    32   ar
    30    31    30   ar
    31    12    14    1
    32    12    13    1
    33    51    52    1
    34    51    50    1
    35    32    33   ar
    36    17    21    1
    37    17    18   ar
    38    19    30    1
    39    19    18   ar
    40    28    26    1
    41    30    34   ar
    42    21    22    1
    43    18    26    1
    44    33    34   ar
    45    33    44    1
    46    26    29    1
    47    26    27    1
    48    44    45   ar
    49    44    48   ar
    50    50    45    1
    51    58    55    1
    52    45    46   ar
    53    25    22    1
    54    22    23    1
    55    22    24    1
    56    48    47   ar
    57    46    47   ar
    58    46    55    1
    59    47    49    1
    60    55    56    1
    61    55    57    1
