@<TRIPOS>MOLECULE
mol_data/opt/b3lyp/geoms/mol2/5li5li-5li.out
 44 46 0 0 0
SMALL
GASTEIGER

@<TRIPOS>ATOM
      1 C          -0.0140   -1.9920   -1.4193 C.ar    1  LIG1        0.0183
      2 C          -1.2138   -1.6472   -0.8572 C.ar    1  LIG1        0.1306
      3 C          -1.2569   -0.3138   -0.3242 C.ar    1  LIG1        0.0066
      4 C          -0.0542    0.3495   -0.5029 C.ar    1  LIG1        0.0359
      5 S           1.1224   -0.6841   -1.3203 S.2     1  LIG1       -0.0920
      6 H           0.2790   -2.9281   -1.8687 H       1  LIG1        0.0730
      7 O          -2.3308   -2.4224   -0.7469 O.3     1  LIG1       -0.4943
      8 C          -2.2342   -3.7410   -1.2602 C.3     1  LIG1        0.0788
      9 H          -3.2024   -4.2124   -1.0863 H       1  LIG1        0.0660
     10 H          -2.0201   -3.7346   -2.3371 H       1  LIG1        0.0660
     11 H          -1.4515   -4.3132   -0.7449 H       1  LIG1        0.0660
     12 C          -2.4960    0.2140    0.3461 C.3     1  LIG1       -0.0351
     13 H          -2.2581    0.7965    1.2404 H       1  LIG1        0.0279
     14 H          -3.1403   -0.6188    0.6356 H       1  LIG1        0.0279
     15 H          -3.0792    0.8618   -0.3198 H       1  LIG1        0.0279
     16 C           0.3081    1.7108   -0.1557 C.ar    1  LIG1        0.0687
     17 C           1.5723    2.2686   -0.0813 C.ar    1  LIG1        0.1388
     18 C           1.6156    3.6665    0.2039 C.ar    1  LIG1        0.0072
     19 C           0.3466    4.2014    0.3605 C.ar    1  LIG1        0.0365
     20 S          -0.8866    2.9617    0.1387 S.2     1  LIG1       -0.0831
     21 O           2.7176    1.5473   -0.3332 O.3     1  LIG1       -0.4937
     22 C           3.3319    0.9865    0.8342 C.3     1  LIG1        0.0789
     23 H           4.2218    0.4566    0.4900 H       1  LIG1        0.0660
     24 H           3.6248    1.7717    1.5413 H       1  LIG1        0.0660
     25 H           2.6577    0.2817    1.3328 H       1  LIG1        0.0660
     26 C           2.9226    4.4081    0.2694 C.3     1  LIG1       -0.0351
     27 H           2.8662    5.3731   -0.2421 H       1  LIG1        0.0279
     28 H           3.7012    3.8102   -0.2103 H       1  LIG1        0.0279
     29 H           3.2384    4.6056    1.3012 H       1  LIG1        0.0279
     30 C          -0.0536    5.5532    0.6995 C.ar    1  LIG1        0.0681
     31 C          -1.3027    6.1384    0.5735 C.ar    1  LIG1        0.1382
     32 C          -1.4015    7.4815    1.0639 C.ar    1  LIG1       -0.0011
     33 C          -0.2046    7.9118    1.5650 C.ar    1  LIG1       -0.0172
     34 S           1.0394    6.7082    1.4549 S.2     1  LIG1       -0.0921
     35 H           0.0252    8.8768    1.9955 H       1  LIG1        0.0697
     36 O          -2.3959    5.4636    0.0808 O.3     1  LIG1       -0.4937
     37 C          -2.6264    5.6411   -1.3230 C.3     1  LIG1        0.0789
     38 H          -3.5293    5.0759   -1.5603 H       1  LIG1        0.0660
     39 H          -2.7835    6.6980   -1.5681 H       1  LIG1        0.0660
     40 H          -1.7884    5.2528   -1.9119 H       1  LIG1        0.0660
     41 C          -2.6758    8.2779    1.0363 C.3     1  LIG1       -0.0357
     42 H          -2.5951    9.1704    1.6618 H       1  LIG1        0.0279
     43 H          -3.5149    7.6755    1.3978 H       1  LIG1        0.0279
     44 H          -2.9290    8.6063    0.0212 H       1  LIG1        0.0279
@<TRIPOS>BOND
     1    10     8    1
     2    40    37    1
     3     6     1    1
     4    39    37    1
     5    38    37    1
     6     1     5   ar
     7     1     2   ar
     8    37    36    1
     9     5     4   ar
    10     8     9    1
    11     8     7    1
    12     8    11    1
    13     2     7    1
    14     2     3   ar
    15     4     3   ar
    16     4    16    1
    17    21    17    1
    18    21    22    1
    19     3    12    1
    20    15    12    1
    21    27    26    1
    22    28    26    1
    23    16    17   ar
    24    16    20   ar
    25    17    18   ar
    26    44    41    1
    27    36    31    1
    28    20    19   ar
    29    18    26    1
    30    18    19   ar
    31    26    29    1
    32    12    14    1
    33    12    13    1
    34    19    30    1
    35    23    22    1
    36    31    30   ar
    37    31    32   ar
    38    30    34   ar
    39    22    25    1
    40    22    24    1
    41    41    32    1
    42    41    43    1
    43    41    42    1
    44    32    33   ar
    45    34    33   ar
    46    33    35    1
