@<TRIPOS>MOLECULE
mol_data/opt/b3lyp/geoms/mol2/5li5li5li-5li.out
 58 61 0 0 0
SMALL
GASTEIGER

@<TRIPOS>ATOM
      1 C           1.0696   -2.0702   -1.2330 C.ar    1  LIG1        0.0183
      2 C          -0.0589   -1.7221   -1.9256 C.ar    1  LIG1        0.1306
      3 C          -0.5754   -0.4214   -1.6012 C.ar    1  LIG1        0.0066
      4 C           0.1983    0.2141   -0.6444 C.ar    1  LIG1        0.0359
      5 S           1.5518   -0.8062   -0.1461 S.2     1  LIG1       -0.0920
      6 H           1.6364   -2.9871   -1.2789 H       1  LIG1        0.0730
      7 O          -0.7255   -2.4676   -2.8534 O.3     1  LIG1       -0.4943
      8 C          -0.2000   -3.7578   -3.1188 C.3     1  LIG1        0.0788
      9 H          -0.8509   -4.2085   -3.8693 H       1  LIG1        0.0660
     10 H           0.8232   -3.6982   -3.5126 H       1  LIG1        0.0660
     11 H          -0.1982   -4.3814   -2.2151 H       1  LIG1        0.0660
     12 C          -1.8238    0.1035   -2.2562 C.3     1  LIG1       -0.0351
     13 H          -1.5979    0.7935   -3.0786 H       1  LIG1        0.0279
     14 H          -2.4599    0.6396   -1.5467 H       1  LIG1        0.0279
     15 H          -2.3954   -0.7265   -2.6767 H       1  LIG1        0.0279
     16 C           0.0551    1.5415   -0.0766 C.ar    1  LIG1        0.0687
     17 C           0.6413    2.0517    1.0689 C.ar    1  LIG1        0.1388
     18 C           0.3850    3.4302    1.3337 C.ar    1  LIG1        0.0072
     19 C          -0.4270    4.0000    0.3650 C.ar    1  LIG1        0.0365
     20 S          -0.8544    2.8158   -0.8689 S.2     1  LIG1       -0.0831
     21 O           1.4787    1.3074    1.8685 O.3     1  LIG1       -0.4937
     22 C           0.8249    0.6538    2.9640 C.3     1  LIG1        0.0789
     23 H           1.6031    0.1223    3.5147 H       1  LIG1        0.0660
     24 H           0.3411    1.3817    3.6260 H       1  LIG1        0.0660
     25 H           0.0786   -0.0629    2.6045 H       1  LIG1        0.0660
     26 C           0.9949    4.1228    2.5215 C.3     1  LIG1       -0.0351
     27 H           1.3504    5.1249    2.2670 H       1  LIG1        0.0279
     28 H           1.8429    3.5368    2.8842 H       1  LIG1        0.0279
     29 H           0.2846    4.2318    3.3503 H       1  LIG1        0.0279
     30 C          -0.9687    5.3413    0.2852 C.ar    1  LIG1        0.0687
     31 C          -1.4901    5.9977   -0.8186 C.ar    1  LIG1        0.1388
     32 C          -2.0181    7.3011   -0.5691 C.ar    1  LIG1        0.0072
     33 C          -1.9010    7.6566    0.7584 C.ar    1  LIG1        0.0365
     34 S          -1.1513    6.3721    1.6936 S.2     1  LIG1       -0.0831
     35 O          -1.5297    5.4354   -2.0744 O.3     1  LIG1       -0.4937
     36 C          -0.3346    5.6214   -2.8459 C.3     1  LIG1        0.0789
     37 H          -0.5102    5.1342   -3.8066 H       1  LIG1        0.0660
     38 H          -0.1315    6.6869   -3.0070 H       1  LIG1        0.0660
     39 H           0.5291    5.1591   -2.3565 H       1  LIG1        0.0660
     40 C          -2.6118    8.1536   -1.6519 C.3     1  LIG1       -0.0351
     41 H          -2.5037    9.2152   -1.4154 H       1  LIG1        0.0279
     42 H          -3.6795    7.9433   -1.7744 H       1  LIG1        0.0279
     43 H          -2.1324    7.9586   -2.6142 H       1  LIG1        0.0279
     44 C          -2.2775    8.8909    1.4314 C.ar    1  LIG1        0.0681
     45 C          -3.4907    9.5558    1.4377 C.ar    1  LIG1        0.1382
     46 C          -3.5225   10.7173    2.2922 C.ar    1  LIG1       -0.0011
     47 C          -2.3160   10.9107    2.9073 C.ar    1  LIG1       -0.0172
     48 S          -1.1395    9.7140    2.4867 S.2     1  LIG1       -0.0921
     49 H          -2.0623   11.6904    3.6126 H       1  LIG1        0.0697
     50 O          -4.5755    9.0355    0.7806 O.3     1  LIG1       -0.4937
     51 C          -5.2599    9.8863   -0.1404 C.3     1  LIG1        0.0789
     52 H          -5.8969    9.2331   -0.7402 H       1  LIG1        0.0660
     53 H          -5.8915   10.6216    0.3679 H       1  LIG1        0.0660
     54 H          -4.5586   10.4102   -0.7999 H       1  LIG1        0.0660
     55 C          -4.7353   11.5692    2.5555 C.3     1  LIG1       -0.0357
     56 H          -4.5725   12.2044    3.4299 H       1  LIG1        0.0279
     57 H          -5.6166   10.9490    2.7509 H       1  LIG1        0.0279
     58 H          -4.9755   12.2272    1.7124 H       1  LIG1        0.0279
@<TRIPOS>BOND
     1     9     8    1
     2    37    36    1
     3    10     8    1
     4     8     7    1
     5     8    11    1
     6    13    12    1
     7    38    36    1
     8     7     2    1
     9    36    39    1
    10    36    35    1
    11    15    12    1
    12    43    40    1
    13    12     3    1
    14    12    14    1
    15    35    31    1
    16     2     3   ar
    17     2     1   ar
    18    42    40    1
    19    40    41    1
    20    40    32    1
    21     3     4   ar
    22     6     1    1
    23     1     5   ar
    24    20    16   ar
    25    20    19   ar
    26    31    32   ar
    27    31    30   ar
    28    54    51    1
    29    52    51    1
    30     4     5   ar
    31     4    16    1
    32    32    33   ar
    33    51    53    1
    34    51    50    1
    35    16    17   ar
    36    30    19    1
    37    30    34   ar
    38    19    18   ar
    39    33    44    1
    40    33    34   ar
    41    50    45    1
    42    17    18   ar
    43    17    21    1
    44    18    26    1
    45    44    45   ar
    46    44    48   ar
    47    45    46   ar
    48    58    55    1
    49    21    22    1
    50    27    26    1
    51    46    55    1
    52    46    47   ar
    53    48    47   ar
    54    26    28    1
    55    26    29    1
    56    55    57    1
    57    55    56    1
    58    25    22    1
    59    47    49    1
    60    22    23    1
    61    22    24    1
