@<TRIPOS>MOLECULE
mol_data/opt/b3lyp/geoms/mol2/5li5li5li5li.out
 58 61 0 0 0
SMALL
GASTEIGER

@<TRIPOS>ATOM
      1 C           1.0480   -1.8958   -1.1078 C.ar    1  LIG1        0.0183
      2 C           0.0965   -1.5033   -2.0107 C.ar    1  LIG1        0.1306
      3 C          -0.4374   -0.1906   -1.7750 C.ar    1  LIG1        0.0066
      4 C           0.1417    0.4079   -0.6684 C.ar    1  LIG1        0.0359
      5 S           1.3328   -0.6616    0.0783 S.2     1  LIG1       -0.0920
      6 H           1.5857   -2.8297   -1.0535 H       1  LIG1        0.0730
      7 O          -0.3864   -2.2150   -3.0693 O.3     1  LIG1       -0.4943
      8 C           0.1470   -3.5171   -3.2475 C.3     1  LIG1        0.0788
      9 H          -0.3487   -3.9372   -4.1238 H       1  LIG1        0.0660
     10 H           1.2303   -3.4832   -3.4228 H       1  LIG1        0.0660
     11 H          -0.0531   -4.1530   -2.3750 H       1  LIG1        0.0660
     12 C          -1.5084    0.3820   -2.6627 C.3     1  LIG1       -0.0351
     13 H          -1.0970    1.0694   -3.4121 H       1  LIG1        0.0279
     14 H          -2.2580    0.9349   -2.0902 H       1  LIG1        0.0279
     15 H          -2.0087   -0.4248   -3.2025 H       1  LIG1        0.0279
     16 C          -0.0758    1.7328   -0.1183 C.ar    1  LIG1        0.0687
     17 C           0.2723    2.2083    1.1342 C.ar    1  LIG1        0.1388
     18 C           0.0028    3.5900    1.3672 C.ar    1  LIG1        0.0072
     19 C          -0.5746    4.1974    0.2625 C.ar    1  LIG1        0.0365
     20 S          -0.7621    3.0451   -1.0586 S.2     1  LIG1       -0.0831
     21 O           0.9031    1.4268    2.0752 O.3     1  LIG1       -0.4937
     22 C           0.0185    0.7879    3.0047 C.3     1  LIG1        0.0789
     23 H           0.6499    0.2203    3.6906 H       1  LIG1        0.0660
     24 H          -0.5615    1.5275    3.5696 H       1  LIG1        0.0660
     25 H          -0.6662    0.1053    2.4899 H       1  LIG1        0.0660
     26 C           0.3714    4.2471    2.6690 C.3     1  LIG1       -0.0351
     27 H           0.8186    5.2328    2.5123 H       1  LIG1        0.0279
     28 H           1.0953    3.6216    3.1966 H       1  LIG1        0.0279
     29 H          -0.4955    4.3849    3.3268 H       1  LIG1        0.0279
     30 C          -1.0414    5.5592    0.0966 C.ar    1  LIG1        0.0687
     31 C          -1.3444    6.2251   -1.0802 C.ar    1  LIG1        0.1388
     32 C          -1.8700    7.5456   -0.9241 C.ar    1  LIG1        0.0072
     33 C          -1.9822    7.9025    0.4018 C.ar    1  LIG1        0.0365
     34 S          -1.4067    6.6146    1.4533 S.2     1  LIG1       -0.0831
     35 O          -1.2324    5.6310   -2.3161 O.3     1  LIG1       -0.4937
     36 C           0.0050    5.8895   -2.9935 C.3     1  LIG1        0.0789
     37 H          -0.0545    5.3697   -3.9512 H       1  LIG1        0.0660
     38 H           0.1431    6.9627   -3.1688 H       1  LIG1        0.0660
     39 H           0.8547    5.5026   -2.4208 H       1  LIG1        0.0660
     40 C          -2.2825    8.3976   -2.0911 C.3     1  LIG1       -0.0351
     41 H          -1.4250    8.9093   -2.5445 H       1  LIG1        0.0279
     42 H          -2.9936    9.1669   -1.7815 H       1  LIG1        0.0279
     43 H          -2.7394    7.7782   -2.8685 H       1  LIG1        0.0279
     44 C          -2.4136    9.1723    0.9828 C.ar    1  LIG1        0.0681
     45 C          -3.4988    9.4901    1.7791 C.ar    1  LIG1        0.1382
     46 C          -3.5047   10.8469    2.2644 C.ar    1  LIG1       -0.0011
     47 C          -2.4178   11.5425    1.8205 C.ar    1  LIG1       -0.0172
     48 S          -1.3722   10.5897    0.8214 S.2     1  LIG1       -0.0921
     49 H          -2.1846   12.5815    2.0111 H       1  LIG1        0.0697
     50 O          -4.5474    8.7078    2.1570 O.3     1  LIG1       -0.4937
     51 C          -4.9608    7.6294    1.3176 C.3     1  LIG1        0.0789
     52 H          -5.9634    7.3599    1.6559 H       1  LIG1        0.0660
     53 H          -4.9985    7.9419    0.2684 H       1  LIG1        0.0660
     54 H          -4.3010    6.7632    1.4115 H       1  LIG1        0.0660
     55 C          -4.6021   11.3889    3.1340 C.3     1  LIG1       -0.0357
     56 H          -4.4396   12.4464    3.3570 H       1  LIG1        0.0279
     57 H          -4.6617   10.8433    4.0821 H       1  LIG1        0.0279
     58 H          -5.5778   11.2833    2.6479 H       1  LIG1        0.0279
@<TRIPOS>BOND
     1     9     8    1
     2    37    36    1
     3    10     8    1
     4    13    12    1
     5     8     7    1
     6     8    11    1
     7    15    12    1
     8    38    36    1
     9     7     2    1
    10    36    39    1
    11    36    35    1
    12    43    40    1
    13    12    14    1
    14    12     3    1
    15    41    40    1
    16    35    31    1
    17    40    42    1
    18    40    32    1
    19     2     3   ar
    20     2     1   ar
    21     3     4   ar
    22     1     6    1
    23     1     5   ar
    24    31    32   ar
    25    31    30   ar
    26    20    16   ar
    27    20    19   ar
    28    32    33   ar
    29     4    16    1
    30     4     5   ar
    31    16    17   ar
    32    30    19    1
    33    30    34   ar
    34    19    18   ar
    35    53    51    1
    36    33    44    1
    37    33    34   ar
    38    48    44   ar
    39    48    47   ar
    40    44    45   ar
    41    17    18   ar
    42    17    21    1
    43    51    54    1
    44    51    52    1
    45    51    50    1
    46    18    26    1
    47    45    50    1
    48    45    46   ar
    49    47    49    1
    50    47    46   ar
    51    21    22    1
    52    46    55    1
    53    25    22    1
    54    27    26    1
    55    58    55    1
    56    26    28    1
    57    26    29    1
    58    22    24    1
    59    22    23    1
    60    55    56    1
    61    55    57    1
