@<TRIPOS>MOLECULE
mol_data/opt/b3lyp/geoms/mol2/5li5li-5li5li-.out
 58 61 0 0 0
SMALL
GASTEIGER

@<TRIPOS>ATOM
      1 C          -0.4497   -1.7387   -2.0812 C.ar    1  LIG1        0.0183
      2 C          -1.6829   -1.4158   -1.5805 C.ar    1  LIG1        0.1306
      3 C          -1.7468   -0.1270   -0.9474 C.ar    1  LIG1        0.0066
      4 C          -0.5275    0.5219   -0.9866 C.ar    1  LIG1        0.0359
      5 S           0.6911   -0.4610   -1.7981 S.2     1  LIG1       -0.0920
      6 H          -0.1350   -2.6447   -2.5753 H       1  LIG1        0.0730
      7 O          -2.8159   -2.1742   -1.6053 O.3     1  LIG1       -0.4943
      8 C          -2.7047   -3.4494   -2.2168 C.3     1  LIG1        0.0788
      9 H          -3.6904   -3.9120   -2.1494 H       1  LIG1        0.0660
     10 H          -2.4147   -3.3607   -3.2720 H       1  LIG1        0.0660
     11 H          -1.9699   -4.0781   -1.6968 H       1  LIG1        0.0660
     12 C          -3.0190    0.3701   -0.3190 C.3     1  LIG1       -0.0351
     13 H          -2.8221    1.1015    0.4674 H       1  LIG1        0.0279
     14 H          -3.5741   -0.4683    0.1103 H       1  LIG1        0.0279
     15 H          -3.6778    0.8441   -1.0571 H       1  LIG1        0.0279
     16 C          -0.1742    1.8555   -0.5260 C.ar    1  LIG1        0.0687
     17 C           1.0367    2.3088   -0.0342 C.ar    1  LIG1        0.1388
     18 C           1.0961    3.7072    0.2581 C.ar    1  LIG1        0.0072
     19 C          -0.0938    4.3440   -0.0288 C.ar    1  LIG1        0.0365
     20 S          -1.2786    3.2084   -0.6606 S.2     1  LIG1       -0.0831
     21 O           2.1373    1.5047    0.1503 O.3     1  LIG1       -0.4937
     22 C           2.0841    0.6727    1.3155 C.3     1  LIG1        0.0789
     23 H           3.0260    0.1215    1.3420 H       1  LIG1        0.0660
     24 H           1.9881    1.2776    2.2256 H       1  LIG1        0.0660
     25 H           1.2510   -0.0356    1.2623 H       1  LIG1        0.0660
     26 C           2.3216    4.3508    0.8360 C.3     1  LIG1       -0.0351
     27 H           2.0555    5.2074    1.4606 H       1  LIG1        0.0279
     28 H           2.9929    4.7040    0.0460 H       1  LIG1        0.0279
     29 H           2.8844    3.6358    1.4410 H       1  LIG1        0.0279
     30 C          -0.4811    5.7380    0.1315 C.ar    1  LIG1        0.0687
     31 C           0.1303    6.8872   -0.3341 C.ar    1  LIG1        0.1388
     32 C          -0.6263    8.0904   -0.1324 C.ar    1  LIG1        0.0072
     33 C          -1.8143    7.8517    0.5398 C.ar    1  LIG1        0.0365
     34 S          -2.0116    6.1387    0.8835 S.2     1  LIG1       -0.0831
     35 O           1.2956    6.8364   -1.0579 O.3     1  LIG1       -0.4937
     36 C           2.4153    7.5446   -0.5187 C.3     1  LIG1        0.0789
     37 H           3.2765    7.2539   -1.1236 H       1  LIG1        0.0660
     38 H           2.2884    8.6298   -0.5826 H       1  LIG1        0.0660
     39 H           2.5961    7.2688    0.5256 H       1  LIG1        0.0660
     40 C          -0.2065    9.4089   -0.7259 C.3     1  LIG1       -0.0351
     41 H          -1.0745   10.0186   -0.9865 H       1  LIG1        0.0279
     42 H           0.3691    9.2336   -1.6393 H       1  LIG1        0.0279
     43 H           0.4170   10.0045   -0.0475 H       1  LIG1        0.0279
     44 C          -2.8283    8.7898    0.9888 C.ar    1  LIG1        0.0681
     45 C          -4.1638    8.5480    1.2616 C.ar    1  LIG1        0.1382
     46 C          -4.8943    9.6702    1.7734 C.ar    1  LIG1       -0.0011
     47 C          -4.0900   10.7694    1.8921 C.ar    1  LIG1       -0.0172
     48 S          -2.4574   10.4607    1.3942 S.2     1  LIG1       -0.0921
     49 H          -4.3634   11.7558    2.2409 H       1  LIG1        0.0697
     50 O          -4.7496    7.3115    1.1258 O.3     1  LIG1       -0.4937
     51 C          -5.2928    7.0444   -0.1735 C.3     1  LIG1        0.0789
     52 H          -5.7453    6.0528   -0.1197 H       1  LIG1        0.0660
     53 H          -6.0594    7.7817   -0.4405 H       1  LIG1        0.0660
     54 H          -4.5074    7.0450   -0.9369 H       1  LIG1        0.0660
     55 C          -6.3498    9.6040    2.1405 C.3     1  LIG1       -0.0357
     56 H          -6.6665   10.5125    2.6585 H       1  LIG1        0.0279
     57 H          -6.5459    8.7467    2.7920 H       1  LIG1        0.0279
     58 H          -6.9858    9.4853    1.2554 H       1  LIG1        0.0279
@<TRIPOS>BOND
     1    10     8    1
     2     6     1    1
     3     8     9    1
     4     8    11    1
     5     8     7    1
     6     1     5   ar
     7     1     2   ar
     8     5     4   ar
     9    42    40    1
    10     7     2    1
    11     2     3   ar
    12    37    36    1
    13    35    36    1
    14    35    31    1
    15    15    12    1
    16     4     3   ar
    17     4    16    1
    18    41    40    1
    19     3    12    1
    20    54    51    1
    21    40    32    1
    22    40    43    1
    23    20    16   ar
    24    20    19   ar
    25    38    36    1
    26    16    17   ar
    27    36    39    1
    28    53    51    1
    29    31    32   ar
    30    31    30   ar
    31    12    14    1
    32    12    13    1
    33    51    52    1
    34    51    50    1
    35    32    33   ar
    36    17    21    1
    37    17    18   ar
    38    19    30    1
    39    19    18   ar
    40    28    26    1
    41    30    34   ar
    42    21    22    1
    43    18    26    1
    44    33    34   ar
    45    33    44    1
    46    26    29    1
    47    26    27    1
    48    44    45   ar
    49    44    48   ar
    50    50    45    1
    51    58    55    1
    52    45    46   ar
    53    25    22    1
    54    22    23    1
    55    22    24    1
    56    48    47   ar
    57    46    47   ar
    58    46    55    1
    59    47    49    1
    60    55    56    1
    61    55    57    1
