@<TRIPOS>MOLECULE
mol_data/opt/b3lyp/geoms/mol2/5li5li-5li-5li.out
 58 61 0 0 0
SMALL
GASTEIGER

@<TRIPOS>ATOM
      1 C           1.0986   -2.0786   -1.1075 C.ar    1  LIG1        0.0183
      2 C          -0.0281   -1.7449   -1.8101 C.ar    1  LIG1        0.1306
      3 C          -0.5508   -0.4415   -1.5072 C.ar    1  LIG1        0.0066
      4 C           0.2164    0.2109   -0.5565 C.ar    1  LIG1        0.0359
      5 S           1.5715   -0.7968   -0.0374 S.2     1  LIG1       -0.0920
      6 H           1.6690   -2.9939   -1.1374 H       1  LIG1        0.0730
      7 O          -0.6879   -2.5066   -2.7295 O.3     1  LIG1       -0.4943
      8 C          -0.1561   -3.7984   -2.9740 C.3     1  LIG1        0.0788
      9 H          -0.8019   -4.2625   -3.7207 H       1  LIG1        0.0660
     10 H           0.8686   -3.7403   -3.3642 H       1  LIG1        0.0660
     11 H          -0.1558   -4.4089   -2.0614 H       1  LIG1        0.0660
     12 C          -1.7983    0.0690   -2.1751 C.3     1  LIG1       -0.0351
     13 H          -2.4398    0.6125   -1.4761 H       1  LIG1        0.0279
     14 H          -2.3646   -0.7693   -2.5864 H       1  LIG1        0.0279
     15 H          -1.5714    0.7482   -3.0061 H       1  LIG1        0.0279
     16 C           0.0658    1.5460   -0.0091 C.ar    1  LIG1        0.0687
     17 C           0.6447    2.0751    1.1315 C.ar    1  LIG1        0.1388
     18 C           0.3823    3.4565    1.3747 C.ar    1  LIG1        0.0072
     19 C          -0.4269    4.0091    0.3938 C.ar    1  LIG1        0.0365
     20 S          -0.8443    2.8052   -0.8244 S.2     1  LIG1       -0.0831
     21 O           1.4807    1.3457    1.9462 O.3     1  LIG1       -0.4937
     22 C           0.8236    0.7056    3.0476 C.3     1  LIG1        0.0789
     23 H           1.6008    0.1851    3.6100 H       1  LIG1        0.0660
     24 H           0.3336    1.4413    3.6965 H       1  LIG1        0.0660
     25 H           0.0819   -0.0190    2.6947 H       1  LIG1        0.0660
     26 C           0.9840    4.1686    2.5551 C.3     1  LIG1       -0.0351
     27 H           0.2695    4.2868    3.3790 H       1  LIG1        0.0279
     28 H           1.3369    5.1683    2.2878 H       1  LIG1        0.0279
     29 H           1.8325    3.5912    2.9302 H       1  LIG1        0.0279
     30 C          -0.9729    5.3471    0.2915 C.ar    1  LIG1        0.0687
     31 C          -1.4918    5.9850   -0.8242 C.ar    1  LIG1        0.1388
     32 C          -2.0254    7.2901   -0.5967 C.ar    1  LIG1        0.0072
     33 C          -1.9154    7.6659    0.7259 C.ar    1  LIG1        0.0365
     34 S          -1.1654    6.3982    1.6835 S.2     1  LIG1       -0.0831
     35 O          -1.5239    5.4039   -2.0717 O.3     1  LIG1       -0.4937
     36 C          -0.3261    5.5826   -2.8407 C.3     1  LIG1        0.0789
     37 H          -0.4956    5.0800   -3.7945 H       1  LIG1        0.0660
     38 H          -0.1266    6.6464   -3.0173 H       1  LIG1        0.0660
     39 H           0.5371    5.1314   -2.3405 H       1  LIG1        0.0660
     40 C          -2.6172    8.1242   -1.6947 C.3     1  LIG1       -0.0351
     41 H          -2.5157    9.1896   -1.4728 H       1  LIG1        0.0279
     42 H          -3.6832    7.9067   -1.8202 H       1  LIG1        0.0279
     43 H          -2.1315    7.9180   -2.6515 H       1  LIG1        0.0279
     44 C          -2.2995    8.9086    1.3788 C.ar    1  LIG1        0.0681
     45 C          -3.5150    9.5690    1.3696 C.ar    1  LIG1        0.1382
     46 C          -3.5551   10.7429    2.2067 C.ar    1  LIG1       -0.0011
     47 C          -2.3522   10.9496    2.8246 C.ar    1  LIG1       -0.0172
     48 S          -1.1695    9.7512    2.4272 S.2     1  LIG1       -0.0921
     49 H          -2.1047   11.7406    3.5195 H       1  LIG1        0.0697
     50 O          -4.5947    9.0351    0.7150 O.3     1  LIG1       -0.4937
     51 C          -5.2783    9.8699   -0.2211 C.3     1  LIG1        0.0789
     52 H          -5.9097    9.2056   -0.8145 H       1  LIG1        0.0660
     53 H          -5.9154   10.6095    0.2739 H       1  LIG1        0.0660
     54 H          -4.5761   10.3875   -0.8846 H       1  LIG1        0.0660
     55 C          -4.7720   11.5942    2.4518 C.3     1  LIG1       -0.0357
     56 H          -4.6153   12.2434    3.3171 H       1  LIG1        0.0279
     57 H          -5.6519   10.9739    2.6529 H       1  LIG1        0.0279
     58 H          -5.0110   12.2384    1.5978 H       1  LIG1        0.0279
@<TRIPOS>BOND
     1    37    36    1
     2     9     8    1
     3    10     8    1
     4    38    36    1
     5    15    12    1
     6     8     7    1
     7     8    11    1
     8    36    39    1
     9    36    35    1
    10     7     2    1
    11    43    40    1
    12    14    12    1
    13    12     3    1
    14    12    13    1
    15    35    31    1
    16    42    40    1
    17     2     3   ar
    18     2     1   ar
    19    40    41    1
    20    40    32    1
    21     3     4   ar
    22     6     1    1
    23     1     5   ar
    24    54    51    1
    25    20    16   ar
    26    20    19   ar
    27    31    32   ar
    28    31    30   ar
    29    52    51    1
    30    32    33   ar
    31     4     5   ar
    32     4    16    1
    33    51    53    1
    34    51    50    1
    35    16    17   ar
    36    30    19    1
    37    30    34   ar
    38    19    18   ar
    39    50    45    1
    40    33    44    1
    41    33    34   ar
    42    17    18   ar
    43    17    21    1
    44    45    44   ar
    45    45    46   ar
    46    18    26    1
    47    44    48   ar
    48    58    55    1
    49    21    22    1
    50    46    55    1
    51    46    47   ar
    52    28    26    1
    53    48    47   ar
    54    55    57    1
    55    55    56    1
    56    26    29    1
    57    26    27    1
    58    25    22    1
    59    47    49    1
    60    22    23    1
    61    22    24    1
