@<TRIPOS>MOLECULE
mol_data/opt/b3lyp/geoms/mol2/5li5li5li.out
 44 46 0 0 0
SMALL
GASTEIGER

@<TRIPOS>ATOM
      1 C           0.1857   -1.9914   -1.3541 C.ar    1  LIG1        0.0183
      2 C          -1.0367   -1.6845   -0.8194 C.ar    1  LIG1        0.1306
      3 C          -1.1392   -0.3471   -0.3048 C.ar    1  LIG1        0.0066
      4 C           0.0414    0.3581   -0.4693 C.ar    1  LIG1        0.0359
      5 S           1.2710   -0.6412   -1.2506 S.2     1  LIG1       -0.0920
      6 H           0.5218   -2.9216   -1.7854 H       1  LIG1        0.0730
      7 O          -2.1263   -2.4991   -0.7203 O.3     1  LIG1       -0.4943
      8 C          -1.9708   -3.8199   -1.2131 C.3     1  LIG1        0.0788
      9 H          -2.9241   -4.3249   -1.0510 H       1  LIG1        0.0660
     10 H          -1.7362   -3.8199   -2.2857 H       1  LIG1        0.0660
     11 H          -1.1775   -4.3554   -0.6750 H       1  LIG1        0.0660
     12 C          -2.4098    0.1426    0.3348 C.3     1  LIG1       -0.0351
     13 H          -2.2109    0.7444    1.2259 H       1  LIG1        0.0279
     14 H          -3.0285   -0.7098    0.6227 H       1  LIG1        0.0279
     15 H          -3.0033    0.7603   -0.3504 H       1  LIG1        0.0279
     16 C           0.3465    1.7361   -0.1332 C.ar    1  LIG1        0.0687
     17 C           1.5875    2.3415   -0.0428 C.ar    1  LIG1        0.1388
     18 C           1.5737    3.7434    0.2250 C.ar    1  LIG1        0.0072
     19 C           0.2829    4.2325    0.3514 C.ar    1  LIG1        0.0365
     20 S          -0.8991    2.9452    0.1231 S.2     1  LIG1       -0.0831
     21 O           2.7632    1.6603   -0.2644 O.3     1  LIG1       -0.4937
     22 C           3.3763    1.1378    0.9213 C.3     1  LIG1        0.0789
     23 H           4.2916    0.6373    0.6002 H       1  LIG1        0.0660
     24 H           3.6266    1.9423    1.6230 H       1  LIG1        0.0660
     25 H           2.7198    0.4146    1.4170 H       1  LIG1        0.0660
     26 C           2.8508    4.5339    0.3049 C.3     1  LIG1       -0.0351
     27 H           2.7682    5.4901   -0.2195 H       1  LIG1        0.0279
     28 H           3.6598    3.9599   -0.1531 H       1  LIG1        0.0279
     29 H           3.1399    4.7552    1.3397 H       1  LIG1        0.0279
     30 C          -0.1734    5.5725    0.6657 C.ar    1  LIG1        0.0681
     31 C          -1.4406    6.1093    0.5090 C.ar    1  LIG1        0.1382
     32 C          -1.5983    7.4536    0.9805 C.ar    1  LIG1       -0.0011
     33 C          -0.4280    7.9340    1.4983 C.ar    1  LIG1       -0.0172
     34 S           0.8615    6.7763    1.4268 S.2     1  LIG1       -0.0921
     35 H          -0.2423    8.9119    1.9209 H       1  LIG1        0.0697
     36 O          -2.4985    5.3887    0.0044 O.3     1  LIG1       -0.4937
     37 C          -2.7078    5.5399   -1.4058 C.3     1  LIG1        0.0789
     38 H          -3.5858    4.9403   -1.6524 H       1  LIG1        0.0660
     39 H          -2.8969    6.5874   -1.6681 H       1  LIG1        0.0660
     40 H          -1.8456    5.1736   -1.9733 H       1  LIG1        0.0660
     41 C          -2.9005    8.2015    0.9191 C.3     1  LIG1       -0.0357
     42 H          -2.8639    9.1052    1.5325 H       1  LIG1        0.0279
     43 H          -3.7231    7.5736    1.2750 H       1  LIG1        0.0279
     44 H          -3.1476    8.5057   -0.1050 H       1  LIG1        0.0279
@<TRIPOS>BOND
     1    10     8    1
     2    40    37    1
     3     6     1    1
     4    39    37    1
     5    38    37    1
     6    37    36    1
     7     1     5   ar
     8     1     2   ar
     9     5     4   ar
    10     8     9    1
    11     8     7    1
    12     8    11    1
    13     2     7    1
    14     2     3   ar
    15     4     3   ar
    16     4    16    1
    17    15    12    1
    18     3    12    1
    19    21    17    1
    20    21    22    1
    21    27    26    1
    22    28    26    1
    23    16    17   ar
    24    16    20   ar
    25    44    41    1
    26    17    18   ar
    27    36    31    1
    28    20    19   ar
    29    18    26    1
    30    18    19   ar
    31    26    29    1
    32    12    14    1
    33    12    13    1
    34    19    30    1
    35    31    30   ar
    36    31    32   ar
    37    23    22    1
    38    30    34   ar
    39    41    32    1
    40    41    43    1
    41    41    42    1
    42    22    25    1
    43    22    24    1
    44    32    33   ar
    45    34    33   ar
    46    33    35    1
