@<TRIPOS>MOLECULE
mol_data/opt/b3lyp/geoms/mol2/5li5li-5li-5li-.out
 58 61 0 0 0
SMALL
GASTEIGER

@<TRIPOS>ATOM
      1 C           1.0313   -2.1110   -1.0672 C.ar    1  LIG1        0.0183
      2 C          -0.0824   -1.7654   -1.7845 C.ar    1  LIG1        0.1306
      3 C          -0.5930   -0.4551   -1.4911 C.ar    1  LIG1        0.0066
      4 C           0.1702    0.1904   -0.5325 C.ar    1  LIG1        0.0359
      5 S           1.5063   -0.8324    0.0058 S.2     1  LIG1       -0.0920
      6 H           1.5910   -3.0332   -1.0879 H       1  LIG1        0.0730
      7 O          -0.7399   -2.5213   -2.7103 O.3     1  LIG1       -0.4943
      8 C          -0.2215   -3.8204   -2.9445 C.3     1  LIG1        0.0788
      9 H          -0.8638   -4.2786   -3.6978 H       1  LIG1        0.0660
     10 H           0.8086   -3.7765   -3.3221 H       1  LIG1        0.0660
     11 H          -0.2401   -4.4281   -2.0301 H       1  LIG1        0.0660
     12 C          -1.8258    0.0689   -2.1757 C.3     1  LIG1       -0.0351
     13 H          -2.4688    0.6226   -1.4862 H       1  LIG1        0.0279
     14 H          -2.3976   -0.7636   -2.5913 H       1  LIG1        0.0279
     15 H          -1.5804    0.7425   -3.0060 H       1  LIG1        0.0279
     16 C           0.0291    1.5286    0.0100 C.ar    1  LIG1        0.0687
     17 C           0.5997    2.0532    1.1568 C.ar    1  LIG1        0.1388
     18 C           0.3513    3.4383    1.3934 C.ar    1  LIG1        0.0072
     19 C          -0.4382    3.9985    0.4007 C.ar    1  LIG1        0.0365
     20 S          -0.8546    2.7969   -0.8201 S.2     1  LIG1       -0.0831
     21 O           1.4160    1.3156    1.9839 O.3     1  LIG1       -0.4937
     22 C           0.7368    0.6858    3.0779 C.3     1  LIG1        0.0789
     23 H           1.5002    0.1571    3.6514 H       1  LIG1        0.0660
     24 H           0.2473    1.4287    3.7188 H       1  LIG1        0.0660
     25 H          -0.0090   -0.0306    2.7167 H       1  LIG1        0.0660
     26 C           0.9462    4.1458    2.5799 C.3     1  LIG1       -0.0351
     27 H           0.2222    4.2759    3.3936 H       1  LIG1        0.0279
     28 H           1.3160    5.1400    2.3147 H       1  LIG1        0.0279
     29 H           1.7819    3.5584    2.9681 H       1  LIG1        0.0279
     30 C          -0.9662    5.3429    0.2884 C.ar    1  LIG1        0.0687
     31 C          -1.4631    5.9842   -0.8353 C.ar    1  LIG1        0.1388
     32 C          -1.9833    7.2965   -0.6177 C.ar    1  LIG1        0.0072
     33 C          -1.8849    7.6745    0.7051 C.ar    1  LIG1        0.0365
     34 S          -1.1626    6.4002    1.6752 S.2     1  LIG1       -0.0831
     35 O          -1.4870    5.4001   -2.0816 O.3     1  LIG1       -0.4937
     36 C          -0.2778    5.5624   -2.8362 C.3     1  LIG1        0.0789
     37 H          -0.4418    5.0599   -3.7911 H       1  LIG1        0.0660
     38 H          -0.0628    6.6232   -3.0125 H       1  LIG1        0.0660
     39 H           0.5736    5.1015   -2.3247 H       1  LIG1        0.0660
     40 C          -2.5511    8.1348   -1.7252 C.3     1  LIG1       -0.0351
     41 H          -2.4371    9.1995   -1.5057 H       1  LIG1        0.0279
     42 H          -3.6186    7.9318   -1.8617 H       1  LIG1        0.0279
     43 H          -2.0578    7.9183   -2.6758 H       1  LIG1        0.0279
     44 C          -2.2611    8.9237    1.3500 C.ar    1  LIG1        0.0681
     45 C          -3.4679    9.5996    1.3243 C.ar    1  LIG1        0.1382
     46 C          -3.5031   10.7761    2.1580 C.ar    1  LIG1       -0.0011
     47 C          -2.3053   10.9692    2.7899 C.ar    1  LIG1       -0.0172
     48 S          -1.1332    9.7547    2.4101 S.2     1  LIG1       -0.0921
     49 H          -2.0562   11.7588    3.4859 H       1  LIG1        0.0697
     50 O          -4.5465    9.0780    0.6580 O.3     1  LIG1       -0.4937
     51 C          -5.2070    9.9189   -0.2891 C.3     1  LIG1        0.0789
     52 H          -5.8394   10.6692    0.1956 H       1  LIG1        0.0660
     53 H          -4.4897   10.4240   -0.9461 H       1  LIG1        0.0660
     54 H          -5.8406    9.2613   -0.8876 H       1  LIG1        0.0660
     55 C          -4.7121   11.6434    2.3861 C.3     1  LIG1       -0.0357
     56 H          -4.5583   12.2916    3.2526 H       1  LIG1        0.0279
     57 H          -5.6024   11.0346    2.5764 H       1  LIG1        0.0279
     58 H          -4.9316   12.2894    1.5282 H       1  LIG1        0.0279
@<TRIPOS>BOND
     1    37    36    1
     2     9     8    1
     3    10     8    1
     4    38    36    1
     5    15    12    1
     6     8     7    1
     7     8    11    1
     8    36    39    1
     9    36    35    1
    10     7     2    1
    11    43    40    1
    12    14    12    1
    13    12     3    1
    14    12    13    1
    15    35    31    1
    16    42    40    1
    17     2     3   ar
    18     2     1   ar
    19    40    41    1
    20    40    32    1
    21     3     4   ar
    22     6     1    1
    23     1     5   ar
    24    53    51    1
    25    54    51    1
    26    31    32   ar
    27    31    30   ar
    28    20    16   ar
    29    20    19   ar
    30    32    33   ar
    31     4     5   ar
    32     4    16    1
    33    51    52    1
    34    51    50    1
    35    16    17   ar
    36    30    19    1
    37    30    34   ar
    38    19    18   ar
    39    50    45    1
    40    33    44    1
    41    33    34   ar
    42    17    18   ar
    43    17    21    1
    44    45    44   ar
    45    45    46   ar
    46    44    48   ar
    47    18    26    1
    48    58    55    1
    49    21    22    1
    50    46    55    1
    51    46    47   ar
    52    28    26    1
    53    55    57    1
    54    55    56    1
    55    48    47   ar
    56    26    29    1
    57    26    27    1
    58    25    22    1
    59    47    49    1
    60    22    23    1
    61    22    24    1
