@<TRIPOS>MOLECULE
mol_data/opt/b3lyp/geoms/mol2/5li5li-.out
 30 31 0 0 0
SMALL
GASTEIGER

@<TRIPOS>ATOM
      1 C          -2.0477   -1.8835    0.8011 C.ar    1  LIG1        0.0183
      2 C          -0.9421   -1.9588   -0.0053 C.ar    1  LIG1        0.1306
      3 C          -0.4354   -0.6837   -0.4390 C.ar    1  LIG1        0.0066
      4 C          -1.1770    0.3571    0.0766 C.ar    1  LIG1        0.0359
      5 S          -2.4974   -0.2287    1.0817 S.2     1  LIG1       -0.0920
      6 H          -2.6233   -2.6838    1.2392 H       1  LIG1        0.0730
      7 O          -0.3060   -3.0819   -0.4413 O.3     1  LIG1       -0.4943
      8 C          -0.8665   -4.3208   -0.0355 C.3     1  LIG1        0.0788
      9 H          -0.2446   -5.1007   -0.4767 H       1  LIG1        0.0660
     10 H          -0.8578   -4.4223    1.0577 H       1  LIG1        0.0660
     11 H          -1.8980   -4.4278   -0.3958 H       1  LIG1        0.0660
     12 C           0.7339   -0.5563   -1.3717 C.3     1  LIG1       -0.0351
     13 H           0.7064    0.3963   -1.9044 H       1  LIG1        0.0279
     14 H           0.7289   -1.3747   -2.0968 H       1  LIG1        0.0279
     15 H           1.6881   -0.6028   -0.8341 H       1  LIG1        0.0279
     16 C          -0.9867    1.7863   -0.1240 C.ar    1  LIG1        0.0681
     17 C           0.1668    2.5410   -0.0256 C.ar    1  LIG1        0.1382
     18 C           0.0037    3.9278   -0.3670 C.ar    1  LIG1       -0.0011
     19 C          -1.2903    4.2079   -0.7051 C.ar    1  LIG1       -0.0172
     20 S          -2.3206    2.8147   -0.6291 S.2     1  LIG1       -0.0921
     21 H          -1.7045    5.1668   -0.9855 H       1  LIG1        0.0697
     22 O           1.4072    2.0848    0.3409 O.3     1  LIG1       -0.4937
     23 C           1.5067    1.4859    1.6376 C.3     1  LIG1        0.0789
     24 H           2.5718    1.3213    1.8124 H       1  LIG1        0.0660
     25 H           1.1095    2.1557    2.4094 H       1  LIG1        0.0660
     26 H           0.9775    0.5295    1.6846 H       1  LIG1        0.0660
     27 C           1.1365    4.9132   -0.3304 C.3     1  LIG1       -0.0357
     28 H           0.7928    5.9168   -0.5934 H       1  LIG1        0.0279
     29 H           1.9303    4.6280   -1.0290 H       1  LIG1        0.0279
     30 H           1.5925    4.9566    0.6645 H       1  LIG1        0.0279
@<TRIPOS>BOND
     1    14    12    1
     2    13    12    1
     3    12    15    1
     4    12     3    1
     5    29    27    1
     6    21    19    1
     7    19    20   ar
     8    19    18   ar
     9    20    16   ar
    10    28    27    1
    11     9     8    1
    12     7     8    1
    13     7     2    1
    14     3     2   ar
    15     3     4   ar
    16    11     8    1
    17    18    27    1
    18    18    17   ar
    19    27    30    1
    20    16    17   ar
    21    16     4    1
    22     8    10    1
    23    17    22    1
    24     2     1   ar
    25     4     5   ar
    26    22    23    1
    27     1     5   ar
    28     1     6    1
    29    23    26    1
    30    23    24    1
    31    23    25    1
