@<TRIPOS>MOLECULE
mol_data/opt/b3lyp/geoms/mol2/5li5li5li-5li-.out
 58 61 0 0 0
SMALL
GASTEIGER

@<TRIPOS>ATOM
      1 C           0.9997   -2.1137   -1.1361 C.ar    1  LIG1        0.0183
      2 C          -0.1120   -1.7570   -1.8511 C.ar    1  LIG1        0.1306
      3 C          -0.6165   -0.4467   -1.5472 C.ar    1  LIG1        0.0066
      4 C           0.1492    0.1872   -0.5830 C.ar    1  LIG1        0.0359
      5 S           1.4803   -0.8462   -0.0525 S.2     1  LIG1       -0.0920
      6 H           1.5549   -3.0385   -1.1640 H       1  LIG1        0.0730
      7 O          -0.7727   -2.5022   -2.7833 O.3     1  LIG1       -0.4943
      8 C          -0.2602   -3.8017   -3.0280 C.3     1  LIG1        0.0788
      9 H          -0.9043   -4.2506   -3.7855 H       1  LIG1        0.0660
     10 H           0.7702   -3.7594   -3.4048 H       1  LIG1        0.0660
     11 H          -0.2821   -4.4169   -2.1188 H       1  LIG1        0.0660
     12 C          -1.8465    0.0887   -2.2280 C.3     1  LIG1       -0.0351
     13 H          -1.5975    0.7673   -3.0531 H       1  LIG1        0.0279
     14 H          -2.4868    0.6405   -1.5344 H       1  LIG1        0.0279
     15 H          -2.4225   -0.7376   -2.6499 H       1  LIG1        0.0279
     16 C           0.0142    1.5217   -0.0299 C.ar    1  LIG1        0.0687
     17 C           0.5866    2.0343    1.1214 C.ar    1  LIG1        0.1388
     18 C           0.3450    3.4186    1.3691 C.ar    1  LIG1        0.0072
     19 C          -0.4410    3.9907    0.3804 C.ar    1  LIG1        0.0365
     20 S          -0.8625    2.8011   -0.8503 S.2     1  LIG1       -0.0831
     21 O           1.3986    1.2859    1.9431 O.3     1  LIG1       -0.4937
     22 C           0.7154    0.6501    3.0311 C.3     1  LIG1        0.0789
     23 H           1.4757    0.1125    3.6006 H       1  LIG1        0.0660
     24 H           0.2292    1.3899    3.6781 H       1  LIG1        0.0660
     25 H          -0.0337   -0.0593    2.6632 H       1  LIG1        0.0660
     26 C           0.9426    4.1135    2.5617 C.3     1  LIG1       -0.0351
     27 H           1.3180    5.1077    2.3047 H       1  LIG1        0.0279
     28 H           1.7746    3.5185    2.9461 H       1  LIG1        0.0279
     29 H           0.2184    4.2411    3.3757 H       1  LIG1        0.0279
     30 C          -0.9621    5.3387    0.2784 C.ar    1  LIG1        0.0687
     31 C          -1.4548    5.9916   -0.8405 C.ar    1  LIG1        0.1388
     32 C          -1.9683    7.3046   -0.6128 C.ar    1  LIG1        0.0072
     33 C          -1.8692    7.6714    0.7132 C.ar    1  LIG1        0.0365
     34 S          -1.1543    6.3857    1.6735 S.2     1  LIG1       -0.0831
     35 O          -1.4805    5.4176   -2.0915 O.3     1  LIG1       -0.4937
     36 C          -0.2700    5.5798   -2.8439 C.3     1  LIG1        0.0789
     37 H          -0.4357    5.0857   -3.8028 H       1  LIG1        0.0660
     38 H          -0.0495    6.6409   -3.0116 H       1  LIG1        0.0660
     39 H           0.5787    5.1106   -2.3353 H       1  LIG1        0.0660
     40 C          -2.5310    8.1548   -1.7138 C.3     1  LIG1       -0.0351
     41 H          -2.4121    9.2171   -1.4855 H       1  LIG1        0.0279
     42 H          -3.5993    7.9581   -1.8531 H       1  LIG1        0.0279
     43 H          -2.0377    7.9438   -2.6657 H       1  LIG1        0.0279
     44 C          -2.2397    8.9173    1.3678 C.ar    1  LIG1        0.0681
     45 C          -3.4431    9.5994    1.3465 C.ar    1  LIG1        0.1382
     46 C          -3.4733   10.7693    2.1894 C.ar    1  LIG1       -0.0011
     47 C          -2.2751   10.9514    2.8239 C.ar    1  LIG1       -0.0172
     48 S          -1.1087    9.7343    2.4353 S.2     1  LIG1       -0.0921
     49 H          -2.0226   11.7343    3.5263 H       1  LIG1        0.0697
     50 O          -4.5237    9.0882    0.6753 O.3     1  LIG1       -0.4937
     51 C          -5.1797    9.9398   -0.2655 C.3     1  LIG1        0.0789
     52 H          -5.8092   10.6889    0.2249 H       1  LIG1        0.0660
     53 H          -4.4596   10.4472   -0.9176 H       1  LIG1        0.0660
     54 H          -5.8156    9.2900   -0.8700 H       1  LIG1        0.0660
     55 C          -4.6781   11.6408    2.4235 C.3     1  LIG1       -0.0357
     56 H          -4.5214   12.2820    3.2947 H       1  LIG1        0.0279
     57 H          -5.5714   11.0350    2.6092 H       1  LIG1        0.0279
     58 H          -4.8942   12.2940    1.5703 H       1  LIG1        0.0279
@<TRIPOS>BOND
     1    37    36    1
     2     9     8    1
     3    10     8    1
     4    13    12    1
     5     8     7    1
     6     8    11    1
     7    38    36    1
     8    36    39    1
     9    36    35    1
    10     7     2    1
    11    43    40    1
    12    15    12    1
    13    12     3    1
    14    12    14    1
    15    35    31    1
    16    42    40    1
    17     2     3   ar
    18     2     1   ar
    19    40    41    1
    20    40    32    1
    21     3     4   ar
    22     6     1    1
    23     1     5   ar
    24    53    51    1
    25    54    51    1
    26    20    16   ar
    27    20    19   ar
    28    31    32   ar
    29    31    30   ar
    30    32    33   ar
    31     4     5   ar
    32     4    16    1
    33    51    52    1
    34    51    50    1
    35    16    17   ar
    36    30    19    1
    37    30    34   ar
    38    19    18   ar
    39    50    45    1
    40    33    44    1
    41    33    34   ar
    42    17    18   ar
    43    17    21    1
    44    45    44   ar
    45    45    46   ar
    46    44    48   ar
    47    18    26    1
    48    58    55    1
    49    21    22    1
    50    46    55    1
    51    46    47   ar
    52    27    26    1
    53    55    57    1
    54    55    56    1
    55    48    47   ar
    56    26    28    1
    57    26    29    1
    58    25    22    1
    59    47    49    1
    60    22    23    1
    61    22    24    1
