@<TRIPOS>MOLECULE
mol_data/opt/b3lyp/geoms/mol2/5ll.out
 17 17 0 0 0
SMALL
GASTEIGER

@<TRIPOS>ATOM
      1 C          -2.2639   -1.6466    0.0003 C.ar    1  LIG1        0.0211
      2 C          -0.8968   -1.7431   -0.0003 C.ar    1  LIG1        0.1685
      3 C          -0.2451   -0.4477   -0.0004 C.ar    1  LIG1        0.1685
      4 C          -1.1537    0.5758    0.0002 C.ar    1  LIG1        0.0211
      5 S          -2.7913    0.0073    0.0008 S.2     1  LIG1       -0.0976
      6 H          -2.9889   -2.4453    0.0005 H       1  LIG1        0.0731
      7 H          -0.9266    1.6309    0.0003 H       1  LIG1        0.0731
      8 O          -0.1574   -2.8917   -0.0008 O.3     1  LIG1       -0.4909
      9 C          -0.8879   -4.1088   -0.0007 C.3     1  LIG1        0.0790
     10 H          -0.1484   -4.9108   -0.0012 H       1  LIG1        0.0660
     11 H          -1.5189   -4.1938    0.8935 H       1  LIG1        0.0660
     12 H          -1.5197   -4.1935   -0.8944 H       1  LIG1        0.0660
     13 O           1.0865   -0.1589   -0.0010 O.3     1  LIG1       -0.4909
     14 C           2.0624   -1.1988   -0.0010 C.3     1  LIG1        0.0790
     15 H           3.0253   -0.6843   -0.0013 H       1  LIG1        0.0660
     16 H           1.9852   -1.8303    0.8890 H       1  LIG1        0.0660
     17 H           1.9848   -1.8306   -0.8909 H       1  LIG1        0.0660
@<TRIPOS>BOND
     1    12     9    1
     2    17    14    1
     3    15    14    1
     4    10     9    1
     5    14    13    1
     6    14    16    1
     7    13     3    1
     8     8     9    1
     9     8     2    1
    10     9    11    1
    11     3     2   ar
    12     3     4   ar
    13     2     1   ar
    14     4     7    1
    15     4     5   ar
    16     1     6    1
    17     1     5   ar
