@<TRIPOS>MOLECULE
mol_data/opt/b3lyp/geoms/mol2/5ll5ll.out
 32 33 0 0 0
SMALL
GASTEIGER

@<TRIPOS>ATOM
      1 C          -1.1295   -1.9020   -1.4696 C.ar    1  LIG1        0.0218
      2 C          -0.9951   -2.2493   -0.1536 C.ar    1  LIG1        0.1691
      3 C          -0.5901   -1.1454    0.6741 C.ar    1  LIG1        0.1768
      4 C          -0.4172    0.0344   -0.0199 C.ar    1  LIG1        0.0749
      5 S          -0.7874   -0.2130   -1.7241 S.2     1  LIG1       -0.0885
      6 H          -1.4127   -2.5205   -2.3070 H       1  LIG1        0.0731
      7 O          -1.1944   -3.4633    0.4289 O.3     1  LIG1       -0.4909
      8 C          -1.6356   -4.5036   -0.4323 C.3     1  LIG1        0.0790
      9 H          -1.7640   -5.3876    0.1934 H       1  LIG1        0.0660
     10 H          -2.5924   -4.2464   -0.9039 H       1  LIG1        0.0660
     11 H          -0.8950   -4.7139   -1.2148 H       1  LIG1        0.0660
     12 O          -0.4727   -1.2221    2.0339 O.3     1  LIG1       -0.4903
     13 C           0.6027   -2.0406    2.5160 C.3     1  LIG1        0.0790
     14 H           0.5614   -1.9827    3.6048 H       1  LIG1        0.0660
     15 H           0.4774   -3.0785    2.1958 H       1  LIG1        0.0660
     16 H           1.5688   -1.6576    2.1666 H       1  LIG1        0.0660
     17 C          -0.0812    1.3367    0.5191 C.ar    1  LIG1        0.0749
     18 C           0.2984    2.4767   -0.1687 C.ar    1  LIG1        0.1768
     19 C           0.4211    3.6411    0.6703 C.ar    1  LIG1        0.1691
     20 C           0.1672    3.3549    1.9842 C.ar    1  LIG1        0.0218
     21 S          -0.2522    1.6929    2.2304 S.2     1  LIG1       -0.0885
     22 H           0.1996    4.0487    2.8111 H       1  LIG1        0.0731
     23 O           0.4770    2.5078   -1.5348 O.3     1  LIG1       -0.4903
     24 C           1.7449    2.0089   -1.9889 C.3     1  LIG1        0.0790
     25 H           1.7046    2.0200   -3.0795 H       1  LIG1        0.0660
     26 H           2.5648    2.6506   -1.6466 H       1  LIG1        0.0660
     27 H           1.9179    0.9855   -1.6438 H       1  LIG1        0.0660
     28 O           0.6464    4.9279    0.2736 O.3     1  LIG1       -0.4909
     29 C           1.6380    5.1780   -0.7197 C.3     1  LIG1        0.0790
     30 H           1.7559    6.2630   -0.7555 H       1  LIG1        0.0660
     31 H           2.6004    4.7272   -0.4447 H       1  LIG1        0.0660
     32 H           1.3267    4.8137   -1.7019 H       1  LIG1        0.0660
@<TRIPOS>BOND
     1    25    24    1
     2     6     1    1
     3    24    26    1
     4    24    27    1
     5    24    23    1
     6     5     1   ar
     7     5     4   ar
     8    32    29    1
     9    23    18    1
    10     1     2   ar
    11    11     8    1
    12    10     8    1
    13    30    29    1
    14    29    31    1
    15    29    28    1
    16     8     9    1
    17     8     7    1
    18    18    17   ar
    19    18    19   ar
    20     2     7    1
    21     2     3   ar
    22     4    17    1
    23     4     3   ar
    24    28    19    1
    25    17    21   ar
    26    19    20   ar
    27     3    12    1
    28    20    21   ar
    29    20    22    1
    30    12    13    1
    31    16    13    1
    32    15    13    1
    33    13    14    1
