@<TRIPOS>MOLECULE
mol_data/opt/b3lyp/geoms/mol2/5ll5ll5ll5ll-.out
 62 65 0 0 0
SMALL
GASTEIGER

@<TRIPOS>ATOM
      1 C          -2.1120   -2.1665   -0.3242 C.ar    1  LIG1        0.0218
      2 C          -0.9987   -2.1690    0.4718 C.ar    1  LIG1        0.1691
      3 C          -0.3262   -0.8946    0.5002 C.ar    1  LIG1        0.1768
      4 C          -0.9227    0.0564   -0.2943 C.ar    1  LIG1        0.0749
      5 S          -2.3408   -0.6190   -1.0876 S.2     1  LIG1       -0.0885
      6 H          -2.8020   -2.9719   -0.5225 H       1  LIG1        0.0731
      7 O          -0.4869   -3.1924    1.2084 O.3     1  LIG1       -0.4909
      8 C          -1.1962   -4.4227    1.1474 C.3     1  LIG1        0.0790
      9 H          -0.6532   -5.1226    1.7833 H       1  LIG1        0.0660
     10 H          -2.2222   -4.3088    1.5202 H       1  LIG1        0.0660
     11 H          -1.2280   -4.8098    0.1211 H       1  LIG1        0.0660
     12 O           0.8325   -0.6646    1.1875 O.3     1  LIG1       -0.4903
     13 C           0.7202   -0.7062    2.6171 C.3     1  LIG1        0.0790
     14 H           1.7178   -0.4919    3.0041 H       1  LIG1        0.0660
     15 H           0.0192    0.0583    2.9716 H       1  LIG1        0.0660
     16 H           0.3962   -1.6932    2.9593 H       1  LIG1        0.0660
     17 C          -0.5571    1.4566   -0.4631 C.ar    1  LIG1        0.0755
     18 C           0.6245    2.0694   -0.8339 C.ar    1  LIG1        0.1775
     19 C           0.5575    3.5084   -0.7721 C.ar    1  LIG1        0.1775
     20 C          -0.6550    4.0004   -0.3518 C.ar    1  LIG1        0.0755
     21 S          -1.7539    2.6776   -0.0126 S.2     1  LIG1       -0.0794
     22 O           1.7984    1.5475   -1.2670 O.3     1  LIG1       -0.4903
     23 C           1.8473    0.2066   -1.7592 C.3     1  LIG1        0.0790
     24 H           2.7904    0.1322   -2.3042 H       1  LIG1        0.0660
     25 H           1.8411   -0.5135   -0.9391 H       1  LIG1        0.0660
     26 H           1.0144    0.0059   -2.4412 H       1  LIG1        0.0660
     27 O           1.6207    4.3168   -1.0634 O.3     1  LIG1       -0.4903
     28 C           1.9737    4.3930   -2.4513 C.3     1  LIG1        0.0790
     29 H           2.8095    5.0923   -2.5125 H       1  LIG1        0.0660
     30 H           2.2833    3.4159   -2.8323 H       1  LIG1        0.0660
     31 H           1.1346    4.7752   -3.0441 H       1  LIG1        0.0660
     32 C          -1.0802    5.3871   -0.2513 C.ar    1  LIG1        0.0755
     33 C          -0.4797    6.4883    0.3293 C.ar    1  LIG1        0.1775
     34 C          -1.1944    7.7160    0.0848 C.ar    1  LIG1        0.1775
     35 C          -2.3549    7.5596   -0.6346 C.ar    1  LIG1        0.0755
     36 S          -2.5840    5.8683   -1.0451 S.2     1  LIG1       -0.0794
     37 O           0.6447    6.5809    1.0831 O.3     1  LIG1       -0.4903
     38 C           1.0686    5.4608    1.8633 C.3     1  LIG1        0.0790
     39 H           1.7076    5.8744    2.6465 H       1  LIG1        0.0660
     40 H           0.2109    4.9563    2.3204 H       1  LIG1        0.0660
     41 H           1.6404    4.7535    1.2603 H       1  LIG1        0.0660
     42 O          -0.8057    8.9207    0.5991 O.3     1  LIG1       -0.4903
     43 C           0.4163    9.4509    0.0678 C.3     1  LIG1        0.0790
     44 H           0.5737   10.4069    0.5706 H       1  LIG1        0.0660
     45 H           1.2580    8.7832    0.2717 H       1  LIG1        0.0660
     46 H           0.3274    9.6182   -1.0121 H       1  LIG1        0.0660
     47 C          -3.2962    8.5800   -1.0675 C.ar    1  LIG1        0.0749
     48 C          -3.9043    9.6139   -0.3815 C.ar    1  LIG1        0.1768
     49 C          -4.6882   10.4755   -1.2385 C.ar    1  LIG1        0.1691
     50 C          -4.6859   10.0799   -2.5437 C.ar    1  LIG1        0.0218
     51 S          -3.7350    8.6520   -2.7798 S.2     1  LIG1       -0.0885
     52 H          -5.2288   10.5350   -3.3590 H       1  LIG1        0.0731
     53 O          -3.8966    9.9104    0.9425 O.3     1  LIG1       -0.4903
     54 C          -3.7356    8.8614    1.8994 C.3     1  LIG1        0.0790
     55 H          -4.1585    9.2451    2.8304 H       1  LIG1        0.0660
     56 H          -4.2838    7.9649    1.5916 H       1  LIG1        0.0660
     57 H          -2.6813    8.6216    2.0488 H       1  LIG1        0.0660
     58 O          -5.4401   11.5190   -0.7785 O.3     1  LIG1       -0.4909
     59 C          -4.6986   12.6086   -0.2188 C.3     1  LIG1        0.0790
     60 H          -5.4384   13.3456    0.0998 H       1  LIG1        0.0660
     61 H          -4.1055   12.2872    0.6418 H       1  LIG1        0.0660
     62 H          -4.0397   13.0592   -0.9722 H       1  LIG1        0.0660
@<TRIPOS>BOND
     1    52    50    1
     2    31    28    1
     3    30    28    1
     4    51    50   ar
     5    51    47   ar
     6    50    49   ar
     7    29    28    1
     8    28    27    1
     9    26    23    1
    10    24    23    1
    11    23    22    1
    12    23    25    1
    13    22    18    1
    14    49    58    1
    15    49    48   ar
    16     5     1   ar
    17     5     4   ar
    18    47    35    1
    19    47    48   ar
    20    27    19    1
    21    36    35   ar
    22    36    32   ar
    23    46    43    1
    24    62    59    1
    25    18    19   ar
    26    18    17   ar
    27    58    59    1
    28    19    20   ar
    29    35    34   ar
    30     6     1    1
    31    17     4    1
    32    17    21   ar
    33    48    53    1
    34    20    32    1
    35    20    21   ar
    36     1     2   ar
    37     4     3   ar
    38    32    33   ar
    39    59    60    1
    40    59    61    1
    41    43    45    1
    42    43    44    1
    43    43    42    1
    44    34    33   ar
    45    34    42    1
    46    11     8    1
    47    33    37    1
    48     2     3   ar
    49     2     7    1
    50     3    12    1
    51    53    54    1
    52    37    38    1
    53     8     7    1
    54     8    10    1
    55     8     9    1
    56    12    13    1
    57    41    38    1
    58    56    54    1
    59    38    40    1
    60    38    39    1
    61    54    57    1
    62    54    55    1
    63    13    16    1
    64    13    15    1
    65    13    14    1
