@<TRIPOS>MOLECULE
mol_data/opt/b3lyp/geoms/mol2/5ll5ll-5ll5ll.out
 62 65 0 0 0
SMALL
GASTEIGER

@<TRIPOS>ATOM
      1 C          -2.1907   -2.2149   -0.1774 C.ar    1  LIG1        0.0218
      2 C          -0.8409   -2.2303    0.0482 C.ar    1  LIG1        0.1691
      3 C          -0.2394   -0.9246   -0.0531 C.ar    1  LIG1        0.1768
      4 C          -1.1376    0.0659   -0.3791 C.ar    1  LIG1        0.0749
      5 S          -2.7505   -0.6120   -0.5620 S.2     1  LIG1       -0.0885
      6 H          -2.8884   -3.0375   -0.1598 H       1  LIG1        0.0731
      7 O          -0.0460   -3.2933    0.3488 O.3     1  LIG1       -0.4909
      8 C          -0.6939   -4.5560    0.4294 C.3     1  LIG1        0.0790
      9 H           0.0815   -5.2849    0.6670 H       1  LIG1        0.0660
     10 H          -1.4567   -4.5617    1.2186 H       1  LIG1        0.0660
     11 H          -1.1640   -4.8199   -0.5263 H       1  LIG1        0.0660
     12 O           1.0989   -0.6904    0.0924 O.3     1  LIG1       -0.4903
     13 C           1.6247   -0.9148    1.4076 C.3     1  LIG1        0.0790
     14 H           2.6871   -0.6712    1.3529 H       1  LIG1        0.0660
     15 H           1.1366   -0.2573    2.1367 H       1  LIG1        0.0660
     16 H           1.5012   -1.9583    1.7107 H       1  LIG1        0.0660
     17 C          -0.8952    1.4922   -0.5210 C.ar    1  LIG1        0.0755
     18 C           0.0854    2.1858   -1.2045 C.ar    1  LIG1        0.1775
     19 C           0.0167    3.6135   -1.0053 C.ar    1  LIG1        0.1775
     20 C          -1.0135    4.0079   -0.1827 C.ar    1  LIG1        0.0755
     21 S          -1.9326    2.6171    0.3597 S.2     1  LIG1       -0.0794
     22 O           1.0514    1.7314   -2.0411 O.3     1  LIG1       -0.4903
     23 C           0.8001    0.5759   -2.8448 C.3     1  LIG1        0.0790
     24 H           1.4878    0.6500   -3.6899 H       1  LIG1        0.0660
     25 H           1.0011   -0.3428   -2.2906 H       1  LIG1        0.0660
     26 H          -0.2312    0.5735   -3.2124 H       1  LIG1        0.0660
     27 O           0.7947    4.4979   -1.6857 O.3     1  LIG1       -0.4903
     28 C           2.1939    4.4888   -1.3714 C.3     1  LIG1        0.0790
     29 H           2.6639    5.1683   -2.0846 H       1  LIG1        0.0660
     30 H           2.3576    4.8654   -0.3565 H       1  LIG1        0.0660
     31 H           2.6205    3.4884   -1.4840 H       1  LIG1        0.0660
     32 C          -1.3885    5.3663    0.1781 C.ar    1  LIG1        0.0755
     33 C          -0.6201    6.3373    0.7839 C.ar    1  LIG1        0.1775
     34 C          -1.2866    7.6051    0.8937 C.ar    1  LIG1        0.1775
     35 C          -2.5620    7.6076    0.3728 C.ar    1  LIG1        0.0755
     36 S          -2.9527    6.0232   -0.2724 S.2     1  LIG1       -0.0794
     37 O           0.6600    6.1873    1.2536 O.3     1  LIG1       -0.4903
     38 C           0.8366    5.1882    2.2668 C.3     1  LIG1        0.0790
     39 H           1.8793    5.2606    2.5826 H       1  LIG1        0.0660
     40 H           0.1811    5.3817    3.1244 H       1  LIG1        0.0660
     41 H           0.6410    4.1830    1.8831 H       1  LIG1        0.0660
     42 O          -0.7095    8.7388    1.3928 O.3     1  LIG1       -0.4903
     43 C          -0.3560    8.7146    2.7797 C.3     1  LIG1        0.0790
     44 H          -0.0218    9.7247    3.0232 H       1  LIG1        0.0660
     45 H          -1.2246    8.4620    3.3990 H       1  LIG1        0.0660
     46 H           0.4556    8.0065    2.9694 H       1  LIG1        0.0660
     47 C          -3.5478    8.6808    0.3886 C.ar    1  LIG1        0.0749
     48 C          -3.5100    9.9817   -0.0755 C.ar    1  LIG1        0.1768
     49 C          -4.6986   10.7346    0.2632 C.ar    1  LIG1        0.1691
     50 C          -5.6174   10.0068    0.9594 C.ar    1  LIG1        0.0218
     51 S          -5.0694    8.3909    1.2471 S.2     1  LIG1       -0.0885
     52 H          -6.5816   10.3459    1.3085 H       1  LIG1        0.0731
     53 O          -2.5681   10.6405   -0.7948 O.3     1  LIG1       -0.4903
     54 C          -1.5608    9.9078   -1.4954 C.3     1  LIG1        0.0790
     55 H          -1.1241   10.6172   -2.2012 H       1  LIG1        0.0660
     56 H          -0.7889    9.5494   -0.8123 H       1  LIG1        0.0660
     57 H          -1.9946    9.0658   -2.0448 H       1  LIG1        0.0660
     58 O          -4.8645   12.0590   -0.0322 O.3     1  LIG1       -0.4909
     59 C          -5.0336   12.3602   -1.4212 C.3     1  LIG1        0.0790
     60 H          -5.1715   13.4416   -1.4824 H       1  LIG1        0.0660
     61 H          -4.1536   12.0700   -2.0019 H       1  LIG1        0.0660
     62 H          -5.9224   11.8579   -1.8243 H       1  LIG1        0.0660
@<TRIPOS>BOND
     1    24    23    1
     2    26    23    1
     3    23    25    1
     4    23    22    1
     5    55    54    1
     6    29    28    1
     7    57    54    1
     8    22    18    1
     9    61    59    1
    10    62    59    1
    11    27    28    1
    12    27    19    1
    13    54    56    1
    14    54    53    1
    15    31    28    1
    16    60    59    1
    17    59    58    1
    18    28    30    1
    19    18    19   ar
    20    18    17   ar
    21    19    20   ar
    22    53    48    1
    23     5     4   ar
    24     5     1   ar
    25    11     8    1
    26    17     4    1
    27    17    21   ar
    28     4     3   ar
    29    36    32   ar
    30    36    35   ar
    31    20    32    1
    32    20    21   ar
    33     1     6    1
    34     1     2   ar
    35    48    49   ar
    36    48    47   ar
    37     3     2   ar
    38     3    12    1
    39    58    49    1
    40     2     7    1
    41    12    13    1
    42    32    33   ar
    43    49    50   ar
    44     7     8    1
    45    35    47    1
    46    35    34   ar
    47    47    51   ar
    48     8     9    1
    49     8    10    1
    50    33    34   ar
    51    33    37    1
    52    34    42    1
    53    50    51   ar
    54    50    52    1
    55    37    38    1
    56    14    13    1
    57    42    43    1
    58    13    16    1
    59    13    15    1
    60    41    38    1
    61    38    39    1
    62    38    40    1
    63    43    46    1
    64    43    44    1
    65    43    45    1
