@<TRIPOS>MOLECULE
mol_data/opt/b3lyp/geoms/mol2/5ll5ll-5ll-.out
 47 49 0 0 0
SMALL
GASTEIGER

@<TRIPOS>ATOM
      1 C          -1.6935   -1.8348   -1.7648 C.ar    1  LIG1        0.0218
      2 C          -0.8375   -2.1127   -0.7338 C.ar    1  LIG1        0.1691
      3 C          -0.2440   -0.9303   -0.1620 C.ar    1  LIG1        0.1768
      4 C          -0.6394    0.2332   -0.7802 C.ar    1  LIG1        0.0749
      5 S          -1.7625   -0.1251   -2.0862 S.2     1  LIG1       -0.0885
      6 H          -2.2746   -2.5186   -2.3636 H       1  LIG1        0.0731
      7 O          -0.5074   -3.3251   -0.2114 O.3     1  LIG1       -0.4909
      8 C          -1.1257   -4.4547   -0.8131 C.3     1  LIG1        0.0790
      9 H          -0.7461   -5.3304   -0.2857 H       1  LIG1        0.0660
     10 H          -2.2178   -4.4109   -0.7124 H       1  LIG1        0.0660
     11 H          -0.8658   -4.5270   -1.8768 H       1  LIG1        0.0660
     12 O           0.6734   -0.9576    0.8504 O.3     1  LIG1       -0.4903
     13 C           0.1703   -1.3866    2.1238 C.3     1  LIG1        0.0790
     14 H           1.0155   -1.3415    2.8126 H       1  LIG1        0.0660
     15 H          -0.6212   -0.7135    2.4730 H       1  LIG1        0.0660
     16 H          -0.2097   -2.4110    2.0733 H       1  LIG1        0.0660
     17 C          -0.2888    1.6029   -0.4361 C.ar    1  LIG1        0.0755
     18 C           0.9326    2.2091   -0.2143 C.ar    1  LIG1        0.1775
     19 C           0.8128    3.5730    0.2392 C.ar    1  LIG1        0.1775
     20 C          -0.4799    4.0289    0.3222 C.ar    1  LIG1        0.0755
     21 S          -1.5952    2.7555   -0.1425 S.2     1  LIG1       -0.0794
     22 O           2.1936    1.7327   -0.3645 O.3     1  LIG1       -0.4903
     23 C           2.4460    0.6704   -1.2860 C.3     1  LIG1        0.0790
     24 H           3.5141    0.7227   -1.5073 H       1  LIG1        0.0660
     25 H           2.2109   -0.2999   -0.8450 H       1  LIG1        0.0660
     26 H           1.8746    0.8098   -2.2097 H       1  LIG1        0.0660
     27 O           1.8935    4.3759    0.4707 O.3     1  LIG1       -0.4903
     28 C           2.6888    4.0255    1.6120 C.3     1  LIG1        0.0790
     29 H           3.4959    4.7589    1.6534 H       1  LIG1        0.0660
     30 H           2.0932    4.0877    2.5301 H       1  LIG1        0.0660
     31 H           3.1073    3.0206    1.5069 H       1  LIG1        0.0660
     32 C          -0.9619    5.3300    0.7697 C.ar    1  LIG1        0.0749
     33 C          -0.6833    6.6195    0.3592 C.ar    1  LIG1        0.1768
     34 C          -1.3217    7.6232    1.1834 C.ar    1  LIG1        0.1691
     35 C          -2.0751    7.0951    2.1893 C.ar    1  LIG1        0.0218
     36 S          -2.0251    5.3659    2.1858 S.2     1  LIG1       -0.0885
     37 H          -2.6503    7.6416    2.9222 H       1  LIG1        0.0731
     38 O           0.0563    7.0829   -0.6782 O.3     1  LIG1       -0.4903
     39 C           0.4249    6.2060   -1.7438 C.3     1  LIG1        0.0790
     40 H           0.7569    6.8581   -2.5542 H       1  LIG1        0.0660
     41 H           1.2425    5.5475   -1.4456 H       1  LIG1        0.0660
     42 H          -0.4317    5.6124   -2.0807 H       1  LIG1        0.0660
     43 O          -1.1423    8.9674    1.0106 O.3     1  LIG1       -0.4909
     44 C          -1.7428    9.5187   -0.1658 C.3     1  LIG1        0.0790
     45 H          -1.5244   10.5882   -0.1451 H       1  LIG1        0.0660
     46 H          -1.3215    9.0767   -1.0731 H       1  LIG1        0.0660
     47 H          -2.8303    9.3703   -0.1552 H       1  LIG1        0.0660
@<TRIPOS>BOND
     1    40    39    1
     2     6     1    1
     3    26    23    1
     4     5     1   ar
     5     5     4   ar
     6    42    39    1
     7    11     8    1
     8     1     2   ar
     9    39    41    1
    10    39    38    1
    11    24    23    1
    12    23    25    1
    13    23    22    1
    14    46    44    1
    15     8    10    1
    16     8     9    1
    17     8     7    1
    18     4    17    1
    19     4     3   ar
    20     2     7    1
    21     2     3   ar
    22    38    33    1
    23    17    18   ar
    24    17    21   ar
    25    22    18    1
    26    18    19   ar
    27    44    47    1
    28    44    45    1
    29    44    43    1
    30     3    12    1
    31    21    20   ar
    32    19    20   ar
    33    19    27    1
    34    20    32    1
    35    33    32   ar
    36    33    34   ar
    37    27    28    1
    38    32    36   ar
    39    12    13    1
    40    43    34    1
    41    34    35   ar
    42    31    28    1
    43    28    29    1
    44    28    30    1
    45    16    13    1
    46    13    15    1
    47    13    14    1
    48    36    35   ar
    49    35    37    1
