@<TRIPOS>MOLECULE
mol_data/opt/b3lyp/geoms/mol2/5ll5ll5ll5ll.out
 62 65 0 0 0
SMALL
GASTEIGER

@<TRIPOS>ATOM
      1 C          -1.9701   -2.1373   -0.9561 C.ar    1  LIG1        0.0218
      2 C          -0.8565   -2.2311   -0.1662 C.ar    1  LIG1        0.1691
      3 C          -0.2380   -0.9540    0.0859 C.ar    1  LIG1        0.1768
      4 C          -0.8745    0.0946   -0.5358 C.ar    1  LIG1        0.0749
      5 S          -2.2651   -0.4919   -1.4411 S.2     1  LIG1       -0.0885
      6 H          -2.6261   -2.9241   -1.2946 H       1  LIG1        0.0731
      7 O          -0.3012   -3.3440    0.3857 O.3     1  LIG1       -0.4909
      8 C          -0.9572   -4.5739    0.1072 C.3     1  LIG1        0.0790
      9 H          -0.3840   -5.3501    0.6152 H       1  LIG1        0.0660
     10 H          -1.9868   -4.5703    0.4873 H       1  LIG1        0.0660
     11 H          -0.9733   -4.7774   -0.9711 H       1  LIG1        0.0660
     12 O           0.9105   -0.8006    0.8107 O.3     1  LIG1       -0.4903
     13 C           0.7931   -1.0757    2.2139 C.3     1  LIG1        0.0790
     14 H           1.7817   -0.8968    2.6401 H       1  LIG1        0.0660
     15 H           0.0668   -0.3998    2.6799 H       1  LIG1        0.0660
     16 H           0.4988   -2.1144    2.3891 H       1  LIG1        0.0660
     17 C          -0.5723    1.5181   -0.4550 C.ar    1  LIG1        0.0755
     18 C           0.5719    2.2445   -0.7229 C.ar    1  LIG1        0.1775
     19 C           0.4391    3.6452   -0.4061 C.ar    1  LIG1        0.1775
     20 C          -0.7862    3.9937    0.1109 C.ar    1  LIG1        0.0755
     21 S          -1.8147    2.5788    0.2222 S.2     1  LIG1       -0.0794
     22 O           1.7608    1.8674   -1.2544 O.3     1  LIG1       -0.4903
     23 C           1.8768    0.6176   -1.9375 C.3     1  LIG1        0.0790
     24 H           2.8154    0.6768   -2.4919 H       1  LIG1        0.0660
     25 H           1.9205   -0.2128   -1.2306 H       1  LIG1        0.0660
     26 H           1.0474    0.4714   -2.6374 H       1  LIG1        0.0660
     27 O           1.4558    4.5456   -0.5609 O.3     1  LIG1       -0.4903
     28 C           1.7974    4.8652   -1.9160 C.3     1  LIG1        0.0790
     29 H           2.5926    5.6106   -1.8589 H       1  LIG1        0.0660
     30 H           2.1582    3.9821   -2.4501 H       1  LIG1        0.0660
     31 H           0.9356    5.2914   -2.4432 H       1  LIG1        0.0660
     32 C          -1.2729    5.3139    0.4731 C.ar    1  LIG1        0.0755
     33 C          -0.6925    6.3293    1.2103 C.ar    1  LIG1        0.1775
     34 C          -1.5000    7.5240    1.2685 C.ar    1  LIG1        0.1775
     35 C          -2.6918    7.4196    0.5887 C.ar    1  LIG1        0.0755
     36 S          -2.8476    5.8307   -0.1358 S.2     1  LIG1       -0.0794
     37 O           0.4756    6.3464    1.8997 O.3     1  LIG1       -0.4903
     38 C           0.9397    5.1475    2.5259 C.3     1  LIG1        0.0790
     39 H           1.6014    5.4731    3.3315 H       1  LIG1        0.0660
     40 H           0.1038    4.5796    2.9473 H       1  LIG1        0.0660
     41 H           1.4981    4.5260    1.8239 H       1  LIG1        0.0660
     42 O          -1.1880    8.5930    2.0485 O.3     1  LIG1       -0.4903
     43 C          -0.0379    9.3545    1.6566 C.3     1  LIG1        0.0790
     44 H           0.1209   10.0846    2.4523 H       1  LIG1        0.0660
     45 H           0.8467    8.7187    1.5620 H       1  LIG1        0.0660
     46 H          -0.2349    9.8838    0.7187 H       1  LIG1        0.0660
     47 C          -3.7493    8.4139    0.4889 C.ar    1  LIG1        0.0749
     48 C          -3.6677    9.7081    0.0203 C.ar    1  LIG1        0.1768
     49 C          -4.8978   10.4451    0.1686 C.ar    1  LIG1        0.1691
     50 C          -5.8937    9.6949    0.7314 C.ar    1  LIG1        0.0218
     51 S          -5.3584    8.0941    1.1147 S.2     1  LIG1       -0.0885
     52 H          -6.9048   10.0129    0.9381 H       1  LIG1        0.0731
     53 O          -2.5507   10.2962   -0.5209 O.3     1  LIG1       -0.4903
     54 C          -2.0684    9.6982   -1.7312 C.3     1  LIG1        0.0790
     55 H          -1.2229   10.3087   -2.0549 H       1  LIG1        0.0660
     56 H          -1.7334    8.6701   -1.5671 H       1  LIG1        0.0660
     57 H          -2.8430    9.7071   -2.5078 H       1  LIG1        0.0660
     58 O          -5.0745   11.7668   -0.1281 O.3     1  LIG1       -0.4909
     59 C          -4.7770   12.1723   -1.4657 C.3     1  LIG1        0.0790
     60 H          -5.1181   13.2062   -1.5496 H       1  LIG1        0.0660
     61 H          -3.7040   12.1256   -1.6693 H       1  LIG1        0.0660
     62 H          -5.3187   11.5559   -2.1948 H       1  LIG1        0.0660
@<TRIPOS>BOND
     1    26    23    1
     2    57    54    1
     3    24    23    1
     4    30    28    1
     5    31    28    1
     6    62    59    1
     7    55    54    1
     8    23    22    1
     9    23    25    1
    10    28    29    1
    11    28    27    1
    12    54    56    1
    13    54    53    1
    14    61    59    1
    15    60    59    1
    16    59    58    1
    17     5     1   ar
    18     5     4   ar
    19     6     1    1
    20    22    18    1
    21    11     8    1
    22     1     2   ar
    23    18    17   ar
    24    18    19   ar
    25    27    19    1
    26     4    17    1
    27     4     3   ar
    28    53    48    1
    29    17    21   ar
    30    19    20   ar
    31     2     3   ar
    32     2     7    1
    33    36    32   ar
    34    36    35   ar
    35    58    49    1
    36    48    49   ar
    37    48    47   ar
    38     3    12    1
    39     8     7    1
    40     8    10    1
    41     8     9    1
    42    20    21   ar
    43    20    32    1
    44    49    50   ar
    45    32    33   ar
    46    47    35    1
    47    47    51   ar
    48    35    34   ar
    49    46    43    1
    50    50    52    1
    51    50    51   ar
    52    12    13    1
    53    33    34   ar
    54    33    37    1
    55    34    42    1
    56    45    43    1
    57    43    42    1
    58    43    44    1
    59    41    38    1
    60    37    38    1
    61    13    16    1
    62    13    14    1
    63    13    15    1
    64    38    40    1
    65    38    39    1
