@<TRIPOS>MOLECULE
mol_data/opt/b3lyp/geoms/mol2/5ll5ll-5ll-5ll-.out
 62 65 0 0 0
SMALL
GASTEIGER

@<TRIPOS>ATOM
      1 C          -2.1401   -2.2247    0.0498 C.ar    1  LIG1        0.0218
      2 C          -0.8712   -2.2354   -0.4630 C.ar    1  LIG1        0.1691
      3 C          -0.2220   -0.9513   -0.3812 C.ar    1  LIG1        0.1768
      4 C          -0.9962    0.0163    0.2150 C.ar    1  LIG1        0.0749
      5 S          -2.5550   -0.6556    0.6789 S.2     1  LIG1       -0.0885
      6 H          -2.8502   -3.0347    0.1115 H       1  LIG1        0.0731
      7 O          -0.1922   -3.2745   -1.0207 O.3     1  LIG1       -0.4909
      8 C          -0.8848   -4.5144   -1.0792 C.3     1  LIG1        0.0790
      9 H          -0.2025   -5.2263   -1.5448 H       1  LIG1        0.0660
     10 H          -1.1507   -4.8659   -0.0742 H       1  LIG1        0.0660
     11 H          -1.7973   -4.4317   -1.6836 H       1  LIG1        0.0660
     12 O           1.0636   -0.7266   -0.7874 O.3     1  LIG1       -0.4903
     13 C           1.2850   -0.8096   -2.2023 C.3     1  LIG1        0.0790
     14 H           2.3444   -0.5964   -2.3548 H       1  LIG1        0.0660
     15 H           1.0521   -1.8091   -2.5805 H       1  LIG1        0.0660
     16 H           0.6823   -0.0624   -2.7315 H       1  LIG1        0.0660
     17 C          -0.6944    1.4286    0.4109 C.ar    1  LIG1        0.0755
     18 C           0.3502    2.0784    1.0397 C.ar    1  LIG1        0.1775
     19 C           0.2840    3.5130    0.9078 C.ar    1  LIG1        0.1775
     20 C          -0.7879    3.9652    0.1767 C.ar    1  LIG1        0.0755
     21 S          -1.7535    2.6085   -0.3720 S.2     1  LIG1       -0.0794
     22 O           1.3850    1.5985    1.7723 O.3     1  LIG1       -0.4903
     23 C           1.3419    0.2661    2.2871 C.3     1  LIG1        0.0790
     24 H           2.1265    0.2233    3.0451 H       1  LIG1        0.0660
     25 H           0.3734    0.0532    2.7515 H       1  LIG1        0.0660
     26 H           1.5498   -0.4644    1.5033 H       1  LIG1        0.0660
     27 O           1.2316    4.3520    1.4248 O.3     1  LIG1       -0.4903
     28 C           1.2273    4.4804    2.8533 C.3     1  LIG1        0.0790
     29 H           2.0139    5.1975    3.0944 H       1  LIG1        0.0660
     30 H           0.2627    4.8650    3.2044 H       1  LIG1        0.0660
     31 H           1.4423    3.5222    3.3342 H       1  LIG1        0.0660
     32 C          -1.1955    5.3382   -0.0822 C.ar    1  LIG1        0.0755
     33 C          -0.5067    6.4304   -0.5758 C.ar    1  LIG1        0.1775
     34 C          -1.2907    7.6398   -0.5725 C.ar    1  LIG1        0.1775
     35 C          -2.5654    7.4868   -0.0819 C.ar    1  LIG1        0.0755
     36 S          -2.8253    5.8228    0.4041 S.2     1  LIG1       -0.0794
     37 O           0.7475    6.5316   -1.0820 O.3     1  LIG1       -0.4903
     38 C           1.4038    5.3704   -1.5967 C.3     1  LIG1        0.0790
     39 H           2.2055    5.7479   -2.2348 H       1  LIG1        0.0660
     40 H           1.8300    4.7706   -0.7913 H       1  LIG1        0.0660
     41 H           0.7162    4.7625   -2.1943 H       1  LIG1        0.0660
     42 O          -0.7981    8.8480   -0.9815 O.3     1  LIG1       -0.4903
     43 C          -0.6010    8.9858   -2.3946 C.3     1  LIG1        0.0790
     44 H          -0.2332   10.0014   -2.5510 H       1  LIG1        0.0660
     45 H           0.1377    8.2674   -2.7608 H       1  LIG1        0.0660
     46 H          -1.5469    8.8540   -2.9329 H       1  LIG1        0.0660
     47 C          -3.6317    8.4732   -0.0140 C.ar    1  LIG1        0.0749
     48 C          -3.6481    9.7717    0.4593 C.ar    1  LIG1        0.1768
     49 C          -4.9092   10.4400    0.2262 C.ar    1  LIG1        0.1691
     50 C          -5.8315    9.6468   -0.3904 C.ar    1  LIG1        0.0218
     51 S          -5.2054    8.0643   -0.7110 S.2     1  LIG1       -0.0885
     52 H          -6.8521    9.9062   -0.6302 H       1  LIG1        0.0731
     53 O          -2.6935   10.4779    1.1160 O.3     1  LIG1       -0.4903
     54 C          -1.7393    9.7896    1.9273 C.3     1  LIG1        0.0790
     55 H          -1.3645   10.5327    2.6345 H       1  LIG1        0.0660
     56 H          -2.2141    8.9699    2.4766 H       1  LIG1        0.0660
     57 H          -0.9125    9.4072    1.3263 H       1  LIG1        0.0660
     58 O          -5.1888   11.7026    0.6661 O.3     1  LIG1       -0.4909
     59 C          -4.4242   12.7468    0.0534 C.3     1  LIG1        0.0790
     60 H          -4.7648   13.6785    0.5093 H       1  LIG1        0.0660
     61 H          -3.3539   12.6174    0.2365 H       1  LIG1        0.0660
     62 H          -4.6109   12.7831   -1.0276 H       1  LIG1        0.0660
@<TRIPOS>BOND
     1    46    43    1
     2    45    43    1
     3    16    13    1
     4    15    13    1
     5    44    43    1
     6    43    42    1
     7    14    13    1
     8    39    38    1
     9    13    12    1
    10    41    38    1
    11    11     8    1
    12    38    37    1
    13    38    40    1
    14     9     8    1
    15    37    33    1
    16     8     7    1
    17     8    10    1
    18    62    59    1
    19     7     2    1
    20    42    34    1
    21    12     3    1
    22    51    50   ar
    23    51    47   ar
    24    52    50    1
    25    33    34   ar
    26    33    32   ar
    27    34    35   ar
    28     2     3   ar
    29     2     1   ar
    30    50    49   ar
    31     3     4   ar
    32    21    20   ar
    33    21    17   ar
    34    32    20    1
    35    32    36   ar
    36    35    47    1
    37    35    36   ar
    38    47    48   ar
    39     1     6    1
    40     1     5   ar
    41    59    61    1
    42    59    60    1
    43    59    58    1
    44    20    19   ar
    45     4    17    1
    46     4     5   ar
    47    49    48   ar
    48    49    58    1
    49    17    18   ar
    50    48    53    1
    51    19    18   ar
    52    19    27    1
    53    18    22    1
    54    53    54    1
    55    57    54    1
    56    27    28    1
    57    26    23    1
    58    22    23    1
    59    54    56    1
    60    54    55    1
    61    23    25    1
    62    23    24    1
    63    28    29    1
    64    28    30    1
    65    28    31    1
