@<TRIPOS>MOLECULE
mol_data/opt/b3lyp/geoms/mol2/5ll5ll5ll-.out
 47 49 0 0 0
SMALL
GASTEIGER

@<TRIPOS>ATOM
      1 C          -1.7347   -2.2190   -1.0957 C.ar    1  LIG1        0.0218
      2 C          -0.7844   -2.2241   -0.1110 C.ar    1  LIG1        0.1691
      3 C          -0.2309   -0.9175    0.1422 C.ar    1  LIG1        0.1768
      4 C          -0.7495    0.0632   -0.6706 C.ar    1  LIG1        0.0749
      5 S          -1.9459   -0.6252   -1.7627 S.2     1  LIG1       -0.0885
      6 H          -2.3124   -3.0447   -1.4809 H       1  LIG1        0.0731
      7 O          -0.3327   -3.2765    0.6241 O.3     1  LIG1       -0.4909
      8 C          -0.9205   -4.5384    0.3373 C.3     1  LIG1        0.0790
      9 H          -0.4459   -5.2577    1.0056 H       1  LIG1        0.0660
     10 H          -2.0022   -4.5245    0.5223 H       1  LIG1        0.0660
     11 H          -0.7382   -4.8318   -0.7044 H       1  LIG1        0.0660
     12 O           0.7655   -0.6799    1.0468 O.3     1  LIG1       -0.4903
     13 C           0.4048   -0.8586    2.4238 C.3     1  LIG1        0.0790
     14 H           1.2969   -0.6142    3.0030 H       1  LIG1        0.0660
     15 H          -0.4082   -0.1779    2.7017 H       1  LIG1        0.0660
     16 H           0.1074   -1.8920    2.6235 H       1  LIG1        0.0660
     17 C          -0.4717    1.4934   -0.6607 C.ar    1  LIG1        0.0755
     18 C           0.7031    2.2136   -0.7622 C.ar    1  LIG1        0.1775
     19 C           0.5095    3.6343   -0.6086 C.ar    1  LIG1        0.1775
     20 C          -0.7941    4.0067   -0.3848 C.ar    1  LIG1        0.0755
     21 S          -1.8241    2.5891   -0.3476 S.2     1  LIG1       -0.0794
     22 O           1.9735    1.8115   -1.0128 O.3     1  LIG1       -0.4903
     23 C           2.2162    0.5234   -1.5817 C.3     1  LIG1        0.0790
     24 H           3.2439    0.5574   -1.9488 H       1  LIG1        0.0660
     25 H           2.1221   -0.2622   -0.8300 H       1  LIG1        0.0660
     26 H           1.5359    0.3265   -2.4170 H       1  LIG1        0.0660
     27 O           1.5400    4.5324   -0.6408 O.3     1  LIG1       -0.4903
     28 C           2.1127    4.7618   -1.9348 C.3     1  LIG1        0.0790
     29 H           2.8898    5.5150   -1.7927 H       1  LIG1        0.0660
     30 H           2.5572    3.8465   -2.3359 H       1  LIG1        0.0660
     31 H           1.3570    5.1446   -2.6307 H       1  LIG1        0.0660
     32 C          -1.3432    5.3480   -0.2658 C.ar    1  LIG1        0.0749
     33 C          -0.9386    6.4389    0.4801 C.ar    1  LIG1        0.1768
     34 C          -1.7156    7.6275    0.2071 C.ar    1  LIG1        0.1691
     35 C          -2.7031    7.4244   -0.7113 C.ar    1  LIG1        0.0218
     36 S          -2.7259    5.7877   -1.2777 S.2     1  LIG1       -0.0885
     37 H          -3.4356    8.1443   -1.0454 H       1  LIG1        0.0731
     38 O           0.0328    6.5446    1.4215 O.3     1  LIG1       -0.4903
     39 C           0.3778    5.4034    2.2097 C.3     1  LIG1        0.0790
     40 H           0.8416    5.8007    3.1151 H       1  LIG1        0.0660
     41 H          -0.5163    4.8312    2.4784 H       1  LIG1        0.0660
     42 H           1.0888    4.7616    1.6865 H       1  LIG1        0.0660
     43 O          -1.5483    8.8091    0.8718 O.3     1  LIG1       -0.4909
     44 C          -0.2995    9.4699    0.6392 C.3     1  LIG1        0.0790
     45 H          -0.3228   10.3809    1.2405 H       1  LIG1        0.0660
     46 H           0.5450    8.8473    0.9478 H       1  LIG1        0.0660
     47 H          -0.1920    9.7376   -0.4198 H       1  LIG1        0.0660
@<TRIPOS>BOND
     1    31    28    1
     2    26    23    1
     3    30    28    1
     4    24    23    1
     5    28    29    1
     6    28    27    1
     7     5     1   ar
     8     5     4   ar
     9    23    22    1
    10    23    25    1
    11     6     1    1
    12    36    35   ar
    13    36    32   ar
    14     1     2   ar
    15    37    35    1
    16    22    18    1
    17    18    17   ar
    18    18    19   ar
    19    35    34   ar
    20    11     8    1
    21     4    17    1
    22     4     3   ar
    23    17    21   ar
    24    27    19    1
    25    19    20   ar
    26    47    44    1
    27    20    21   ar
    28    20    32    1
    29    32    33   ar
    30     2     3   ar
    31     2     7    1
    32     3    12    1
    33    34    33   ar
    34    34    43    1
    35     8    10    1
    36     8     7    1
    37     8     9    1
    38    33    38    1
    39    44    43    1
    40    44    46    1
    41    44    45    1
    42    12    13    1
    43    38    39    1
    44    42    39    1
    45    39    41    1
    46    39    40    1
    47    13    16    1
    48    13    15    1
    49    13    14    1
