@<TRIPOS>MOLECULE
mol_data/opt/b3lyp/geoms/mol2/5ll5ll-5ll-5ll.out
 62 65 0 0 0
SMALL
GASTEIGER

@<TRIPOS>ATOM
      1 C          -0.9685   -2.0468   -2.0790 C.ar    1  LIG1        0.0218
      2 C          -0.6208   -2.1515   -0.7594 C.ar    1  LIG1        0.1691
      3 C          -0.2600   -0.8860   -0.1717 C.ar    1  LIG1        0.1768
      4 C          -0.3165    0.1642   -1.0583 C.ar    1  LIG1        0.0749
      5 S          -0.8239   -0.4063   -2.6434 S.2     1  LIG1       -0.0885
      6 H          -1.2845   -2.8234   -2.7580 H       1  LIG1        0.0731
      7 O          -0.5875   -3.2654    0.0211 O.3     1  LIG1       -0.4909
      8 C          -0.9658   -4.4824   -0.6086 C.3     1  LIG1        0.0790
      9 H          -0.8815   -5.2606    0.1506 H       1  LIG1        0.0660
     10 H          -1.9999   -4.4361   -0.9733 H       1  LIG1        0.0660
     11 H          -0.2991   -4.7167   -1.4482 H       1  LIG1        0.0660
     12 O           0.1628   -0.7430    1.1198 O.3     1  LIG1       -0.4903
     13 C          -0.8320   -0.9896    2.1241 C.3     1  LIG1        0.0790
     14 H          -0.3408   -0.8177    3.0833 H       1  LIG1        0.0660
     15 H          -1.6722   -0.2942    2.0147 H       1  LIG1        0.0660
     16 H          -1.1950   -2.0201    2.0756 H       1  LIG1        0.0660
     17 C          -0.0809    1.5769   -0.8002 C.ar    1  LIG1        0.0755
     18 C           0.9709    2.2375   -0.1952 C.ar    1  LIG1        0.1775
     19 C           0.7293    3.6491   -0.0256 C.ar    1  LIG1        0.1775
     20 C          -0.4710    4.0813   -0.5358 C.ar    1  LIG1        0.0755
     21 S          -1.3522    2.7281   -1.2244 S.2     1  LIG1       -0.0794
     22 O           2.1680    1.7744    0.2430 O.3     1  LIG1       -0.4903
     23 C           2.7193    0.5829   -0.3215 C.3     1  LIG1        0.0790
     24 H           3.7883    0.6236   -0.1027 H       1  LIG1        0.0660
     25 H           2.2855   -0.3081    0.1361 H       1  LIG1        0.0660
     26 H           2.5691    0.5578   -1.4058 H       1  LIG1        0.0660
     27 O           1.6512    4.5037    0.5099 O.3     1  LIG1       -0.4903
     28 C           1.9214    4.3229    1.9073 C.3     1  LIG1        0.0790
     29 H           2.6640    5.0781    2.1705 H       1  LIG1        0.0660
     30 H           1.0128    4.4835    2.4993 H       1  LIG1        0.0660
     31 H           2.3223    3.3251    2.1051 H       1  LIG1        0.0660
     32 C          -1.0440    5.4196   -0.5098 C.ar    1  LIG1        0.0755
     33 C          -0.5549    6.6489   -0.9090 C.ar    1  LIG1        0.1775
     34 C          -1.4457    7.7389   -0.5980 C.ar    1  LIG1        0.1775
     35 C          -2.6050    7.3593    0.0349 C.ar    1  LIG1        0.0755
     36 S          -2.6162    5.6233    0.2744 S.2     1  LIG1       -0.0794
     37 O           0.5849    6.9795   -1.5647 O.3     1  LIG1       -0.4903
     38 C           1.2906    5.9860   -2.3119 C.3     1  LIG1        0.0790
     39 H           1.9528    6.5407   -2.9798 H       1  LIG1        0.0660
     40 H           1.8846    5.3486   -1.6548 H       1  LIG1        0.0660
     41 H           0.6010    5.3757   -2.9047 H       1  LIG1        0.0660
     42 O          -1.1467    9.0446   -0.8730 O.3     1  LIG1       -0.4903
     43 C          -1.2176    9.4089   -2.2575 C.3     1  LIG1        0.0790
     44 H          -0.9736   10.4717   -2.3042 H       1  LIG1        0.0660
     45 H          -0.4959    8.8403   -2.8510 H       1  LIG1        0.0660
     46 H          -2.2293    9.2495   -2.6486 H       1  LIG1        0.0660
     47 C          -3.7403    8.1859    0.4128 C.ar    1  LIG1        0.0749
     48 C          -3.8115    9.3893    1.0888 C.ar    1  LIG1        0.1768
     49 C          -5.1543    9.9227    1.1494 C.ar    1  LIG1        0.1691
     50 C          -6.0788    9.1198    0.5489 C.ar    1  LIG1        0.0218
     51 S          -5.3561    7.6907   -0.1106 S.2     1  LIG1       -0.0885
     52 H          -7.1454    9.2830    0.5016 H       1  LIG1        0.0731
     53 O          -2.8401   10.1058    1.7084 O.3     1  LIG1       -0.4903
     54 C          -1.7059    9.4310    2.2570 C.3     1  LIG1        0.0790
     55 H          -1.3047   10.1025    3.0192 H       1  LIG1        0.0660
     56 H          -2.0029    8.4857    2.7229 H       1  LIG1        0.0660
     57 H          -0.9467    9.2492    1.4941 H       1  LIG1        0.0660
     58 O          -5.4855   11.0626    1.8252 O.3     1  LIG1       -0.4909
     59 C          -4.9388   12.2725    1.2889 C.3     1  LIG1        0.0790
     60 H          -5.2925   13.0773    1.9364 H       1  LIG1        0.0660
     61 H          -3.8454   12.2520    1.2919 H       1  LIG1        0.0660
     62 H          -5.3009   12.4440    0.2671 H       1  LIG1        0.0660
@<TRIPOS>BOND
     1    39    38    1
     2    41    38    1
     3    45    43    1
     4     6     1    1
     5    46    43    1
     6     5     1   ar
     7     5     4   ar
     8    38    40    1
     9    38    37    1
    10    44    43    1
    11    43    42    1
    12     1     2   ar
    13    37    33    1
    14    11     8    1
    15    26    23    1
    16    21    17   ar
    17    21    20   ar
    18     4    17    1
    19     4     3   ar
    20    10     8    1
    21    33    34   ar
    22    33    32   ar
    23    42    34    1
    24    17    18   ar
    25     2     3   ar
    26     2     7    1
    27     8     7    1
    28     8     9    1
    29    34    35   ar
    30    20    32    1
    31    20    19   ar
    32    32    36   ar
    33    23    24    1
    34    23    25    1
    35    23    22    1
    36    18    19   ar
    37    18    22    1
    38     3    12    1
    39    51    47   ar
    40    51    50   ar
    41    19    27    1
    42    35    36   ar
    43    35    47    1
    44    62    59    1
    45    47    48   ar
    46    52    50    1
    47    27    28    1
    48    50    49   ar
    49    48    49   ar
    50    48    53    1
    51    12    13    1
    52    49    58    1
    53    59    61    1
    54    59    58    1
    55    59    60    1
    56    57    54    1
    57    53    54    1
    58    28    31    1
    59    28    29    1
    60    28    30    1
    61    15    13    1
    62    16    13    1
    63    13    14    1
    64    54    56    1
    65    54    55    1
