@<TRIPOS>MOLECULE
mol_data/opt/b3lyp/geoms/mol2/5ll5ll-.out
 32 33 0 0 0
SMALL
GASTEIGER

@<TRIPOS>ATOM
      1 C          -2.1850   -1.9509   -0.7203 C.ar    1  LIG1        0.0218
      2 C          -0.8989   -2.1023   -0.2781 C.ar    1  LIG1        0.1691
      3 C          -0.2656   -0.8496    0.0486 C.ar    1  LIG1        0.1768
      4 C          -1.0714    0.2437   -0.1696 C.ar    1  LIG1        0.0749
      5 S          -2.6363   -0.2705   -0.7877 S.2     1  LIG1       -0.0885
      6 H          -2.8895   -2.7098   -1.0231 H       1  LIG1        0.0731
      7 O          -0.1904   -3.2528   -0.1149 O.3     1  LIG1       -0.4909
      8 C          -0.8653   -4.4561   -0.4557 C.3     1  LIG1        0.0790
      9 H          -0.1588   -5.2670   -0.2754 H       1  LIG1        0.0660
     10 H          -1.7574   -4.6021    0.1669 H       1  LIG1        0.0660
     11 H          -1.1615   -4.4569   -1.5124 H       1  LIG1        0.0660
     12 O           1.0306   -0.7438    0.4694 O.3     1  LIG1       -0.4903
     13 C           1.2990   -1.2801    1.7721 C.3     1  LIG1        0.0790
     14 H           2.3587   -1.0994    1.9604 H       1  LIG1        0.0660
     15 H           0.7006   -0.7655    2.5329 H       1  LIG1        0.0660
     16 H           1.0971   -2.3547    1.8067 H       1  LIG1        0.0660
     17 C          -0.7839    1.6457    0.0924 C.ar    1  LIG1        0.0749
     18 C           0.2995    2.4362   -0.2403 C.ar    1  LIG1        0.1768
     19 C           0.2251    3.7636    0.3294 C.ar    1  LIG1        0.1691
     20 C          -0.9075    3.9715    1.0598 C.ar    1  LIG1        0.0218
     21 S          -1.9216    2.5680    1.0842 S.2     1  LIG1       -0.0885
     22 H          -1.2068    4.8896    1.5435 H       1  LIG1        0.0731
     23 O           1.3758    2.1666   -1.0212 O.3     1  LIG1       -0.4903
     24 C           1.2603    1.2117   -2.0777 C.3     1  LIG1        0.0790
     25 H           2.0693    1.4442   -2.7735 H       1  LIG1        0.0660
     26 H           1.3808    0.1928   -1.7050 H       1  LIG1        0.0660
     27 H           0.2979    1.3115   -2.5904 H       1  LIG1        0.0660
     28 O           1.1412    4.7454    0.0800 O.3     1  LIG1       -0.4909
     29 C           2.4516    4.5080    0.6062 C.3     1  LIG1        0.0790
     30 H           3.0540    5.3721    0.3192 H       1  LIG1        0.0660
     31 H           2.4240    4.4331    1.7009 H       1  LIG1        0.0660
     32 H           2.8910    3.5984    0.1874 H       1  LIG1        0.0660
@<TRIPOS>BOND
     1    25    24    1
     2    27    24    1
     3    24    26    1
     4    24    23    1
     5    11     8    1
     6     6     1    1
     7    23    18    1
     8     5     1   ar
     9     5     4   ar
    10     1     2   ar
    11     8     9    1
    12     8     7    1
    13     8    10    1
    14     2     7    1
    15     2     3   ar
    16    18    17   ar
    17    18    19   ar
    18     4     3   ar
    19     4    17    1
    20     3    12    1
    21    28    19    1
    22    28    29    1
    23    17    21   ar
    24    32    29    1
    25    30    29    1
    26    19    20   ar
    27    12    13    1
    28    29    31    1
    29    20    21   ar
    30    20    22    1
    31    13    16    1
    32    13    14    1
    33    13    15    1
