@<TRIPOS>MOLECULE
mol_data/opt/b3lyp/geoms/mol2/5ll5ll5ll.out
 47 49 0 0 0
SMALL
GASTEIGER

@<TRIPOS>ATOM
      1 C          -1.7498   -2.2167   -1.0906 C.ar    1  LIG1        0.0218
      2 C          -0.8288   -2.2181   -0.0784 C.ar    1  LIG1        0.1691
      3 C          -0.2699   -0.9138    0.1742 C.ar    1  LIG1        0.1768
      4 C          -0.7545    0.0612   -0.6659 C.ar    1  LIG1        0.0749
      5 S          -1.9254   -0.6298   -1.7838 S.2     1  LIG1       -0.0885
      6 H          -2.3242   -3.0418   -1.4821 H       1  LIG1        0.0731
      7 O          -0.4094   -3.2652    0.6829 O.3     1  LIG1       -0.4909
      8 C          -1.0012   -4.5250    0.3951 C.3     1  LIG1        0.0790
      9 H          -0.5537   -5.2401    1.0862 H       1  LIG1        0.0660
     10 H          -2.0877   -4.4981    0.5481 H       1  LIG1        0.0660
     11 H          -0.7916   -4.8337   -0.6369 H       1  LIG1        0.0660
     12 O           0.7021   -0.6741    1.1046 O.3     1  LIG1       -0.4903
     13 C           0.2994   -0.8313    2.4726 C.3     1  LIG1        0.0790
     14 H           1.1765   -0.5881    3.0746 H       1  LIG1        0.0660
     15 H          -0.5145   -0.1392    2.7177 H       1  LIG1        0.0660
     16 H          -0.0142   -1.8591    2.6766 H       1  LIG1        0.0660
     17 C          -0.4627    1.4886   -0.6661 C.ar    1  LIG1        0.0755
     18 C           0.7217    2.1960   -0.7424 C.ar    1  LIG1        0.1775
     19 C           0.5380    3.6204   -0.6128 C.ar    1  LIG1        0.1775
     20 C          -0.7678    4.0083   -0.4322 C.ar    1  LIG1        0.0755
     21 S          -1.8126    2.6014   -0.4072 S.2     1  LIG1       -0.0794
     22 O           1.9948    1.7784   -0.9504 O.3     1  LIG1       -0.4903
     23 C           2.2409    0.4805   -1.4954 C.3     1  LIG1        0.0790
     24 H           3.2792    0.4997   -1.8326 H       1  LIG1        0.0660
     25 H           2.1168   -0.2941   -0.7368 H       1  LIG1        0.0660
     26 H           1.5834    0.2794   -2.3477 H       1  LIG1        0.0660
     27 O           1.5779    4.5081   -0.6263 O.3     1  LIG1       -0.4903
     28 C           2.1906    4.7148   -1.9057 C.3     1  LIG1        0.0790
     29 H           2.9712    5.4617   -1.7503 H       1  LIG1        0.0660
     30 H           2.6368    3.7899   -2.2821 H       1  LIG1        0.0660
     31 H           1.4597    5.0965   -2.6282 H       1  LIG1        0.0660
     32 C          -1.3066    5.3563   -0.3468 C.ar    1  LIG1        0.0749
     33 C          -0.9128    6.4531    0.3963 C.ar    1  LIG1        0.1768
     34 C          -1.6694    7.6455    0.0851 C.ar    1  LIG1        0.1691
     35 C          -2.6317    7.4397   -0.8592 C.ar    1  LIG1        0.0218
     36 S          -2.6545    5.7959   -1.4046 S.2     1  LIG1       -0.0885
     37 H          -3.3467    8.1623   -1.2240 H       1  LIG1        0.0731
     38 O           0.0316    6.5620    1.3645 O.3     1  LIG1       -0.4903
     39 C           0.3417    5.4280    2.1772 C.3     1  LIG1        0.0790
     40 H           0.7834    5.8328    3.0904 H       1  LIG1        0.0660
     41 H          -0.5657    4.8685    2.4274 H       1  LIG1        0.0660
     42 H           1.0608    4.7720    1.6834 H       1  LIG1        0.0660
     43 O          -1.5096    8.8341    0.7389 O.3     1  LIG1       -0.4909
     44 C          -0.2479    9.4796    0.5342 C.3     1  LIG1        0.0790
     45 H          -0.2796   10.3989    1.1222 H       1  LIG1        0.0660
     46 H           0.5808    8.8531    0.8758 H       1  LIG1        0.0660
     47 H          -0.1068    9.7316   -0.5247 H       1  LIG1        0.0660
@<TRIPOS>BOND
     1    31    28    1
     2    26    23    1
     3    30    28    1
     4    28    29    1
     5    28    27    1
     6    24    23    1
     7     5     1   ar
     8     5     4   ar
     9    23    22    1
    10    23    25    1
    11     6     1    1
    12    36    35   ar
    13    36    32   ar
    14    37    35    1
    15     1     2   ar
    16    22    18    1
    17    35    34   ar
    18    18    17   ar
    19    18    19   ar
    20    17     4    1
    21    17    21   ar
    22     4     3   ar
    23    11     8    1
    24    27    19    1
    25    19    20   ar
    26    47    44    1
    27    20    21   ar
    28    20    32    1
    29    32    33   ar
    30     2     3   ar
    31     2     7    1
    32    34    33   ar
    33    34    43    1
    34     3    12    1
    35     8    10    1
    36     8     7    1
    37     8     9    1
    38    33    38    1
    39    44    43    1
    40    44    46    1
    41    44    45    1
    42    12    13    1
    43    38    39    1
    44    42    39    1
    45    39    41    1
    46    39    40    1
    47    13    16    1
    48    13    15    1
    49    13    14    1
