@<TRIPOS>MOLECULE
mol_data/opt/b3lyp/geoms/mol2/5ll5ll5ll-5ll-.out
 62 65 0 0 0
SMALL
GASTEIGER

@<TRIPOS>ATOM
      1 C          -2.1287   -2.2453   -0.3576 C.ar    1  LIG1        0.0218
      2 C          -0.9117   -2.2477    0.2684 C.ar    1  LIG1        0.1691
      3 C          -0.2502   -0.9686    0.2163 C.ar    1  LIG1        0.1768
      4 C          -0.9636   -0.0121   -0.4696 C.ar    1  LIG1        0.0749
      5 S          -2.4745   -0.6915   -1.0629 S.2     1  LIG1       -0.0885
      6 H          -2.8351   -3.0535   -0.4657 H       1  LIG1        0.0731
      7 O          -0.2932   -3.2755    0.9112 O.3     1  LIG1       -0.4909
      8 C          -0.9948   -4.5114    0.9332 C.3     1  LIG1        0.0790
      9 H          -0.3620   -5.2148    1.4755 H       1  LIG1        0.0660
     10 H          -1.9586   -4.4123    1.4490 H       1  LIG1        0.0660
     11 H          -1.1689   -4.8849   -0.0838 H       1  LIG1        0.0660
     12 O           0.9918   -0.7366    0.7369 O.3     1  LIG1       -0.4903
     13 C           1.0781   -0.7867    2.1675 C.3     1  LIG1        0.0790
     14 H           2.1195   -0.5732    2.4146 H       1  LIG1        0.0660
     15 H           0.4323   -0.0256    2.6208 H       1  LIG1        0.0660
     16 H           0.8056   -1.7762    2.5457 H       1  LIG1        0.0660
     17 C          -0.6322    1.3878   -0.6753 C.ar    1  LIG1        0.0755
     18 C           0.5378    2.0004   -1.0830 C.ar    1  LIG1        0.1775
     19 C           0.4690    3.4414   -1.0534 C.ar    1  LIG1        0.1775
     20 C          -0.7528    3.9256   -0.6435 C.ar    1  LIG1        0.0755
     21 S          -1.8462    2.6052   -0.2773 S.2     1  LIG1       -0.0794
     22 O           1.6923    1.4515   -1.5374 O.3     1  LIG1       -0.4903
     23 C           1.6484    0.2136   -2.2510 C.3     1  LIG1        0.0790
     24 H           2.5567    0.1903   -2.8568 H       1  LIG1        0.0660
     25 H           1.6443   -0.6366   -1.5665 H       1  LIG1        0.0660
     26 H           0.7716    0.1718   -2.9054 H       1  LIG1        0.0660
     27 O           1.4561    4.2452   -1.5318 O.3     1  LIG1       -0.4903
     28 C           2.6972    4.2151   -0.8139 C.3     1  LIG1        0.0790
     29 H           3.3638    4.8974   -1.3447 H       1  LIG1        0.0660
     30 H           2.5516    4.5755    0.2090 H       1  LIG1        0.0660
     31 H           3.1272    3.2101   -0.8086 H       1  LIG1        0.0660
     32 C          -1.1899    5.3059   -0.5563 C.ar    1  LIG1        0.0755
     33 C          -0.5508    6.3767    0.0275 C.ar    1  LIG1        0.1775
     34 C          -1.2747    7.6101   -0.0911 C.ar    1  LIG1        0.1775
     35 C          -2.4858    7.4881   -0.7346 C.ar    1  LIG1        0.0755
     36 S          -2.7279    5.8199   -1.2355 S.2     1  LIG1       -0.0794
     37 O           0.6708    6.2891    0.6434 O.3     1  LIG1       -0.4903
     38 C           0.6301    6.4919    2.0637 C.3     1  LIG1        0.0790
     39 H           1.6607    6.4069    2.4137 H       1  LIG1        0.0660
     40 H           0.2388    7.4836    2.3106 H       1  LIG1        0.0660
     41 H           0.0169    5.7225    2.5475 H       1  LIG1        0.0660
     42 O          -0.8227    8.7937    0.4335 O.3     1  LIG1       -0.4903
     43 C           0.2988    9.3585   -0.2646 C.3     1  LIG1        0.0790
     44 H           0.5635   10.2709    0.2727 H       1  LIG1        0.0660
     45 H           1.1480    8.6681   -0.2663 H       1  LIG1        0.0660
     46 H           0.0241    9.6073   -1.2957 H       1  LIG1        0.0660
     47 C          -3.4416    8.5290   -1.0766 C.ar    1  LIG1        0.0749
     48 C          -4.0070    9.5358   -0.3172 C.ar    1  LIG1        0.1768
     49 C          -4.8296   10.4356   -1.0938 C.ar    1  LIG1        0.1691
     50 C          -4.8975   10.0957   -2.4130 C.ar    1  LIG1        0.0218
     51 S          -3.9681    8.6765   -2.7591 S.2     1  LIG1       -0.0885
     52 H          -5.4804   10.5861   -3.1788 H       1  LIG1        0.0731
     53 O          -3.9251    9.7752    1.0170 O.3     1  LIG1       -0.4903
     54 C          -3.7367    8.6815    1.9150 C.3     1  LIG1        0.0790
     55 H          -4.0925    9.0319    2.8863 H       1  LIG1        0.0660
     56 H          -4.3244    7.8124    1.6019 H       1  LIG1        0.0660
     57 H          -2.6824    8.4074    1.9904 H       1  LIG1        0.0660
     58 O          -5.5516   11.4602   -0.5509 O.3     1  LIG1       -0.4909
     59 C          -4.7774   12.5254    0.0111 C.3     1  LIG1        0.0790
     60 H          -5.4964   13.2515    0.3954 H       1  LIG1        0.0660
     61 H          -4.1423   12.1698    0.8274 H       1  LIG1        0.0660
     62 H          -4.1559   13.0031   -0.7573 H       1  LIG1        0.0660
@<TRIPOS>BOND
     1    52    50    1
     2    26    23    1
     3    24    23    1
     4    51    50   ar
     5    51    47   ar
     6    50    49   ar
     7    23    25    1
     8    23    22    1
     9    22    18    1
    10    27    19    1
    11    27    28    1
    12    29    28    1
    13    46    43    1
    14    36    35   ar
    15    36    32   ar
    16    49    58    1
    17    49    48   ar
    18    18    19   ar
    19    18    17   ar
    20    47    35    1
    21    47    48   ar
    22     5     4   ar
    23     5     1   ar
    24    19    20   ar
    25    28    31    1
    26    28    30    1
    27    62    59    1
    28    35    34   ar
    29    17     4    1
    30    17    21   ar
    31    20    32    1
    32    20    21   ar
    33    32    33   ar
    34    58    59    1
    35     4     3   ar
    36     6     1    1
    37     1     2   ar
    38    48    53    1
    39    45    43    1
    40    43    44    1
    41    43    42    1
    42    34    33   ar
    43    34    42    1
    44    11     8    1
    45    59    60    1
    46    59    61    1
    47    33    37    1
    48     3     2   ar
    49     3    12    1
    50     2     7    1
    51    37    38    1
    52    12    13    1
    53     7     8    1
    54     8    10    1
    55     8     9    1
    56    53    54    1
    57    56    54    1
    58    54    57    1
    59    54    55    1
    60    38    40    1
    61    38    39    1
    62    38    41    1
    63    13    14    1
    64    13    16    1
    65    13    15    1
