@<TRIPOS>MOLECULE
mol_data/opt/b3lyp/geoms/mol2/5ll5ll-5ll5ll-.out
 62 65 0 0 0
SMALL
GASTEIGER

@<TRIPOS>ATOM
      1 C          -1.3029   -1.8591   -2.3761 C.ar    1  LIG1        0.0218
      2 C          -0.8691   -2.0818   -1.0973 C.ar    1  LIG1        0.1691
      3 C          -0.4134   -0.8820   -0.4420 C.ar    1  LIG1        0.1768
      4 C          -0.4866    0.2372   -1.2385 C.ar    1  LIG1        0.0749
      5 S          -1.1266   -0.1853   -2.8218 S.2     1  LIG1       -0.0885
      6 H          -1.6988   -2.5665   -3.0880 H       1  LIG1        0.0731
      7 O          -0.8308   -3.2545   -0.4085 O.3     1  LIG1       -0.4909
      8 C          -1.3065   -4.4023   -1.0992 C.3     1  LIG1        0.0790
      9 H          -1.2063   -5.2401   -0.4085 H       1  LIG1        0.0660
     10 H          -2.3598   -4.2858   -1.3845 H       1  LIG1        0.0660
     11 H          -0.7099   -4.5973   -1.9994 H       1  LIG1        0.0660
     12 O           0.1038   -0.8586    0.8225 O.3     1  LIG1       -0.4903
     13 C          -0.8294   -1.1433    1.8747 C.3     1  LIG1        0.0790
     14 H          -0.2658   -1.0666    2.8061 H       1  LIG1        0.0660
     15 H          -1.6428   -0.4088    1.8790 H       1  LIG1        0.0660
     16 H          -1.2409   -2.1518    1.7753 H       1  LIG1        0.0660
     17 C          -0.1736    1.6138   -0.8866 C.ar    1  LIG1        0.0755
     18 C           0.9400    2.1780   -0.2946 C.ar    1  LIG1        0.1775
     19 C           0.7705    3.5767    0.0116 C.ar    1  LIG1        0.1775
     20 C          -0.4398    4.0969   -0.3810 C.ar    1  LIG1        0.0755
     21 S          -1.4159    2.8463   -1.1319 S.2     1  LIG1       -0.0794
     22 O           2.1392    1.6313    0.0256 O.3     1  LIG1       -0.4903
     23 C           2.6091    0.4838   -0.6848 C.3     1  LIG1        0.0790
     24 H           3.6903    0.4682   -0.5327 H       1  LIG1        0.0660
     25 H           2.1703   -0.4334   -0.2879 H       1  LIG1        0.0660
     26 H           2.3919    0.5700   -1.7545 H       1  LIG1        0.0660
     27 O           1.7560    4.3433    0.5658 O.3     1  LIG1       -0.4903
     28 C           2.0947    4.0245    1.9231 C.3     1  LIG1        0.0790
     29 H           2.8821    4.7240    2.2090 H       1  LIG1        0.0660
     30 H           1.2279    4.1635    2.5797 H       1  LIG1        0.0660
     31 H           2.4633    2.9985    2.0069 H       1  LIG1        0.0660
     32 C          -0.9456    5.4477   -0.2009 C.ar    1  LIG1        0.0755
     33 C          -0.3702    6.6815   -0.4381 C.ar    1  LIG1        0.1775
     34 C          -1.1796    7.7815    0.0234 C.ar    1  LIG1        0.1775
     35 C          -2.3852    7.4057    0.5662 C.ar    1  LIG1        0.0755
     36 S          -2.5400    5.6578    0.5321 S.2     1  LIG1       -0.0794
     37 O           0.8066    7.0002   -1.0333 O.3     1  LIG1       -0.4903
     38 C           1.3470    6.1347   -2.0345 C.3     1  LIG1        0.0790
     39 H           2.0221    6.7563   -2.6267 H       1  LIG1        0.0660
     40 H           1.9068    5.3127   -1.5855 H       1  LIG1        0.0660
     41 H           0.5541    5.7407   -2.6789 H       1  LIG1        0.0660
     42 O          -0.8240    9.0902   -0.1433 O.3     1  LIG1       -0.4903
     43 C           0.3083    9.5216    0.6237 C.3     1  LIG1        0.0790
     44 H           0.4525   10.5760    0.3813 H       1  LIG1        0.0660
     45 H           0.1092    9.4188    1.6969 H       1  LIG1        0.0660
     46 H           1.2048    8.9552    0.3566 H       1  LIG1        0.0660
     47 C          -3.4219    8.2476    1.1414 C.ar    1  LIG1        0.0749
     48 C          -4.0235    9.4036    0.6815 C.ar    1  LIG1        0.1768
     49 C          -4.9315    9.9881    1.6434 C.ar    1  LIG1        0.1691
     50 C          -5.0273    9.2680    2.7977 C.ar    1  LIG1        0.0218
     51 S          -4.0212    7.8591    2.7600 S.2     1  LIG1       -0.0885
     52 H          -5.6685    9.4785    3.6409 H       1  LIG1        0.0731
     53 O          -3.9100   10.0334   -0.5150 O.3     1  LIG1       -0.4903
     54 C          -3.6156    9.2703   -1.6871 C.3     1  LIG1        0.0790
     55 H          -3.9637    9.8754   -2.5270 H       1  LIG1        0.0660
     56 H          -2.5430    9.0932   -1.7845 H       1  LIG1        0.0660
     57 H          -4.1541    8.3169   -1.6764 H       1  LIG1        0.0660
     58 O          -5.6951   11.0917    1.3886 O.3     1  LIG1       -0.4909
     59 C          -4.9659   12.3111    1.2102 C.3     1  LIG1        0.0790
     60 H          -5.7115   13.0827    1.0084 H       1  LIG1        0.0660
     61 H          -4.4132   12.5711    2.1222 H       1  LIG1        0.0660
     62 H          -4.2718   12.2412    0.3681 H       1  LIG1        0.0660
@<TRIPOS>BOND
     1     6     1    1
     2     5     1   ar
     3     5     4   ar
     4    41    38    1
     5    39    38    1
     6    55    54    1
     7     1     2   ar
     8    38    40    1
     9    38    37    1
    10    11     8    1
    11    56    54    1
    12    26    23    1
    13    54    57    1
    14    54    53    1
    15    10     8    1
    16     4    17    1
    17     4     3   ar
    18    21    17   ar
    19    21    20   ar
    20     8     7    1
    21     8     9    1
    22     2     3   ar
    23     2     7    1
    24    37    33    1
    25    17    18   ar
    26    23    24    1
    27    23    25    1
    28    23    22    1
    29    53    48    1
    30     3    12    1
    31    33    32   ar
    32    33    34   ar
    33    20    32    1
    34    20    19   ar
    35    18    19   ar
    36    18    22    1
    37    32    36   ar
    38    42    34    1
    39    42    43    1
    40    19    27    1
    41    34    35   ar
    42    46    43    1
    43    62    59    1
    44    44    43    1
    45    36    35   ar
    46    27    28    1
    47    35    47    1
    48    43    45    1
    49    48    47   ar
    50    48    49   ar
    51    12    13    1
    52    60    59    1
    53    47    51   ar
    54    59    58    1
    55    59    61    1
    56    58    49    1
    57    49    50   ar
    58    16    13    1
    59    13    15    1
    60    13    14    1
    61    28    31    1
    62    28    29    1
    63    28    30    1
    64    51    50   ar
    65    50    52    1
