@<TRIPOS>MOLECULE
mol_data/opt/b3lyp/geoms/mol2/5ll5ll5ll-5ll.out
 62 65 0 0 0
SMALL
GASTEIGER

@<TRIPOS>ATOM
      1 C          -1.9704   -2.1797   -0.4721 C.ar    1  LIG1        0.0218
      2 C          -0.8807   -2.1753    0.3559 C.ar    1  LIG1        0.1691
      3 C          -0.2348   -0.8888    0.4267 C.ar    1  LIG1        0.1768
      4 C          -0.8270    0.0649   -0.3679 C.ar    1  LIG1        0.0749
      5 S          -2.2079   -0.6232   -1.2141 S.2     1  LIG1       -0.0885
      6 H          -2.6381   -2.9946   -0.7049 H       1  LIG1        0.0731
      7 O          -0.3700   -3.2021    1.0885 O.3     1  LIG1       -0.4909
      8 C          -1.0525   -4.4446    0.9848 C.3     1  LIG1        0.0790
      9 H          -0.5142   -5.1455    1.6236 H       1  LIG1        0.0660
     10 H          -2.0909   -4.3576    1.3295 H       1  LIG1        0.0660
     11 H          -1.0470   -4.8132   -0.0488 H       1  LIG1        0.0660
     12 O           0.8987   -0.6491    1.1514 O.3     1  LIG1       -0.4903
     13 C           0.7465   -0.7203    2.5762 C.3     1  LIG1        0.0790
     14 H           1.7283   -0.4943    2.9958 H       1  LIG1        0.0660
     15 H           0.0207    0.0237    2.9245 H       1  LIG1        0.0660
     16 H           0.4325   -1.7197    2.8904 H       1  LIG1        0.0660
     17 C          -0.4848    1.4748   -0.5008 C.ar    1  LIG1        0.0755
     18 C           0.6942    2.1175   -0.8264 C.ar    1  LIG1        0.1775
     19 C           0.5966    3.5535   -0.7406 C.ar    1  LIG1        0.1775
     20 C          -0.6369    4.0137   -0.3462 C.ar    1  LIG1        0.0755
     21 S          -1.7181    2.6636   -0.0625 S.2     1  LIG1       -0.0794
     22 O           1.8901    1.6269   -1.2353 O.3     1  LIG1       -0.4903
     23 C           1.9803    0.2961   -1.7487 C.3     1  LIG1        0.0790
     24 H           2.9400    0.2499   -2.2671 H       1  LIG1        0.0660
     25 H           1.9649   -0.4383   -0.9415 H       1  LIG1        0.0660
     26 H           1.1716    0.0911   -2.4580 H       1  LIG1        0.0660
     27 O           1.6509    4.3879   -0.9867 O.3     1  LIG1       -0.4903
     28 C           2.0419    4.4967   -2.3623 C.3     1  LIG1        0.0790
     29 H           2.8650    5.2130   -2.3867 H       1  LIG1        0.0660
     30 H           2.3817    3.5330   -2.7517 H       1  LIG1        0.0660
     31 H           1.2126    4.8735   -2.9721 H       1  LIG1        0.0660
     32 C          -1.0926    5.3898   -0.2331 C.ar    1  LIG1        0.0755
     33 C          -0.5309    6.4915    0.3841 C.ar    1  LIG1        0.1775
     34 C          -1.2628    7.7094    0.1412 C.ar    1  LIG1        0.1775
     35 C          -2.3992    7.5436   -0.6137 C.ar    1  LIG1        0.0755
     36 S          -2.5828    5.8560   -1.0607 S.2     1  LIG1       -0.0794
     37 O           0.5696    6.5922    1.1713 O.3     1  LIG1       -0.4903
     38 C           0.9940    5.4664    1.9429 C.3     1  LIG1        0.0790
     39 H           1.6028    5.8778    2.7509 H       1  LIG1        0.0660
     40 H           0.1341    4.9371    2.3668 H       1  LIG1        0.0660
     41 H           1.5960    4.7814    1.3437 H       1  LIG1        0.0660
     42 O          -0.9132    8.9118    0.6877 O.3     1  LIG1       -0.4903
     43 C           0.3127    9.4753    0.2017 C.3     1  LIG1        0.0790
     44 H           0.4364   10.4248    0.7257 H       1  LIG1        0.0660
     45 H           1.1614    8.8206    0.4180 H       1  LIG1        0.0660
     46 H           0.2515    9.6607   -0.8772 H       1  LIG1        0.0660
     47 C          -3.3480    8.5536   -1.0545 C.ar    1  LIG1        0.0749
     48 C          -3.9939    9.5632   -0.3669 C.ar    1  LIG1        0.1768
     49 C          -4.7712   10.4254   -1.2292 C.ar    1  LIG1        0.1691
     50 C          -4.7266   10.0538   -2.5407 C.ar    1  LIG1        0.0218
     51 S          -3.7427    8.6484   -2.7764 S.2     1  LIG1       -0.0885
     52 H          -5.2566   10.5131   -3.3621 H       1  LIG1        0.0731
     53 O          -4.0262    9.8354    0.9619 O.3     1  LIG1       -0.4903
     54 C          -3.8757    8.7710    1.9037 C.3     1  LIG1        0.0790
     55 H          -4.3318    9.1301    2.8289 H       1  LIG1        0.0660
     56 H          -4.3998    7.8720    1.5633 H       1  LIG1        0.0660
     57 H          -2.8224    8.5453    2.0795 H       1  LIG1        0.0660
     58 O          -5.5550   11.4461   -0.7711 O.3     1  LIG1       -0.4909
     59 C          -4.8495   12.5388   -0.1723 C.3     1  LIG1        0.0790
     60 H          -5.6115   13.2556    0.1401 H       1  LIG1        0.0660
     61 H          -4.2729   12.2127    0.6977 H       1  LIG1        0.0660
     62 H          -4.1802   13.0158   -0.8997 H       1  LIG1        0.0660
@<TRIPOS>BOND
     1    52    50    1
     2    31    28    1
     3    51    50   ar
     4    51    47   ar
     5    30    28    1
     6    50    49   ar
     7    26    23    1
     8    29    28    1
     9    28    27    1
    10    24    23    1
    11    23    22    1
    12    23    25    1
    13    22    18    1
    14    49    58    1
    15    49    48   ar
    16     5     1   ar
    17     5     4   ar
    18    36    35   ar
    19    36    32   ar
    20    47    35    1
    21    47    48   ar
    22    27    19    1
    23    62    59    1
    24    46    43    1
    25    18    19   ar
    26    18    17   ar
    27    58    59    1
    28    19    20   ar
    29     6     1    1
    30    35    34   ar
    31    17     4    1
    32    17    21   ar
    33     1     2   ar
    34     4     3   ar
    35    48    53    1
    36    20    32    1
    37    20    21   ar
    38    32    33   ar
    39    59    60    1
    40    59    61    1
    41    11     8    1
    42    34    33   ar
    43    34    42    1
    44    43    45    1
    45    43    42    1
    46    43    44    1
    47     2     3   ar
    48     2     7    1
    49    33    37    1
    50     3    12    1
    51    53    54    1
    52     8     7    1
    53     8    10    1
    54     8     9    1
    55    12    13    1
    56    37    38    1
    57    41    38    1
    58    56    54    1
    59    54    57    1
    60    54    55    1
    61    38    40    1
    62    38    39    1
    63    13    16    1
    64    13    15    1
    65    13    14    1
