@<TRIPOS>MOLECULE
mol_data/opt/b3lyp/geoms/mol2/5ll5ll-5ll.out
 47 49 0 0 0
SMALL
GASTEIGER

@<TRIPOS>ATOM
      1 C          -1.8045   -2.0322   -1.4930 C.ar    1  LIG1        0.0218
      2 C          -0.8416   -2.2021   -0.5355 C.ar    1  LIG1        0.1691
      3 C          -0.2726   -0.9574   -0.0837 C.ar    1  LIG1        0.1768
      4 C          -0.7947    0.1449   -0.7203 C.ar    1  LIG1        0.0749
      5 S          -2.0078   -0.3503   -1.8943 S.2     1  LIG1       -0.0885
      6 H          -2.3949   -2.7807   -1.9979 H       1  LIG1        0.0731
      7 O          -0.3905   -3.3625    0.0140 O.3     1  LIG1       -0.4909
      8 C          -0.9894   -4.5576   -0.4690 C.3     1  LIG1        0.0790
      9 H          -0.5100   -5.3792    0.0643 H       1  LIG1        0.0660
     10 H          -2.0685   -4.5708   -0.2690 H       1  LIG1        0.0660
     11 H          -0.8227   -4.6746   -1.5474 H       1  LIG1        0.0660
     12 O           0.7338   -0.8740    0.8368 O.3     1  LIG1       -0.4903
     13 C           0.3822   -1.2675    2.1710 C.3     1  LIG1        0.0790
     14 H           1.2816   -1.1279    2.7731 H       1  LIG1        0.0660
     15 H          -0.4209   -0.6324    2.5625 H       1  LIG1        0.0660
     16 H           0.0750   -2.3166    2.2054 H       1  LIG1        0.0660
     17 C          -0.4979    1.5488   -0.4833 C.ar    1  LIG1        0.0755
     18 C           0.7018    2.2278   -0.3896 C.ar    1  LIG1        0.1775
     19 C           0.5421    3.6080   -0.0049 C.ar    1  LIG1        0.1775
     20 C          -0.7652    4.0023    0.1505 C.ar    1  LIG1        0.0755
     21 S          -1.8410    2.6510   -0.1614 S.2     1  LIG1       -0.0794
     22 O           1.9714    1.8022   -0.6087 O.3     1  LIG1       -0.4903
     23 C           2.2098    0.7285   -1.5213 C.3     1  LIG1        0.0790
     24 H           3.2541    0.8282   -1.8249 H       1  LIG1        0.0660
     25 H           2.0603   -0.2399   -1.0406 H       1  LIG1        0.0660
     26 H           1.5639    0.8133   -2.4014 H       1  LIG1        0.0660
     27 O           1.5896    4.4783    0.1057 O.3     1  LIG1       -0.4903
     28 C           2.4989    4.2144    1.1830 C.3     1  LIG1        0.0790
     29 H           3.2599    4.9952    1.1328 H       1  LIG1        0.0660
     30 H           1.9817    4.2721    2.1480 H       1  LIG1        0.0660
     31 H           2.9681    3.2331    1.0716 H       1  LIG1        0.0660
     32 C          -1.2771    5.3054    0.5436 C.ar    1  LIG1        0.0749
     33 C          -0.9855    6.5784    0.0919 C.ar    1  LIG1        0.1768
     34 C          -1.6480    7.6131    0.8547 C.ar    1  LIG1        0.1691
     35 C          -2.4435    7.1219    1.8476 C.ar    1  LIG1        0.0218
     36 S          -2.4164    5.3911    1.8943 S.2     1  LIG1       -0.0885
     37 H          -3.0683    7.6927    2.5187 H       1  LIG1        0.0731
     38 O          -0.2158    6.9841   -0.9490 O.3     1  LIG1       -0.4903
     39 C          -0.0574    6.1317   -2.0850 C.3     1  LIG1        0.0790
     40 H           0.2327    6.7892   -2.9074 H       1  LIG1        0.0660
     41 H           0.7257    5.3901   -1.9168 H       1  LIG1        0.0660
     42 H          -1.0001    5.6324   -2.3323 H       1  LIG1        0.0660
     43 O          -1.5701    8.9430    0.5525 O.3     1  LIG1       -0.4909
     44 C          -0.2755    9.5324    0.7169 C.3     1  LIG1        0.0790
     45 H          -0.3833   10.5821    0.4366 H       1  LIG1        0.0660
     46 H           0.0515    9.4683    1.7627 H       1  LIG1        0.0660
     47 H           0.4657    9.0535    0.0710 H       1  LIG1        0.0660
@<TRIPOS>BOND
     1    40    39    1
     2    26    23    1
     3    42    39    1
     4    39    41    1
     5    39    38    1
     6     6     1    1
     7     5     1   ar
     8     5     4   ar
     9    24    23    1
    10    11     8    1
    11    23    25    1
    12    23    22    1
    13     1     2   ar
    14    38    33    1
    15     4    17    1
    16     4     3   ar
    17    22    18    1
    18     2     3   ar
    19     2     7    1
    20    17    18   ar
    21    17    21   ar
    22     8    10    1
    23     8     7    1
    24     8     9    1
    25    18    19   ar
    26    21    20   ar
    27     3    12    1
    28    19    27    1
    29    19    20   ar
    30    47    44    1
    31    33    32   ar
    32    33    34   ar
    33    27    28    1
    34    20    32    1
    35    45    44    1
    36    32    36   ar
    37    43    44    1
    38    43    34    1
    39    44    46    1
    40    12    13    1
    41    34    35   ar
    42    31    28    1
    43    29    28    1
    44    28    30    1
    45    35    36   ar
    46    35    37    1
    47    13    16    1
    48    13    15    1
    49    13    14    1
