@<TRIPOS>MOLECULE
mol_data/opt/b3lyp/geoms/mol2/6aa.out
 11 11 0 0 0
SMALL
GASTEIGER

@<TRIPOS>ATOM
      1 C          -4.5736   -2.0189    0.0001 C.ar    1  LIG1        0.0276
      2 C          -3.1777   -2.0242    0.0000 C.ar    1  LIG1       -0.0436
      3 C          -2.5094   -0.8007   -0.0002 C.ar    1  LIG1       -0.0589
      4 C          -3.2650    0.3708   -0.0003 C.ar    1  LIG1       -0.0436
      5 C          -4.6569    0.2638   -0.0002 C.ar    1  LIG1        0.0276
      6 N          -5.3139   -0.9030    0.0000 N.ar    1  LIG1       -0.2633
      7 H          -1.4239   -0.7611   -0.0003 H       1  LIG1        0.0618
      8 H          -2.6338   -2.9638    0.0001 H       1  LIG1        0.0633
      9 H          -5.2750    1.1599   -0.0003 H       1  LIG1        0.0829
     10 H          -5.1248   -2.9576    0.0003 H       1  LIG1        0.0829
     11 H          -2.7911    1.3476   -0.0005 H       1  LIG1        0.0633
@<TRIPOS>BOND
     1    11     4    1
     2     4     5   ar
     3     4     3   ar
     4     9     5    1
     5     7     3    1
     6     5     6   ar
     7     3     2   ar
     8     6     1   ar
     9     2     1   ar
    10     2     8    1
    11     1    10    1
