@<TRIPOS>MOLECULE
mol_data/opt/b3lyp/geoms/mol2/6aa13ld13dl-6fe-6ea4ad4hh13ih.out
 98 105 0 0 0
SMALL
GASTEIGER

@<TRIPOS>ATOM
      1 C          -4.4434   -1.1861   -3.3233 C.ar    1  LIG1        0.0283
      2 C          -3.0775   -1.4681   -3.3513 C.ar    1  LIG1       -0.0436
      3 C          -2.2474   -0.7808   -2.4640 C.ar    1  LIG1       -0.0583
      4 C          -2.8006    0.1497   -1.5917 C.ar    1  LIG1       -0.0341
      5 C          -4.1880    0.3675   -1.6402 C.ar    1  LIG1        0.0907
      6 N          -4.9971   -0.2953   -2.4972 N.ar    1  LIG1       -0.2534
      7 H          -1.1780   -0.9700   -2.4501 H       1  LIG1        0.0619
      8 H          -2.6822   -2.2021   -4.0450 H       1  LIG1        0.0633
      9 H          -5.1263   -1.7000   -3.9970 H       1  LIG1        0.0830
     10 H          -2.1929    0.7007   -0.8850 H       1  LIG1        0.0639
     11 C          -4.8741    1.3217   -0.7813 C.ar    1  LIG1        0.1089
     12 C          -4.4545    2.2403    0.1804 C.ar    1  LIG1        0.1647
     13 C          -5.6151    2.9373    0.6518 C.ar    1  LIG1        0.1206
     14 C          -6.7179    2.4220   -0.0616 C.ar    1  LIG1        0.0860
     15 N          -6.2423    1.4492   -0.8853 N.ar    1  LIG1       -0.3478
     16 H          -6.7352    0.9452   -1.6120 H       1  LIG1        0.1661
     17 O          -3.1601    2.3482    0.5517 O.3     1  LIG1       -0.4916
     18 C          -2.7323    3.5438    1.2168 C.3     1  LIG1        0.0789
     19 H          -1.6428    3.4984    1.2271 H       1  LIG1        0.0660
     20 H          -3.0599    4.4346    0.6714 H       1  LIG1        0.0660
     21 H          -3.1082    3.5853    2.2420 H       1  LIG1        0.0660
     22 N          -5.8020    4.5507    2.6596 N.1     1  LIG1       -0.1907
     23 C          -5.7140    3.8378    1.7424 C.1     1  LIG1        0.1050
     24 C          -8.1242    2.7354    0.0274 C.ar    1  LIG1        0.0860
     25 C          -8.7875    3.9661    0.1522 C.ar    1  LIG1        0.1206
     26 C         -10.1939    3.6806    0.2123 C.ar    1  LIG1        0.1634
     27 C         -10.3624    2.3037    0.0971 C.ar    1  LIG1        0.0957
     28 N          -9.0837    1.7608   -0.0476 N.ar    1  LIG1       -0.3489
     29 H          -8.8888    0.7817    0.1122 H       1  LIG1        0.1661
     30 N          -7.6255    6.2623   -0.0700 N.1     1  LIG1       -0.1907
     31 C          -8.1498    5.2294    0.0499 C.1     1  LIG1        0.1050
     32 O         -11.2526    4.5118    0.3151 O.3     1  LIG1       -0.4917
     33 C         -11.0313    5.8816    0.6714 C.3     1  LIG1        0.0789
     34 H         -12.0233    6.2992    0.8449 H       1  LIG1        0.0660
     35 H         -10.4326    5.9608    1.5843 H       1  LIG1        0.0660
     36 H         -10.5384    6.4286   -0.1363 H       1  LIG1        0.0660
     37 C         -11.6716    0.2409   -0.5409 C.ar    1  LIG1        0.2224
     38 C         -11.5688    1.4834    0.1395 C.ar    1  LIG1        0.0644
     39 C         -12.6931    1.8675    0.8732 C.ar    1  LIG1       -0.0299
     40 C         -13.8228    1.0383    0.9563 C.ar    1  LIG1        0.0516
     41 C         -13.7740   -0.2065    0.2814 C.ar    1  LIG1        0.0928
     42 N         -12.7108   -0.5654   -0.4514 N.ar    1  LIG1       -0.2111
     43 H         -12.6876    2.8118    1.4028 H       1  LIG1        0.0639
     44 O         -10.6635   -0.2184   -1.3416 O.3     1  LIG1       -0.4919
     45 H         -10.1640    0.5415   -1.6745 H       1  LIG1        0.2937
     46 C         -14.9355    1.4517    1.7505 C.1     1  LIG1       -0.0675
     47 C         -15.8543    1.8384    2.4365 C.1     1  LIG1       -0.1138
     48 H         -16.6665    2.1616    3.0458 H       1  LIG1        0.1232
     49 C         -14.7248   -2.5353    0.6499 C.ar    1  LIG1        0.1230
     50 C         -14.9029   -1.1721    0.3054 C.ar    1  LIG1        0.0355
     51 C         -16.1966   -0.7765   -0.0474 C.ar    1  LIG1       -0.0478
     52 C         -17.2286   -1.7037   -0.0865 C.ar    1  LIG1       -0.0350
     53 C         -16.9520   -3.0432    0.2303 C.ar    1  LIG1        0.0725
     54 N         -15.7243   -3.4305    0.6075 N.ar    1  LIG1       -0.2378
     55 H         -16.3891    0.2606   -0.2995 H       1  LIG1        0.0626
     56 C         -13.4644   -3.0391    1.1165 C.1     1  LIG1       -0.0491
     57 C         -12.4296   -3.4916    1.5465 C.1     1  LIG1       -0.1124
     58 H         -11.5133   -3.8943    1.9115 H       1  LIG1        0.1232
     59 H         -18.2304   -1.3847   -0.3490 H       1  LIG1        0.0639
     60 C         -19.2123   -3.9371   -0.4878 C.ar    1  LIG1       -0.0519
     61 C         -20.1672   -4.9475   -0.5099 C.ar    1  LIG1       -0.0521
     62 C         -17.9919   -4.1041    0.1861 C.ar    1  LIG1        0.0016
     63 C         -19.9635   -6.1785    0.1364 C.ar    1  LIG1        0.0013
     64 H         -21.1018   -4.7872   -1.0362 H       1  LIG1        0.0624
     65 C         -17.7603   -5.3292    0.8209 C.ar    1  LIG1       -0.0346
     66 C         -18.7204   -6.3500    0.8017 C.ar    1  LIG1        0.0601
     67 H         -16.8136   -5.4856    1.3239 H       1  LIG1        0.0637
     68 H         -19.4249   -3.0133   -1.0159 H       1  LIG1        0.0624
     69 N         -18.0642   -8.5645    1.9955 N.1     1  LIG1       -0.1908
     70 C         -18.3817   -7.5839    1.4555 C.1     1  LIG1        0.0998
     71 C         -21.6594   -7.6291   -1.0642 C.ar    1  LIG1        0.0331
     72 C         -22.6778   -8.5861   -0.9842 C.ar    1  LIG1       -0.0296
     73 C         -21.0221   -7.2187    0.1297 C.ar    1  LIG1        0.0058
     74 C         -23.0880   -9.1741    0.2201 C.ar    1  LIG1        0.0210
     75 H         -23.1995   -8.8584   -1.8959 H       1  LIG1        0.0643
     76 C         -21.4261   -7.8122    1.3364 C.ar    1  LIG1       -0.0309
     77 C         -22.4292   -8.7739    1.4122 C.ar    1  LIG1        0.0345
     78 H         -20.9352   -7.5048    2.2552 H       1  LIG1        0.0643
     79 N         -21.3400   -7.0661   -2.3127 N.pl3   1  LIG1       -0.3575
     80 H         -20.3783   -6.7616   -2.3973 H       1  LIG1        0.1423
     81 H         -21.5957   -7.6589   -3.0920 H       1  LIG1        0.1423
     82 N         -22.8215   -9.2995    2.6709 N.pl3   1  LIG1       -0.3574
     83 H         -22.9556  -10.3061    2.6360 H       1  LIG1        0.1423
     84 H         -22.1421   -9.0832    3.3923 H       1  LIG1        0.1423
     85 C         -24.1799  -10.1537    0.2248 C.ar    1  LIG1        0.0530
     86 C         -24.5646  -11.1171   -0.7137 C.ar    1  LIG1       -0.0045
     87 C         -25.7527  -11.7339   -0.2173 C.ar    1  LIG1        0.0456
     88 C         -26.0589  -11.1467    0.9976 C.ar    1  LIG1        0.0233
     89 N         -25.0934  -10.2030    1.2571 N.ar    1  LIG1       -0.3588
     90 H         -25.0522   -9.5919    2.0587 H       1  LIG1        0.1654
     91 H         -26.8728  -11.3283    1.6833 H       1  LIG1        0.0826
     92 C         -23.8637  -11.5146   -1.9796 C.3     1  LIG1       -0.0360
     93 H         -24.3554  -11.1183   -2.8782 H       1  LIG1        0.0279
     94 H         -23.8382  -12.6068   -2.0931 H       1  LIG1        0.0279
     95 H         -22.8264  -11.1710   -1.9881 H       1  LIG1        0.0279
     96 N         -26.4967  -12.7218   -0.8944 N.pl3   1  LIG1       -0.3566
     97 H         -25.9085  -13.3240   -1.4599 H       1  LIG1        0.1424
     98 H         -27.0411  -13.2980   -0.2628 H       1  LIG1        0.1424
@<TRIPOS>BOND
     1     8     2    1
     2     9     1    1
     3     2     1   ar
     4     2     3   ar
     5     1     6   ar
     6    81    79    1
     7    93    92    1
     8     6     5   ar
     9     3     7    1
    10     3     4   ar
    11    80    79    1
    12    79    71    1
    13    94    92    1
    14    95    92    1
    15    92    86    1
    16    75    72    1
    17    45    44    1
    18     5     4   ar
    19     5    11    1
    20    16    15    1
    21     4    10    1
    22    97    96    1
    23    44    37    1
    24    71    72   ar
    25    71    73   ar
    26    64    61    1
    27    68    60    1
    28    72    74   ar
    29    96    98    1
    30    96    87    1
    31    15    11   ar
    32    15    14   ar
    33    11    12   ar
    34    86    87   ar
    35    86    85   ar
    36    37    42   ar
    37    37    38   ar
    38    61    60   ar
    39    61    63   ar
    40    60    62   ar
    41    42    41   ar
    42    59    52    1
    43    55    51    1
    44    87    88   ar
    45    36    33    1
    46    52    51   ar
    47    52    53   ar
    48    30    31    3
    49    14    24    1
    50    14    13   ar
    51    28    24   ar
    52    28    27   ar
    53    28    29    1
    54    51    50   ar
    55    24    25   ar
    56    31    25    1
    57    27    38    1
    58    27    26   ar
    59    73    63    1
    60    73    76   ar
    61    63    66   ar
    62    38    39   ar
    63    25    26   ar
    64    12    17    1
    65    12    13   ar
    66    62    53    1
    67    62    65   ar
    68    26    32    1
    69    74    85    1
    70    74    77   ar
    71    85    89   ar
    72    53    54   ar
    73    41    50    1
    74    41    40   ar
    75    50    49   ar
    76    32    33    1
    77    17    18    1
    78    54    49   ar
    79    49    56    1
    80    13    23    1
    81    20    18    1
    82    33    34    1
    83    33    35    1
    84    66    65   ar
    85    66    70    1
    86    65    67    1
    87    39    40   ar
    88    39    43    1
    89    40    46    1
    90    88    89   ar
    91    88    91    1
    92    56    57    3
    93    18    19    1
    94    18    21    1
    95    89    90    1
    96    76    77   ar
    97    76    78    1
    98    77    82    1
    99    70    69    3
   100    57    58    1
   101    23    22    3
   102    46    47    3
   103    47    48    1
   104    83    82    1
   105    82    84    1
