@<TRIPOS>MOLECULE
mol_data/opt/b3lyp/geoms/mol2/6aa12le-4ef12af-.out
 45 48 0 0 0
SMALL
GASTEIGER

@<TRIPOS>ATOM
      1 C          -4.3511   -2.3474   -0.7839 C.ar    1  LIG1        0.0284
      2 C          -2.9638   -2.3368   -0.9338 C.ar    1  LIG1       -0.0436
      3 C          -2.3099   -1.1056   -0.8733 C.ar    1  LIG1       -0.0582
      4 C          -3.0557    0.0491   -0.6690 C.ar    1  LIG1       -0.0325
      5 C          -4.4512   -0.0687   -0.5223 C.ar    1  LIG1        0.1097
      6 N          -5.0899   -1.2543   -0.5798 N.ar    1  LIG1       -0.2518
      7 H          -1.2319   -1.0441   -0.9914 H       1  LIG1        0.0619
      8 H          -2.4195   -3.2615   -1.0954 H       1  LIG1        0.0633
      9 H          -4.8993   -3.2873   -0.8284 H       1  LIG1        0.0830
     10 H          -2.5899    1.0261   -0.6284 H       1  LIG1        0.0640
     11 C          -5.2792    1.1105   -0.2936 C.ar    1  LIG1        0.1964
     12 C          -5.0008    2.4253    0.0004 C.ar    1  LIG1        0.1832
     13 C          -6.2591    3.1231    0.1081 C.ar    1  LIG1        0.1127
     14 C          -7.2312    2.1680   -0.1495 C.ar    1  LIG1        0.1561
     15 O          -6.6377    0.9642   -0.3795 O.2     1  LIG1       -0.4482
     16 O          -3.7544    2.9581    0.1231 O.3     1  LIG1       -0.4901
     17 C          -3.4203    3.4451    1.4330 C.3     1  LIG1        0.0790
     18 H          -2.4083    3.8454    1.3558 H       1  LIG1        0.0660
     19 H          -4.1060    4.2365    1.7464 H       1  LIG1        0.0660
     20 H          -3.4389    2.6288    2.1646 H       1  LIG1        0.0660
     21 C          -6.4267    4.4766    0.4883 C.1     1  LIG1       -0.0622
     22 C          -6.5324    5.6283    0.8452 C.1     1  LIG1       -0.1137
     23 H          -6.6542    6.6455    1.1366 H       1  LIG1        0.1232
     24 C          -9.5046    3.1750   -0.6716 C.ar    1  LIG1        0.0363
     25 C         -10.8984    3.0506   -0.5625 C.ar    1  LIG1       -0.0315
     26 C          -8.6912    2.1488   -0.1254 C.ar    1  LIG1        0.0375
     27 C         -11.5300    1.9596    0.0452 C.ar    1  LIG1        0.0599
     28 H         -11.5134    3.8240   -1.0080 H       1  LIG1        0.0638
     29 C          -9.3171    1.0334    0.4496 C.ar    1  LIG1       -0.0076
     30 C         -10.7021    0.9248    0.5443 C.ar    1  LIG1        0.1282
     31 H          -8.6942    0.2382    0.8499 H       1  LIG1        0.0662
     32 C          -8.9799    4.2697   -1.4216 C.1     1  LIG1       -0.0689
     33 C          -8.5962    5.1960   -2.0992 C.1     1  LIG1       -0.1139
     34 H          -8.2253    6.0069   -2.6815 H       1  LIG1        0.1232
     35 O         -11.2874   -0.1481    1.1410 O.3     1  LIG1       -0.5060
     36 H         -10.5960   -0.7598    1.4282 H       1  LIG1        0.2922
     37 C         -12.9863    1.9535    0.1448 C.ar    1  LIG1        0.1420
     38 C         -13.8887    2.9885    0.1860 C.ar    1  LIG1        0.0259
     39 C         -15.1807    2.3887    0.2425 C.ar    1  LIG1        0.1550
     40 C         -14.9885    1.0345    0.2346 C.ar    1  LIG1        0.1338
     41 O         -13.6492    0.7615    0.1761 O.2     1  LIG1       -0.4591
     42 H         -15.6517    0.1849    0.2686 H       1  LIG1        0.1068
     43 H         -13.6728    4.0459    0.2034 H       1  LIG1        0.0692
     44 O         -16.3350    3.1103    0.3006 O.3     1  LIG1       -0.5036
     45 H         -17.0849    2.5037    0.3487 H       1  LIG1        0.2923
@<TRIPOS>BOND
     1    34    33    1
     2    33    32    3
     3    32    24    1
     4     8     2    1
     5    28    25    1
     6     7     3    1
     7     2     3   ar
     8     2     1   ar
     9     3     4   ar
    10     9     1    1
    11     1     6   ar
    12    24    25   ar
    13    24    26   ar
    14     4    10    1
    15     4     5   ar
    16     6     5   ar
    17    25    27   ar
    18     5    11    1
    19    15    11   ar
    20    15    14   ar
    21    11    12   ar
    22    14    26    1
    23    14    13   ar
    24    26    29   ar
    25    12    13   ar
    26    12    16    1
    27    27    37    1
    28    27    30   ar
    29    13    21    1
    30    16    17    1
    31    37    41   ar
    32    37    38   ar
    33    41    40   ar
    34    38    43    1
    35    38    39   ar
    36    40    39   ar
    37    40    42    1
    38    39    44    1
    39    44    45    1
    40    29    30   ar
    41    29    31    1
    42    21    22    3
    43    30    35    1
    44    22    23    1
    45    35    36    1
    46    18    17    1
    47    17    19    1
    48    17    20    1
