@<TRIPOS>MOLECULE
mol_data/opt/b3lyp/geoms/mol2/6aa4dd13aa12hf.out
 41 44 0 0 0
SMALL
GASTEIGER

@<TRIPOS>ATOM
      1 C          -4.1831   -2.1791   -0.5173 C.ar    1  LIG1        0.0283
      2 C          -2.8632   -2.2501   -0.0679 C.ar    1  LIG1       -0.0436
      3 C          -2.2852   -1.0882    0.4367 C.ar    1  LIG1       -0.0583
      4 C          -3.0312    0.0879    0.4611 C.ar    1  LIG1       -0.0357
      5 C          -4.3437    0.0707   -0.0374 C.ar    1  LIG1        0.0722
      6 N          -4.9083   -1.0604   -0.5067 N.ar    1  LIG1       -0.2549
      7 H          -1.2680   -1.0925    0.8164 H       1  LIG1        0.0619
      8 H          -2.3168   -3.1866   -0.1065 H       1  LIG1        0.0633
      9 H          -4.6811   -3.0653   -0.9067 H       1  LIG1        0.0830
     10 H          -2.5994    0.9920    0.8695 H       1  LIG1        0.0639
     11 C          -4.7962    2.6159   -0.1333 C.ar    1  LIG1        0.0616
     12 C          -5.7092    3.6712   -0.1205 C.ar    1  LIG1       -0.0334
     13 C          -5.2304    1.2652   -0.0433 C.ar    1  LIG1        0.0189
     14 C          -7.1020    3.4837   -0.0173 C.ar    1  LIG1        0.0169
     15 H          -5.3172    4.6759   -0.2110 H       1  LIG1        0.0637
     16 C          -6.6091    1.0669    0.0260 C.ar    1  LIG1       -0.0333
     17 C          -7.5296    2.1236    0.0456 C.ar    1  LIG1        0.0615
     18 H          -6.9731    0.0475    0.0632 H       1  LIG1        0.0637
     19 N          -2.3171    3.3374   -0.4311 N.1     1  LIG1       -0.1908
     20 C          -3.4176    2.9841   -0.2958 C.1     1  LIG1        0.0998
     21 N         -10.0362    1.4671    0.2027 N.1     1  LIG1       -0.1908
     22 C          -8.9108    1.7621    0.1348 C.1     1  LIG1        0.0998
     23 C          -7.9631    4.6486    0.0087 C.ar    1  LIG1        0.0483
     24 C          -7.6033    6.0034    0.0218 C.ar    1  LIG1       -0.0357
     25 C          -8.7730    6.7759    0.0540 C.ar    1  LIG1       -0.0327
     26 C          -9.8567    5.8891    0.0589 C.ar    1  LIG1        0.0845
     27 N          -9.3492    4.6186    0.0311 N.ar    1  LIG1       -0.3517
     28 H          -9.9293    3.7910    0.0355 H       1  LIG1        0.1660
     29 H          -6.5954    6.3913    0.0282 H       1  LIG1        0.0639
     30 H          -8.8388    7.8515    0.1214 H       1  LIG1        0.0640
     31 C         -11.2665    6.1371    0.0841 C.ar    1  LIG1        0.1751
     32 C         -12.0178    7.2817   -0.0797 C.ar    1  LIG1        0.1145
     33 C         -13.3828    6.8703    0.0627 C.ar    1  LIG1        0.1763
     34 C         -13.3827    5.5249    0.2902 C.ar    1  LIG1        0.1359
     35 O         -12.0974    5.0592    0.3000 O.2     1  LIG1       -0.4558
     36 H         -14.1622    4.7972    0.4490 H       1  LIG1        0.1068
     37 N         -11.5936    8.5897   -0.3030 N.pl3   1  LIG1       -0.3522
     38 H         -10.8079    8.6608   -0.9392 H       1  LIG1        0.1425
     39 H         -12.3528    9.1911   -0.5999 H       1  LIG1        0.1425
     40 O         -14.4022    7.7705   -0.0507 O.3     1  LIG1       -0.5024
     41 H         -15.2491    7.3174    0.0474 H       1  LIG1        0.2923
@<TRIPOS>BOND
     1    38    37    1
     2     9     1    1
     3    39    37    1
     4     1     6   ar
     5     1     2   ar
     6     6     5   ar
     7    19    20    3
     8    37    32    1
     9    20    11    1
    10    15    12    1
    11    11    12   ar
    12    11    13   ar
    13    12    14   ar
    14     8     2    1
    15    32    33   ar
    16    32    31   ar
    17     2     3   ar
    18    40    41    1
    19    40    33    1
    20    13     5    1
    21    13    16   ar
    22     5     4   ar
    23    14    23    1
    24    14    17   ar
    25    23    24   ar
    26    23    27   ar
    27    24    29    1
    28    24    25   ar
    29    16    17   ar
    30    16    18    1
    31    27    28    1
    32    27    26   ar
    33    17    22    1
    34    25    26   ar
    35    25    30    1
    36    26    31    1
    37    33    34   ar
    38    31    35   ar
    39    22    21    3
    40    34    35   ar
    41    34    36    1
    42     3     4   ar
    43     3     7    1
    44     4    10    1
