@<TRIPOS>MOLECULE
mol_data/opt/b3lyp/geoms/mol2/6aa6aa-6aa-6aa-.out
 38 41 0 0 0
SMALL
GASTEIGER

@<TRIPOS>ATOM
      1 C          -4.3800   -2.2654   -0.0005 C.ar    1  LIG1        0.0283
      2 C          -2.9850   -2.2998   -0.0005 C.ar    1  LIG1       -0.0436
      3 C          -2.3068   -1.0826   -0.0005 C.ar    1  LIG1       -0.0583
      4 C          -3.0379    0.1012   -0.0004 C.ar    1  LIG1       -0.0356
      5 C          -4.4422    0.0415   -0.0003 C.ar    1  LIG1        0.0724
      6 N          -5.0935   -1.1387   -0.0004 N.ar    1  LIG1       -0.2549
      7 H          -1.2212   -1.0521   -0.0005 H       1  LIG1        0.0619
      8 H          -2.4553   -3.2465   -0.0006 H       1  LIG1        0.0633
      9 H          -4.9526   -3.1915   -0.0005 H       1  LIG1        0.0830
     10 H          -2.5187    1.0522   -0.0004 H       1  LIG1        0.0639
     11 C          -4.7872    2.5634   -0.0001 C.ar    1  LIG1        0.0374
     12 C          -5.2985    1.2549   -0.0002 C.ar    1  LIG1        0.0185
     13 C          -6.6968    1.1400   -0.0002 C.ar    1  LIG1       -0.0491
     14 C          -7.4859    2.2799   -0.0001 C.ar    1  LIG1       -0.0350
     15 C          -6.8760    3.5463    0.0000 C.ar    1  LIG1        0.0724
     16 N          -5.5333    3.6648   -0.0000 N.ar    1  LIG1       -0.2543
     17 H          -7.1378    0.1500   -0.0002 H       1  LIG1        0.0625
     18 H          -3.7142    2.7408   -0.0001 H       1  LIG1        0.0836
     19 H          -8.5651    2.1789   -0.0000 H       1  LIG1        0.0639
     20 C          -6.9835    6.0521    0.0004 C.ar    1  LIG1        0.0374
     21 C          -7.6487    4.8107    0.0001 C.ar    1  LIG1        0.0185
     22 C          -9.0493    4.8648    0.0000 C.ar    1  LIG1       -0.0491
     23 C          -9.6983    6.0920    0.0001 C.ar    1  LIG1       -0.0350
     24 C          -8.9428    7.2756    0.0004 C.ar    1  LIG1        0.0724
     25 N          -7.5949    7.2328    0.0005 N.ar    1  LIG1       -0.2543
     26 H          -9.6443    3.9575   -0.0002 H       1  LIG1        0.0625
     27 H          -5.8981    6.0632    0.0005 H       1  LIG1        0.0836
     28 H         -10.7817    6.1179    0.0001 H       1  LIG1        0.0639
     29 C          -8.7448    9.7736    0.0010 C.ar    1  LIG1        0.0367
     30 C          -9.5612    8.6257    0.0006 C.ar    1  LIG1        0.0184
     31 C         -10.9473    8.8388    0.0003 C.ar    1  LIG1       -0.0497
     32 C         -11.4408   10.1396    0.0005 C.ar    1  LIG1       -0.0430
     33 C         -10.5336   11.1985    0.0009 C.ar    1  LIG1        0.0276
     34 N          -9.2052   11.0276    0.0012 N.ar    1  LIG1       -0.2626
     35 H         -11.6429    8.0060   -0.0001 H       1  LIG1        0.0625
     36 H         -10.8868   12.2282    0.0011 H       1  LIG1        0.0829
     37 H          -7.6672    9.6460    0.0012 H       1  LIG1        0.0836
     38 H         -12.5093   10.3303    0.0002 H       1  LIG1        0.0633
@<TRIPOS>BOND
     1     8     2    1
     2     7     3    1
     3     2     3   ar
     4     2     1   ar
     5     3     4   ar
     6     9     1    1
     7     1     6   ar
     8     4    10    1
     9     4     5   ar
    10     6     5   ar
    11     5    12    1
    12    17    13    1
    13    12    13   ar
    14    12    11   ar
    15    26    22    1
    16    13    14   ar
    17    18    11    1
    18    11    16   ar
    19    35    31    1
    20    14    19    1
    21    14    15   ar
    22    16    15   ar
    23    22    21   ar
    24    22    23   ar
    25    15    21    1
    26    28    23    1
    27    21    20   ar
    28    23    24   ar
    29    38    32    1
    30    31    32   ar
    31    31    30   ar
    32    20    27    1
    33    20    25   ar
    34    24    25   ar
    35    24    30    1
    36    32    33   ar
    37    30    29   ar
    38    33    36    1
    39    33    34   ar
    40    29    34   ar
    41    29    37    1
