@<TRIPOS>MOLECULE
mol_data/opt/b3lyp/geoms/mol2/6aa6aa6aa6aa.out
 38 41 0 0 0
SMALL
GASTEIGER

@<TRIPOS>ATOM
      1 C          -4.4986   -2.2731   -0.0004 C.ar    1  LIG1        0.0283
      2 C          -3.1061   -2.3672   -0.0005 C.ar    1  LIG1       -0.0436
      3 C          -2.3765   -1.1803   -0.0005 C.ar    1  LIG1       -0.0583
      4 C          -3.0570    0.0335   -0.0004 C.ar    1  LIG1       -0.0356
      5 C          -4.4625    0.0342   -0.0003 C.ar    1  LIG1        0.0724
      6 N          -5.1632   -1.1172   -0.0003 N.ar    1  LIG1       -0.2549
      7 H          -1.2905   -1.1964   -0.0005 H       1  LIG1        0.0619
      8 H          -2.6172   -3.3357   -0.0006 H       1  LIG1        0.0633
      9 H          -5.1104   -3.1736   -0.0005 H       1  LIG1        0.0830
     10 H          -2.4975    0.9617   -0.0003 H       1  LIG1        0.0639
     11 C          -6.6691    1.2271   -0.0000 C.ar    1  LIG1        0.0374
     12 C          -5.2620    1.2855   -0.0002 C.ar    1  LIG1        0.0185
     13 C          -4.7005    2.5694   -0.0003 C.ar    1  LIG1       -0.0491
     14 C          -5.5223    3.6885   -0.0002 C.ar    1  LIG1       -0.0350
     15 C          -6.9167    3.5234    0.0000 C.ar    1  LIG1        0.0724
     16 N          -7.4659    2.2915    0.0001 N.ar    1  LIG1       -0.2543
     17 H          -3.6247    2.7107   -0.0005 H       1  LIG1        0.0625
     18 H          -7.1515    0.2549    0.0001 H       1  LIG1        0.0836
     19 H          -5.0747    4.6756   -0.0003 H       1  LIG1        0.0639
     20 C          -9.2509    4.4374    0.0005 C.ar    1  LIG1        0.0374
     21 C          -7.8611    4.6655    0.0001 C.ar    1  LIG1        0.0185
     22 C          -7.4589    6.0081   -0.0001 C.ar    1  LIG1       -0.0491
     23 C          -8.4098    7.0196    0.0000 C.ar    1  LIG1       -0.0350
     24 C          -9.7742    6.6875    0.0004 C.ar    1  LIG1        0.0724
     25 N         -10.1699    5.3984    0.0006 N.ar    1  LIG1       -0.2543
     26 H          -6.4076    6.2776   -0.0004 H       1  LIG1        0.0625
     27 H          -9.6121    3.4139    0.0007 H       1  LIG1        0.0836
     28 H          -8.0841    8.0532   -0.0001 H       1  LIG1        0.0639
     29 C         -12.2020    7.3078    0.0012 C.ar    1  LIG1        0.0367
     30 C         -10.8519    7.7094    0.0006 C.ar    1  LIG1        0.0184
     31 C         -10.6055    9.0900    0.0002 C.ar    1  LIG1       -0.0497
     32 C         -11.6769    9.9775    0.0004 C.ar    1  LIG1       -0.0430
     33 C         -12.9722    9.4612    0.0010 C.ar    1  LIG1        0.0276
     34 N         -13.2399    8.1488    0.0014 N.ar    1  LIG1       -0.2626
     35 H          -9.5925    9.4790   -0.0003 H       1  LIG1        0.0625
     36 H         -13.8325   10.1282    0.0012 H       1  LIG1        0.0829
     37 H         -12.4294    6.2467    0.0015 H       1  LIG1        0.0836
     38 H         -11.5121   11.0503    0.0001 H       1  LIG1        0.0633
@<TRIPOS>BOND
     1     8     2    1
     2     7     3    1
     3     2     3   ar
     4     2     1   ar
     5    17    13    1
     6     3     4   ar
     7     9     1    1
     8     1     6   ar
     9    26    22    1
    10     4    10    1
    11     4     5   ar
    12     6     5   ar
    13     5    12    1
    14    13    12   ar
    15    13    14   ar
    16    35    31    1
    17    19    14    1
    18    12    11   ar
    19    14    15   ar
    20    28    23    1
    21    22    23   ar
    22    22    21   ar
    23    11    18    1
    24    11    16   ar
    25    15    16   ar
    26    15    21    1
    27    23    24   ar
    28    38    32    1
    29    21    20   ar
    30    31    32   ar
    31    31    30   ar
    32    32    33   ar
    33    24    30    1
    34    24    25   ar
    35    20    25   ar
    36    20    27    1
    37    30    29   ar
    38    33    36    1
    39    33    34   ar
    40    29    34   ar
    41    29    37    1
