@<TRIPOS>MOLECULE
mol_data/opt/b3lyp/geoms/mol2/6aa6aa6aa-6aa.out
 38 41 0 0 0
SMALL
GASTEIGER

@<TRIPOS>ATOM
      1 C          -4.4627   -2.2664   -0.0005 C.ar    1  LIG1        0.0283
      2 C          -3.0693   -2.3451   -0.0006 C.ar    1  LIG1       -0.0436
      3 C          -2.3528   -1.1502   -0.0005 C.ar    1  LIG1       -0.0583
      4 C          -3.0467    0.0559   -0.0004 C.ar    1  LIG1       -0.0356
      5 C          -4.4521    0.0410   -0.0003 C.ar    1  LIG1        0.0724
      6 N          -5.1402   -1.1180   -0.0004 N.ar    1  LIG1       -0.2549
      7 H          -1.2667   -1.1542   -0.0005 H       1  LIG1        0.0619
      8 H          -2.5697   -3.3082   -0.0007 H       1  LIG1        0.0633
      9 H          -5.0645   -3.1737   -0.0006 H       1  LIG1        0.0830
     10 H          -2.4978    0.9902   -0.0003 H       1  LIG1        0.0639
     11 C          -6.6703    1.2133   -0.0000 C.ar    1  LIG1        0.0374
     12 C          -5.2641    1.2843   -0.0002 C.ar    1  LIG1        0.0185
     13 C          -4.7144    2.5734   -0.0003 C.ar    1  LIG1       -0.0491
     14 C          -5.5454    3.6856   -0.0002 C.ar    1  LIG1       -0.0350
     15 C          -6.9382    3.5076    0.0000 C.ar    1  LIG1        0.0724
     16 N          -7.4765    2.2711    0.0001 N.ar    1  LIG1       -0.2543
     17 H          -3.6400    2.7248   -0.0004 H       1  LIG1        0.0625
     18 H          -7.1436    0.2366    0.0000 H       1  LIG1        0.0836
     19 H          -5.1063    4.6762   -0.0002 H       1  LIG1        0.0639
     20 C          -7.5033    5.9863    0.0001 C.ar    1  LIG1        0.0374
     21 C          -7.8973    4.6379    0.0002 C.ar    1  LIG1        0.0185
     22 C          -9.2806    4.4001    0.0003 C.ar    1  LIG1       -0.0491
     23 C         -10.1670    5.4660    0.0005 C.ar    1  LIG1       -0.0350
     24 C          -9.6710    6.7810    0.0004 C.ar    1  LIG1        0.0724
     25 N          -8.3443    7.0174    0.0002 N.ar    1  LIG1       -0.2543
     26 H          -9.6323    3.3749    0.0004 H       1  LIG1        0.0625
     27 H          -6.4497    6.2567    0.0000 H       1  LIG1        0.0836
     28 H         -11.2329    5.2707    0.0006 H       1  LIG1        0.0639
     29 C         -11.9525    7.8987    0.0007 C.ar    1  LIG1        0.0367
     30 C         -10.5494    7.9790    0.0005 C.ar    1  LIG1        0.0184
     31 C          -9.9907    9.2668    0.0005 C.ar    1  LIG1       -0.0497
     32 C         -10.8292   10.3747    0.0006 C.ar    1  LIG1       -0.0430
     33 C         -12.2098   10.1700    0.0007 C.ar    1  LIG1        0.0276
     34 N         -12.7713    8.9548    0.0008 N.ar    1  LIG1       -0.2626
     35 H          -8.9115    9.3669    0.0004 H       1  LIG1        0.0625
     36 H         -12.8954   11.0154    0.0008 H       1  LIG1        0.0829
     37 H         -12.4519    6.9328    0.0007 H       1  LIG1        0.0836
     38 H         -10.4240   11.3819    0.0006 H       1  LIG1        0.0633
@<TRIPOS>BOND
     1     8     2    1
     2     2     1   ar
     3     2     3   ar
     4     9     1    1
     5     7     3    1
     6     1     6   ar
     7     3     4   ar
     8    17    13    1
     9     6     5   ar
    10     4     5   ar
    11     4    10    1
    12     5    12    1
    13    13    12   ar
    14    13    14   ar
    15    19    14    1
    16    12    11   ar
    17    14    15   ar
    18    11    18    1
    19    11    16   ar
    20    27    20    1
    21    15    16   ar
    22    15    21    1
    23    20    21   ar
    24    20    25   ar
    25    21    22   ar
    26    25    24   ar
    27    22    26    1
    28    22    23   ar
    29    35    31    1
    30    24    23   ar
    31    24    30    1
    32    23    28    1
    33    31    30   ar
    34    31    32   ar
    35    30    29   ar
    36    38    32    1
    37    32    33   ar
    38    29    37    1
    39    29    34   ar
    40    33    34   ar
    41    33    36    1
