@<TRIPOS>MOLECULE
mol_data/opt/b3lyp/geoms/mol2/6aa6aa6aa6aa-.out
 38 41 0 0 0
SMALL
GASTEIGER

@<TRIPOS>ATOM
      1 C          -4.5045   -2.2667   -0.0004 C.ar    1  LIG1        0.0283
      2 C          -3.1119   -2.3619   -0.0004 C.ar    1  LIG1       -0.0436
      3 C          -2.3815   -1.1757   -0.0004 C.ar    1  LIG1       -0.0583
      4 C          -3.0612    0.0388   -0.0003 C.ar    1  LIG1       -0.0356
      5 C          -4.4664    0.0407   -0.0003 C.ar    1  LIG1        0.0724
      6 N          -5.1682   -1.1105   -0.0004 N.ar    1  LIG1       -0.2549
      7 H          -1.2955   -1.1923   -0.0004 H       1  LIG1        0.0619
      8 H          -2.6239   -3.3309   -0.0005 H       1  LIG1        0.0633
      9 H          -5.1166   -3.1669   -0.0005 H       1  LIG1        0.0830
     10 H          -2.5009    0.9665   -0.0003 H       1  LIG1        0.0639
     11 C          -6.6721    1.2355   -0.0001 C.ar    1  LIG1        0.0374
     12 C          -5.2648    1.2923   -0.0002 C.ar    1  LIG1        0.0185
     13 C          -4.7021    2.5755   -0.0003 C.ar    1  LIG1       -0.0491
     14 C          -5.5227    3.6957   -0.0002 C.ar    1  LIG1       -0.0350
     15 C          -6.9171    3.5321   -0.0001 C.ar    1  LIG1        0.0724
     16 N          -7.4678    2.3005    0.0000 N.ar    1  LIG1       -0.2543
     17 H          -3.6261    2.7158   -0.0005 H       1  LIG1        0.0625
     18 H          -7.1551    0.2634    0.0000 H       1  LIG1        0.0836
     19 H          -5.0740    4.6823   -0.0003 H       1  LIG1        0.0639
     20 C          -9.2500    4.4486    0.0004 C.ar    1  LIG1        0.0374
     21 C          -7.8599    4.6750    0.0000 C.ar    1  LIG1        0.0185
     22 C          -7.4562    6.0172   -0.0002 C.ar    1  LIG1       -0.0491
     23 C          -8.4054    7.0306   -0.0000 C.ar    1  LIG1       -0.0350
     24 C          -9.7698    6.6999    0.0003 C.ar    1  LIG1        0.0724
     25 N         -10.1675    5.4111    0.0005 N.ar    1  LIG1       -0.2543
     26 H          -6.4047    6.2855   -0.0005 H       1  LIG1        0.0625
     27 H          -9.6116    3.4251    0.0005 H       1  LIG1        0.0836
     28 H          -8.0789    8.0636   -0.0002 H       1  LIG1        0.0639
     29 C         -10.6002    9.1018    0.0003 C.ar    1  LIG1        0.0367
     30 C         -10.8504    7.7189    0.0005 C.ar    1  LIG1        0.0184
     31 C         -12.1966    7.3207    0.0009 C.ar    1  LIG1       -0.0497
     32 C         -13.1942    8.2881    0.0011 C.ar    1  LIG1       -0.0430
     33 C         -12.8232    9.6334    0.0009 C.ar    1  LIG1        0.0276
     34 N         -11.5485   10.0431    0.0005 N.ar    1  LIG1       -0.2626
     35 H         -12.4260    6.2615    0.0011 H       1  LIG1        0.0625
     36 H         -13.5789   10.4168    0.0010 H       1  LIG1        0.0829
     37 H          -9.5807    9.4804    0.0000 H       1  LIG1        0.0836
     38 H         -14.2431    8.0081    0.0014 H       1  LIG1        0.0633
@<TRIPOS>BOND
     1     8     2    1
     2    26    22    1
     3     9     1    1
     4    17    13    1
     5     2     1   ar
     6     2     3   ar
     7     1     6   ar
     8     7     3    1
     9     3     4   ar
    10     6     5   ar
    11    13    12   ar
    12    13    14   ar
    13     4     5   ar
    14     4    10    1
    15     5    12    1
    16    19    14    1
    17    12    11   ar
    18    14    15   ar
    19    28    23    1
    20    22    23   ar
    21    22    21   ar
    22    11    18    1
    23    11    16   ar
    24    15    16   ar
    25    15    21    1
    26    23    24   ar
    27    37    29    1
    28    21    20   ar
    29    24    30    1
    30    24    25   ar
    31    29    34   ar
    32    29    30   ar
    33    20    25   ar
    34    20    27    1
    35    34    33   ar
    36    30    31   ar
    37    33    36    1
    38    33    32   ar
    39    31    35    1
    40    31    32   ar
    41    32    38    1
