@<TRIPOS>MOLECULE
mol_data/opt/b3lyp/geoms/mol2/6aa6aa6aa.out
 29 31 0 0 0
SMALL
GASTEIGER

@<TRIPOS>ATOM
      1 C          -4.4994   -2.1812   -0.0002 C.ar    1  LIG1        0.0283
      2 C          -3.1053   -2.2445   -0.0002 C.ar    1  LIG1       -0.0436
      3 C          -2.4019   -1.0418   -0.0002 C.ar    1  LIG1       -0.0583
      4 C          -3.1091    0.1565   -0.0002 C.ar    1  LIG1       -0.0356
      5 C          -4.5143    0.1263   -0.0002 C.ar    1  LIG1        0.0724
      6 N          -5.1895   -1.0403   -0.0002 N.ar    1  LIG1       -0.2549
      7 H          -1.3159   -1.0339   -0.0003 H       1  LIG1        0.0619
      8 H          -2.5951   -3.2020   -0.0002 H       1  LIG1        0.0633
      9 H          -5.0913   -3.0949   -0.0002 H       1  LIG1        0.0830
     10 H          -2.5704    1.0969   -0.0002 H       1  LIG1        0.0639
     11 C          -6.7451    1.2751   -0.0000 C.ar    1  LIG1        0.0374
     12 C          -5.3398    1.3607   -0.0002 C.ar    1  LIG1        0.0185
     13 C          -4.8039    2.6553   -0.0004 C.ar    1  LIG1       -0.0491
     14 C          -5.6475    3.7582   -0.0003 C.ar    1  LIG1       -0.0350
     15 C          -7.0383    3.5664   -0.0002 C.ar    1  LIG1        0.0724
     16 N          -7.5625    2.3243   -0.0000 N.ar    1  LIG1       -0.2543
     17 H          -3.7311    2.8182   -0.0005 H       1  LIG1        0.0625
     18 H          -7.2089    0.2938    0.0001 H       1  LIG1        0.0836
     19 H          -5.2183    4.7532   -0.0005 H       1  LIG1        0.0639
     20 C          -9.3903    4.4317    0.0002 C.ar    1  LIG1        0.0367
     21 C          -8.0062    4.6929   -0.0001 C.ar    1  LIG1        0.0184
     22 C          -7.6196    6.0408   -0.0004 C.ar    1  LIG1       -0.0497
     23 C          -8.5942    7.0336   -0.0004 C.ar    1  LIG1       -0.0430
     24 C          -9.9357    6.6528    0.0000 C.ar    1  LIG1        0.0276
     25 N         -10.3365    5.3748    0.0003 N.ar    1  LIG1       -0.2626
     26 H          -6.5720    6.3238   -0.0007 H       1  LIG1        0.0625
     27 H         -10.7230    7.4044    0.0001 H       1  LIG1        0.0829
     28 H          -9.7257    3.3996    0.0005 H       1  LIG1        0.0836
     29 H          -8.3204    8.0839   -0.0006 H       1  LIG1        0.0633
@<TRIPOS>BOND
     1    26    22    1
     2    29    23    1
     3    17    13    1
     4    19    14    1
     5    22    23   ar
     6    22    21   ar
     7    13    14   ar
     8    13    12   ar
     9    23    24   ar
    10    14    15   ar
    11     7     3    1
    12     3     4   ar
    13     3     2   ar
    14    10     4    1
    15     4     5   ar
    16     8     2    1
    17     2     1   ar
    18     5    12    1
    19     5     6   ar
    20    12    11   ar
    21     6     1   ar
    22     1     9    1
    23    15    21    1
    24    15    16   ar
    25    21    20   ar
    26    11    16   ar
    27    11    18    1
    28    24    27    1
    29    24    25   ar
    30    20    25   ar
    31    20    28    1
