@<TRIPOS>MOLECULE
mol_data/opt/b3lyp/geoms/mol2/6aa6aa-6aa.out
 29 31 0 0 0
SMALL
GASTEIGER

@<TRIPOS>ATOM
      1 C          -4.4650   -2.1768   -0.0002 C.ar    1  LIG1        0.0283
      2 C          -3.0703   -2.2196   -0.0002 C.ar    1  LIG1       -0.0436
      3 C          -2.3848   -1.0064   -0.0003 C.ar    1  LIG1       -0.0583
      4 C          -3.1090    0.1816   -0.0003 C.ar    1  LIG1       -0.0356
      5 C          -4.5136    0.1305   -0.0002 C.ar    1  LIG1        0.0724
      6 N          -5.1717   -1.0458   -0.0002 N.ar    1  LIG1       -0.2549
      7 H          -1.2990   -0.9824   -0.0003 H       1  LIG1        0.0619
      8 H          -2.5462   -3.1695   -0.0003 H       1  LIG1        0.0633
      9 H          -5.0432   -3.0993   -0.0002 H       1  LIG1        0.0830
     10 H          -2.5843    1.1296   -0.0003 H       1  LIG1        0.0639
     11 C          -4.8421    2.6539   -0.0002 C.ar    1  LIG1        0.0374
     12 C          -5.3622    1.3494   -0.0002 C.ar    1  LIG1        0.0185
     13 C          -6.7612    1.2445   -0.0002 C.ar    1  LIG1       -0.0491
     14 C          -7.5429    2.3897   -0.0002 C.ar    1  LIG1       -0.0350
     15 C          -6.9245    3.6516   -0.0002 C.ar    1  LIG1        0.0724
     16 N          -5.5815    3.7605   -0.0002 N.ar    1  LIG1       -0.2543
     17 H          -7.2097    0.2579   -0.0002 H       1  LIG1        0.0625
     18 H          -3.7678    2.8238   -0.0002 H       1  LIG1        0.0836
     19 H          -8.6224    2.2960   -0.0001 H       1  LIG1        0.0639
     20 C          -9.0896    4.9808   -0.0001 C.ar    1  LIG1        0.0367
     21 C          -7.6852    4.9275   -0.0001 C.ar    1  LIG1        0.0184
     22 C          -7.0069    6.1566   -0.0002 C.ar    1  LIG1       -0.0497
     23 C          -7.7367    7.3390   -0.0001 C.ar    1  LIG1       -0.0430
     24 C          -9.1303    7.2662   -0.0001 C.ar    1  LIG1        0.0276
     25 N          -9.8046    6.1097   -0.0001 N.ar    1  LIG1       -0.2626
     26 H          -5.9231    6.1541   -0.0002 H       1  LIG1        0.0625
     27 H          -9.7326    8.1728   -0.0001 H       1  LIG1        0.0829
     28 H          -9.6785    4.0667   -0.0001 H       1  LIG1        0.0836
     29 H          -7.2378    8.3032   -0.0001 H       1  LIG1        0.0633
@<TRIPOS>BOND
     1     7     3    1
     2    10     4    1
     3     3     4   ar
     4     3     2   ar
     5     8     2    1
     6     4     5   ar
     7     2     1   ar
     8     5    12    1
     9     5     6   ar
    10     1     6   ar
    11     1     9    1
    12    18    11    1
    13    12    11   ar
    14    12    13   ar
    15    11    16   ar
    16    17    13    1
    17    13    14   ar
    18    16    15   ar
    19    26    22    1
    20    15    14   ar
    21    15    21    1
    22    14    19    1
    23    22    21   ar
    24    22    23   ar
    25    21    20   ar
    26    29    23    1
    27    23    24   ar
    28    20    28    1
    29    20    25   ar
    30    24    25   ar
    31    24    27    1
