@<TRIPOS>MOLECULE
mol_data/opt/b3lyp/geoms/mol2/6aa6aa6aa-6aa-.out
 38 41 0 0 0
SMALL
GASTEIGER

@<TRIPOS>ATOM
      1 C          -4.4644   -2.2662   -0.0005 C.ar    1  LIG1        0.0283
      2 C          -3.0708   -2.3465   -0.0005 C.ar    1  LIG1       -0.0436
      3 C          -2.3531   -1.1525   -0.0005 C.ar    1  LIG1       -0.0583
      4 C          -3.0458    0.0544   -0.0004 C.ar    1  LIG1       -0.0356
      5 C          -4.4509    0.0413   -0.0003 C.ar    1  LIG1        0.0724
      6 N          -5.1406   -1.1173   -0.0004 N.ar    1  LIG1       -0.2549
      7 H          -1.2670   -1.1575   -0.0005 H       1  LIG1        0.0619
      8 H          -2.5725   -3.3102   -0.0006 H       1  LIG1        0.0633
      9 H          -5.0668   -3.1730   -0.0005 H       1  LIG1        0.0830
     10 H          -2.4956    0.9882   -0.0003 H       1  LIG1        0.0639
     11 C          -6.6678    1.2159   -0.0001 C.ar    1  LIG1        0.0374
     12 C          -5.2613    1.2852   -0.0002 C.ar    1  LIG1        0.0185
     13 C          -4.7100    2.5733   -0.0003 C.ar    1  LIG1       -0.0491
     14 C          -5.5397    3.6869   -0.0002 C.ar    1  LIG1       -0.0350
     15 C          -6.9325    3.5109   -0.0000 C.ar    1  LIG1        0.0724
     16 N          -7.4726    2.2746    0.0001 N.ar    1  LIG1       -0.2543
     17 H          -3.6354    2.7234   -0.0005 H       1  LIG1        0.0625
     18 H          -7.1419    0.2395    0.0000 H       1  LIG1        0.0836
     19 H          -5.0994    4.6769   -0.0003 H       1  LIG1        0.0639
     20 C          -7.4941    5.9905    0.0001 C.ar    1  LIG1        0.0374
     21 C          -7.8899    4.6422    0.0001 C.ar    1  LIG1        0.0185
     22 C          -9.2732    4.4064    0.0003 C.ar    1  LIG1       -0.0491
     23 C         -10.1575    5.4744    0.0004 C.ar    1  LIG1       -0.0350
     24 C          -9.6603    6.7887    0.0004 C.ar    1  LIG1        0.0724
     25 N          -8.3328    7.0228    0.0002 N.ar    1  LIG1       -0.2543
     26 H          -9.6266    3.3819    0.0004 H       1  LIG1        0.0625
     27 H          -6.4401    6.2593   -0.0000 H       1  LIG1        0.0836
     28 H         -11.2239    5.2799    0.0006 H       1  LIG1        0.0639
     29 C          -9.9797    9.2755    0.0007 C.ar    1  LIG1        0.0367
     30 C         -10.5414    7.9839    0.0005 C.ar    1  LIG1        0.0184
     31 C         -11.9416    7.9061    0.0005 C.ar    1  LIG1       -0.0497
     32 C         -12.6932    9.0769    0.0007 C.ar    1  LIG1       -0.0430
     33 C         -12.0242   10.3004    0.0008 C.ar    1  LIG1        0.0276
     34 N         -10.6890   10.4074    0.0008 N.ar    1  LIG1       -0.2626
     35 H         -12.4492    6.9471    0.0004 H       1  LIG1        0.0625
     36 H         -12.5822   11.2349    0.0009 H       1  LIG1        0.0829
     37 H          -8.8988    9.3738    0.0007 H       1  LIG1        0.0836
     38 H         -13.7781    9.0428    0.0006 H       1  LIG1        0.0633
@<TRIPOS>BOND
     1     8     2    1
     2     2     1   ar
     3     2     3   ar
     4     9     1    1
     5     7     3    1
     6    17    13    1
     7     1     6   ar
     8     3     4   ar
     9     6     5   ar
    10     4     5   ar
    11     4    10    1
    12     5    12    1
    13    13    12   ar
    14    13    14   ar
    15    19    14    1
    16    12    11   ar
    17    14    15   ar
    18    11    18    1
    19    11    16   ar
    20    27    20    1
    21    15    16   ar
    22    15    21    1
    23    20    21   ar
    24    20    25   ar
    25    21    22   ar
    26    25    24   ar
    27    22    26    1
    28    22    23   ar
    29    24    23   ar
    30    24    30    1
    31    35    31    1
    32    23    28    1
    33    31    30   ar
    34    31    32   ar
    35    30    29   ar
    36    38    32    1
    37    32    33   ar
    38    29    37    1
    39    29    34   ar
    40    33    34   ar
    41    33    36    1
