@<TRIPOS>MOLECULE
mol_data/opt/b3lyp/geoms/mol2/6aa6aa-6aa6aa-.out
 38 41 0 0 0
SMALL
GASTEIGER

@<TRIPOS>ATOM
      1 C          -4.4112   -2.2718   -0.0005 C.ar    1  LIG1        0.0283
      2 C          -3.0165   -2.3171   -0.0006 C.ar    1  LIG1       -0.0436
      3 C          -2.3287   -1.1053   -0.0005 C.ar    1  LIG1       -0.0583
      4 C          -3.0506    0.0841   -0.0004 C.ar    1  LIG1       -0.0356
      5 C          -4.4552    0.0354   -0.0003 C.ar    1  LIG1        0.0724
      6 N          -5.1158   -1.1395   -0.0004 N.ar    1  LIG1       -0.2549
      7 H          -1.2429   -1.0832   -0.0006 H       1  LIG1        0.0619
      8 H          -2.4943   -3.2678   -0.0007 H       1  LIG1        0.0633
      9 H          -4.9911   -3.1934   -0.0005 H       1  LIG1        0.0830
     10 H          -2.5241    1.0313   -0.0004 H       1  LIG1        0.0639
     11 C          -4.7785    2.5595   -0.0001 C.ar    1  LIG1        0.0374
     12 C          -5.3016    1.2559   -0.0002 C.ar    1  LIG1        0.0185
     13 C          -6.7008    1.1536   -0.0001 C.ar    1  LIG1       -0.0491
     14 C          -7.4803    2.3001   -0.0000 C.ar    1  LIG1       -0.0350
     15 C          -6.8588    3.5608    0.0001 C.ar    1  LIG1        0.0724
     16 N          -5.5152    3.6676   -0.0000 N.ar    1  LIG1       -0.2543
     17 H          -7.1508    0.1676   -0.0002 H       1  LIG1        0.0625
     18 H          -3.7036    2.7268   -0.0002 H       1  LIG1        0.0836
     19 H          -8.5603    2.2087    0.0000 H       1  LIG1        0.0639
     20 C          -9.0185    4.9005    0.0002 C.ar    1  LIG1        0.0374
     21 C          -7.6150    4.8358    0.0002 C.ar    1  LIG1        0.0185
     22 C          -6.9418    6.0671    0.0002 C.ar    1  LIG1       -0.0491
     23 C          -7.6622    7.2516    0.0003 C.ar    1  LIG1       -0.0350
     24 C          -9.0670    7.2089    0.0004 C.ar    1  LIG1        0.0724
     25 N          -9.7208    6.0306    0.0004 N.ar    1  LIG1       -0.2543
     26 H          -5.8579    6.0683    0.0002 H       1  LIG1        0.0625
     27 H          -9.6157    3.9913    0.0002 H       1  LIG1        0.0836
     28 H          -7.1315    8.1965    0.0004 H       1  LIG1        0.0639
     29 C          -9.3838    9.7295    0.0006 C.ar    1  LIG1        0.0367
     30 C          -9.9151    8.4283    0.0005 C.ar    1  LIG1        0.0184
     31 C         -11.3146    8.3177    0.0006 C.ar    1  LIG1       -0.0497
     32 C         -12.0902    9.4705    0.0007 C.ar    1  LIG1       -0.0430
     33 C         -11.4486   10.7099    0.0007 C.ar    1  LIG1        0.0276
     34 N         -10.1169   10.8467    0.0007 N.ar    1  LIG1       -0.2626
     35 H         -11.7594    7.3294    0.0006 H       1  LIG1        0.0625
     36 H         -12.0258   11.6329    0.0008 H       1  LIG1        0.0829
     37 H          -8.3079    9.8884    0.0005 H       1  LIG1        0.0836
     38 H         -13.1742    9.4141    0.0008 H       1  LIG1        0.0633
@<TRIPOS>BOND
     1     8     2    1
     2     7     3    1
     3     2     3   ar
     4     2     1   ar
     5     3     4   ar
     6     9     1    1
     7     1     6   ar
     8     4    10    1
     9     4     5   ar
    10     6     5   ar
    11     5    12    1
    12    12    11   ar
    13    12    13   ar
    14    17    13    1
    15    18    11    1
    16    11    16   ar
    17    13    14   ar
    18    16    15   ar
    19    14    19    1
    20    14    15   ar
    21    15    21    1
    22    21    22   ar
    23    21    20   ar
    24    26    22    1
    25    27    20    1
    26    22    23   ar
    27    20    25   ar
    28    23    28    1
    29    23    24   ar
    30    25    24   ar
    31    24    30    1
    32    37    29    1
    33    30    29   ar
    34    30    31   ar
    35    29    34   ar
    36    35    31    1
    37    31    32   ar
    38    34    33   ar
    39    32    33   ar
    40    32    38    1
    41    33    36    1
