@<TRIPOS>MOLECULE
mol_data/opt/b3lyp/geoms/mol2/6aa6fh-13ah12fe-.out
 43 46 0 0 0
SMALL
GASTEIGER

@<TRIPOS>ATOM
      1 C          -4.5459   -2.2445    0.0401 C.ar    1  LIG1        0.0283
      2 C          -3.1585   -2.3198    0.0684 C.ar    1  LIG1       -0.0436
      3 C          -2.4466   -1.1167    0.0658 C.ar    1  LIG1       -0.0583
      4 C          -3.1332    0.0875    0.0282 C.ar    1  LIG1       -0.0355
      5 C          -4.5445    0.0887   -0.0160 C.ar    1  LIG1        0.0761
      6 N          -5.2168   -1.0893   -0.0021 N.ar    1  LIG1       -0.2548
      7 H          -1.3609   -1.1197    0.1003 H       1  LIG1        0.0619
      8 H          -2.6565   -3.2804    0.0995 H       1  LIG1        0.0633
      9 H          -5.1546   -3.1457    0.0516 H       1  LIG1        0.0830
     10 H          -2.5810    1.0188    0.0485 H       1  LIG1        0.0639
     11 C          -6.7765    1.3017    0.0295 C.ar    1  LIG1        0.2224
     12 C          -5.3492    1.3189   -0.0672 C.ar    1  LIG1        0.0634
     13 C          -4.7627    2.5855   -0.2298 C.ar    1  LIG1       -0.0246
     14 C          -5.5107    3.7564   -0.2392 C.ar    1  LIG1        0.0532
     15 C          -6.9118    3.6233   -0.0496 C.ar    1  LIG1        0.1115
     16 N          -7.4975    2.4147    0.0444 N.ar    1  LIG1       -0.2091
     17 H          -3.6896    2.6679   -0.3754 H       1  LIG1        0.0645
     18 O          -7.4778    0.1652    0.1179 O.3     1  LIG1       -0.4919
     19 H          -6.8146   -0.5788    0.0736 H       1  LIG1        0.2937
     20 N          -4.9053    5.0167   -0.3962 N.pl3   1  LIG1       -0.3563
     21 H          -3.9655    4.9536   -0.7696 H       1  LIG1        0.1424
     22 H          -5.4612    5.6487   -0.9624 H       1  LIG1        0.1424
     23 C          -7.8259    4.7504    0.0188 C.ar    1  LIG1        0.0692
     24 C          -7.6702    6.1355    0.1683 C.ar    1  LIG1       -0.0134
     25 C          -8.9585    6.7182    0.2150 C.ar    1  LIG1        0.0540
     26 C          -9.8882    5.6709    0.0752 C.ar    1  LIG1        0.1072
     27 N          -9.1691    4.5009   -0.0344 N.ar    1  LIG1       -0.3489
     28 H          -9.5340    3.5606   -0.0912 H       1  LIG1        0.1661
     29 H          -6.7407    6.6581    0.3349 H       1  LIG1        0.0658
     30 N          -9.2380    8.0635    0.4628 N.pl3   1  LIG1       -0.3562
     31 H          -8.5201    8.6881    0.1199 H       1  LIG1        0.1424
     32 H         -10.1593    8.3610    0.1627 H       1  LIG1        0.1424
     33 C         -11.3229    5.6628    0.0422 C.ar    1  LIG1        0.1951
     34 C         -12.3053    6.6068   -0.1295 C.ar    1  LIG1        0.1799
     35 C         -13.5771    5.9364   -0.0467 C.ar    1  LIG1        0.1045
     36 C         -13.2812    4.6124    0.1539 C.ar    1  LIG1        0.1117
     37 O         -11.9410    4.4341    0.2098 O.2     1  LIG1       -0.4563
     38 H         -13.8949    3.7337    0.2684 H       1  LIG1        0.1043
     39 O         -12.1174    7.9363   -0.3737 O.3     1  LIG1       -0.5024
     40 H         -12.9841    8.3688   -0.3579 H       1  LIG1        0.2923
     41 C         -14.8315    6.5823   -0.1696 C.1     1  LIG1       -0.0628
     42 C         -15.8607    7.2114   -0.2819 C.1     1  LIG1       -0.1137
     43 H         -16.7853    7.7321   -0.3784 H       1  LIG1        0.1232
@<TRIPOS>BOND
     1    22    20    1
     2    21    20    1
     3    20    14    1
     4    43    42    1
     5    17    13    1
     6    39    40    1
     7    39    34    1
     8    42    41    3
     9    14    13   ar
    10    14    15   ar
    11    13    12   ar
    12    41    35    1
    13    34    35   ar
    14    34    33   ar
    15    28    27    1
    16    12     5    1
    17    12    11   ar
    18    15    23    1
    19    15    16   ar
    20    35    36   ar
    21    27    23   ar
    22    27    26   ar
    23     5     6   ar
    24     5     4   ar
    25     6     1   ar
    26    23    24   ar
    27     4    10    1
    28     4     3   ar
    29    11    16   ar
    30    11    18    1
    31     1     9    1
    32     1     2   ar
    33    33    26    1
    34    33    37   ar
    35     3     2   ar
    36     3     7    1
    37     2     8    1
    38    19    18    1
    39    26    25   ar
    40    31    30    1
    41    36    37   ar
    42    36    38    1
    43    32    30    1
    44    24    25   ar
    45    24    29    1
    46    25    30    1
