@<TRIPOS>MOLECULE
mol_data/opt/b3lyp/geoms/mol2/6aa6aa-.out
 20 21 0 0 0
SMALL
GASTEIGER

@<TRIPOS>ATOM
      1 C          -4.5274   -2.0854   -0.0001 C.ar    1  LIG1        0.0283
      2 C          -3.1328   -2.1268   -0.0001 C.ar    1  LIG1       -0.0436
      3 C          -2.4491   -0.9128   -0.0001 C.ar    1  LIG1       -0.0583
      4 C          -3.1750    0.2744   -0.0002 C.ar    1  LIG1       -0.0356
      5 C          -4.5791    0.2222   -0.0002 C.ar    1  LIG1        0.0724
      6 N          -5.2353   -0.9549   -0.0002 N.ar    1  LIG1       -0.2549
      7 H          -1.3633   -0.8871   -0.0001 H       1  LIG1        0.0619
      8 H          -2.6079   -3.0759    0.0000 H       1  LIG1        0.0633
      9 H          -5.1046   -3.0087   -0.0000 H       1  LIG1        0.0830
     10 H          -2.6514    1.2231   -0.0002 H       1  LIG1        0.0639
     11 C          -4.9006    2.7446   -0.0003 C.ar    1  LIG1        0.0367
     12 C          -5.4295    1.4432   -0.0003 C.ar    1  LIG1        0.0184
     13 C          -6.8282    1.3305   -0.0003 C.ar    1  LIG1       -0.0497
     14 C          -7.6061    2.4821   -0.0004 C.ar    1  LIG1       -0.0430
     15 C          -6.9667    3.7224   -0.0005 C.ar    1  LIG1        0.0276
     16 N          -5.6353    3.8611   -0.0004 N.ar    1  LIG1       -0.2626
     17 H          -7.2716    0.3415   -0.0003 H       1  LIG1        0.0625
     18 H          -7.5453    4.6444   -0.0005 H       1  LIG1        0.0829
     19 H          -3.8251    2.9063   -0.0003 H       1  LIG1        0.0836
     20 H          -8.6899    2.4237   -0.0005 H       1  LIG1        0.0633
@<TRIPOS>BOND
     1    18    15    1
     2    20    14    1
     3    15    14   ar
     4    15    16   ar
     5    14    13   ar
     6    16    11   ar
     7    13    17    1
     8    13    12   ar
     9    11    12   ar
    10    11    19    1
    11    12     5    1
    12    10     4    1
    13     5     4   ar
    14     5     6   ar
    15     4     3   ar
    16     6     1   ar
    17     3     7    1
    18     3     2   ar
    19     1     2   ar
    20     1     9    1
    21     2     8    1
