@<TRIPOS>MOLECULE
mol_data/opt/b3lyp/geoms/mol2/6aa6aa.out
 20 21 0 0 0
SMALL
GASTEIGER

@<TRIPOS>ATOM
      1 C          -4.5253   -2.0958   -0.0000 C.ar    1  LIG1        0.0283
      2 C          -3.1303   -2.1320   -0.0000 C.ar    1  LIG1       -0.0436
      3 C          -2.4513   -0.9155   -0.0002 C.ar    1  LIG1       -0.0583
      4 C          -3.1825    0.2684   -0.0002 C.ar    1  LIG1       -0.0356
      5 C          -4.5865    0.2111   -0.0002 C.ar    1  LIG1        0.0724
      6 N          -5.2377   -0.9686   -0.0001 N.ar    1  LIG1       -0.2549
      7 H          -1.3655   -0.8857   -0.0002 H       1  LIG1        0.0619
      8 H          -2.6016   -3.0792    0.0000 H       1  LIG1        0.0633
      9 H          -5.0990   -3.0211    0.0001 H       1  LIG1        0.0830
     10 H          -2.6621    1.2191   -0.0003 H       1  LIG1        0.0639
     11 C          -6.8397    1.3138   -0.0001 C.ar    1  LIG1        0.0367
     12 C          -5.4367    1.4321   -0.0003 C.ar    1  LIG1        0.0184
     13 C          -4.9149    2.7331   -0.0005 C.ar    1  LIG1       -0.0497
     14 C          -5.7829    3.8206   -0.0006 C.ar    1  LIG1       -0.0430
     15 C          -7.1561    3.5790   -0.0004 C.ar    1  LIG1        0.0276
     16 N          -7.6850    2.3486   -0.0001 N.ar    1  LIG1       -0.2626
     17 H          -3.8440    2.9082   -0.0007 H       1  LIG1        0.0625
     18 H          -7.8627    4.4070   -0.0004 H       1  LIG1        0.0829
     19 H          -7.2795    0.3216    0.0001 H       1  LIG1        0.0836
     20 H          -5.4029    4.8372   -0.0008 H       1  LIG1        0.0633
@<TRIPOS>BOND
     1    20    14    1
     2    17    13    1
     3    14    13   ar
     4    14    15   ar
     5    13    12   ar
     6    18    15    1
     7    15    16   ar
     8    10     4    1
     9    12     5    1
    10    12    11   ar
    11     4     5   ar
    12     4     3   ar
    13     5     6   ar
    14     7     3    1
    15     3     2   ar
    16    16    11   ar
    17    11    19    1
    18     6     1   ar
    19     2     1   ar
    20     2     8    1
    21     1     9    1
