@<TRIPOS>MOLECULE
mol_data/opt/b3lyp/geoms/mol2/6aa6aa-4aa6aa.out
 39 42 0 0 0
SMALL
GASTEIGER

@<TRIPOS>ATOM
      1 C          -4.3569   -2.2586    0.3136 C.ar    1  LIG1        0.0283
      2 C          -2.9875   -2.3023    0.0486 C.ar    1  LIG1       -0.0436
      3 C          -2.3464   -1.1036   -0.2588 C.ar    1  LIG1       -0.0583
      4 C          -3.0875    0.0738   -0.2801 C.ar    1  LIG1       -0.0356
      5 C          -4.4597    0.0259    0.0203 C.ar    1  LIG1        0.0724
      6 N          -5.0794   -1.1369    0.3040 N.ar    1  LIG1       -0.2549
      7 H          -1.2849   -1.0847   -0.4879 H       1  LIG1        0.0619
      8 H          -2.4495   -3.2441    0.0753 H       1  LIG1        0.0633
      9 H          -4.9005   -3.1726    0.5473 H       1  LIG1        0.0830
     10 H          -2.6108    1.0108   -0.5441 H       1  LIG1        0.0639
     11 C          -4.7890    2.5401    0.1106 C.ar    1  LIG1        0.0374
     12 C          -5.3120    1.2397    0.0290 C.ar    1  LIG1        0.0185
     13 C          -6.7100    1.1353   -0.0174 C.ar    1  LIG1       -0.0491
     14 C          -7.4874    2.2834   -0.0158 C.ar    1  LIG1       -0.0351
     15 C          -6.8649    3.5436    0.0280 C.ar    1  LIG1        0.0710
     16 N          -5.5237    3.6502    0.1068 N.ar    1  LIG1       -0.2543
     17 H          -7.1604    0.1495   -0.0452 H       1  LIG1        0.0625
     18 H          -3.7160    2.6970    0.2028 H       1  LIG1        0.0836
     19 H          -8.5681    2.2003   -0.0309 H       1  LIG1        0.0639
     20 C          -7.0114    6.0113    0.4078 C.ar    1  LIG1       -0.0520
     21 C          -7.7104    7.2115    0.4135 C.ar    1  LIG1       -0.0534
     22 C          -7.6323    4.8141    0.0131 C.ar    1  LIG1        0.0004
     23 C          -9.0580    7.2717    0.0176 C.ar    1  LIG1       -0.0164
     24 H          -7.2131    8.1140    0.7567 H       1  LIG1        0.0624
     25 C          -8.9760    4.8736   -0.3915 C.ar    1  LIG1       -0.0520
     26 C          -9.6738    6.0767   -0.3897 C.ar    1  LIG1       -0.0534
     27 H          -9.4813    3.9806   -0.7444 H       1  LIG1        0.0624
     28 H          -5.9736    5.9752    0.7179 H       1  LIG1        0.0624
     29 H         -10.7010    6.0953   -0.7408 H       1  LIG1        0.0624
     30 C         -11.1580    8.6068    0.3973 C.ar    1  LIG1        0.0352
     31 C          -9.8024    8.5518    0.0257 C.ar    1  LIG1        0.0002
     32 C          -9.1980    9.7679   -0.3263 C.ar    1  LIG1       -0.0512
     33 C          -9.9482   10.9395   -0.2985 C.ar    1  LIG1       -0.0430
     34 C         -11.2901   10.8656    0.0760 C.ar    1  LIG1        0.0276
     35 N         -11.8933    9.7215    0.4225 N.ar    1  LIG1       -0.2627
     36 H          -8.1585    9.7874   -0.6399 H       1  LIG1        0.0625
     37 H         -11.9078   11.7614    0.0994 H       1  LIG1        0.0829
     38 H         -11.6654    7.6962    0.7108 H       1  LIG1        0.0836
     39 H          -9.5066   11.8923   -0.5731 H       1  LIG1        0.0633
@<TRIPOS>BOND
     1    27    25    1
     2    29    26    1
     3    36    32    1
     4    39    33    1
     5    10     4    1
     6     7     3    1
     7    25    26   ar
     8    25    22   ar
     9    26    23   ar
    10    32    33   ar
    11    32    31   ar
    12    33    34   ar
    13     4     3   ar
    14     4     5   ar
    15     3     2   ar
    16    17    13    1
    17    19    14    1
    18    13    14   ar
    19    13    12   ar
    20    14    15   ar
    21    22    15    1
    22    22    20   ar
    23    23    31    1
    24    23    21   ar
    25     5    12    1
    26     5     6   ar
    27    31    30   ar
    28    15    16   ar
    29    12    11   ar
    30     2     8    1
    31     2     1   ar
    32    34    37    1
    33    34    35   ar
    34    16    11   ar
    35    11    18    1
    36     6     1   ar
    37     1     9    1
    38    30    35   ar
    39    30    38    1
    40    20    21   ar
    41    20    28    1
    42    21    24    1
