@<TRIPOS>MOLECULE
mol_data/opt/b3lyp/geoms/mol2/6aa6aa-6aa-6aa.out
 38 41 0 0 0
SMALL
GASTEIGER

@<TRIPOS>ATOM
      1 C          -4.3825   -2.2615   -0.0004 C.ar    1  LIG1        0.0283
      2 C          -2.9874   -2.2950   -0.0005 C.ar    1  LIG1       -0.0436
      3 C          -2.3099   -1.0775   -0.0005 C.ar    1  LIG1       -0.0583
      4 C          -3.0418    0.1059   -0.0004 C.ar    1  LIG1       -0.0356
      5 C          -4.4460    0.0454   -0.0003 C.ar    1  LIG1        0.0724
      6 N          -5.0966   -1.1352   -0.0003 N.ar    1  LIG1       -0.2549
      7 H          -1.2244   -1.0463   -0.0006 H       1  LIG1        0.0619
      8 H          -2.4571   -3.2414   -0.0006 H       1  LIG1        0.0633
      9 H          -4.9545   -3.1879   -0.0004 H       1  LIG1        0.0830
     10 H          -2.5232    1.0572   -0.0004 H       1  LIG1        0.0639
     11 C          -4.7929    2.5671   -0.0001 C.ar    1  LIG1        0.0374
     12 C          -5.3032    1.2582   -0.0002 C.ar    1  LIG1        0.0185
     13 C          -6.7014    1.1422   -0.0002 C.ar    1  LIG1       -0.0491
     14 C          -7.4913    2.2815   -0.0001 C.ar    1  LIG1       -0.0350
     15 C          -6.8825    3.5483    0.0000 C.ar    1  LIG1        0.0724
     16 N          -5.5399    3.6680   -0.0000 N.ar    1  LIG1       -0.2543
     17 H          -7.1417    0.1519   -0.0002 H       1  LIG1        0.0625
     18 H          -3.7201    2.7451   -0.0001 H       1  LIG1        0.0836
     19 H          -8.5704    2.1797   -0.0000 H       1  LIG1        0.0639
     20 C          -6.9932    6.0538    0.0003 C.ar    1  LIG1        0.0374
     21 C          -7.6567    4.8119    0.0001 C.ar    1  LIG1        0.0185
     22 C          -9.0575    4.8641   -0.0000 C.ar    1  LIG1       -0.0491
     23 C          -9.7090    6.0900    0.0001 C.ar    1  LIG1       -0.0350
     24 C          -8.9547    7.2743    0.0004 C.ar    1  LIG1        0.0724
     25 N          -7.6067    7.2337    0.0005 N.ar    1  LIG1       -0.2543
     26 H          -9.6514    3.9561   -0.0002 H       1  LIG1        0.0625
     27 H          -5.9078    6.0660    0.0004 H       1  LIG1        0.0836
     28 H         -10.7921    6.1149    0.0000 H       1  LIG1        0.0639
     29 C         -10.9596    8.8359    0.0004 C.ar    1  LIG1        0.0367
     30 C          -9.5700    8.6261    0.0005 C.ar    1  LIG1        0.0184
     31 C          -8.7584    9.7717    0.0008 C.ar    1  LIG1       -0.0497
     32 C          -9.3518   11.0281    0.0009 C.ar    1  LIG1       -0.0430
     33 C         -10.7449   11.1115    0.0008 C.ar    1  LIG1        0.0276
     34 N         -11.5443   10.0374    0.0005 N.ar    1  LIG1       -0.2626
     35 H          -7.6818    9.6469    0.0009 H       1  LIG1        0.0625
     36 H         -11.2422   12.0797    0.0009 H       1  LIG1        0.0829
     37 H         -11.6473    7.9935    0.0002 H       1  LIG1        0.0836
     38 H          -8.7483   11.9304    0.0012 H       1  LIG1        0.0633
@<TRIPOS>BOND
     1     8     2    1
     2     7     3    1
     3     2     3   ar
     4     2     1   ar
     5     3     4   ar
     6     9     1    1
     7     1     6   ar
     8     4    10    1
     9     4     5   ar
    10     6     5   ar
    11     5    12    1
    12    26    22    1
    13    12    13   ar
    14    12    11   ar
    15    17    13    1
    16    13    14   ar
    17    18    11    1
    18    11    16   ar
    19    14    19    1
    20    14    15   ar
    21    16    15   ar
    22    22    23   ar
    23    22    21   ar
    24    28    23    1
    25    15    21    1
    26    23    24   ar
    27    21    20   ar
    28    37    29    1
    29    20    27    1
    30    20    25   ar
    31    24    25   ar
    32    24    30    1
    33    29    30   ar
    34    29    34   ar
    35    30    31   ar
    36    34    33   ar
    37    31    35    1
    38    31    32   ar
    39    33    36    1
    40    33    32   ar
    41    32    38    1
