@<TRIPOS>MOLECULE
mol_data/opt/b3lyp/geoms/mol2/6ad12af6fa4ha.out
 42 45 0 0 0
SMALL
GASTEIGER

@<TRIPOS>ATOM
      1 C          -4.2874   -2.1086   -0.0533 C.ar    1  LIG1        0.0285
      2 C          -2.8897   -2.1284   -0.0456 C.ar    1  LIG1       -0.0423
      3 C          -2.2260   -0.9098   -0.0365 C.ar    1  LIG1       -0.0407
      4 C          -2.9671    0.2811   -0.0345 C.ar    1  LIG1        0.0807
      5 C          -4.3881    0.2001   -0.0460 C.ar    1  LIG1        0.1234
      6 N          -5.0146   -0.9939   -0.0556 N.ar    1  LIG1       -0.2506
      7 H          -1.1424   -0.8587   -0.0280 H       1  LIG1        0.0631
      8 H          -2.3466   -3.0666   -0.0463 H       1  LIG1        0.0633
      9 H          -4.8500   -3.0400   -0.0601 H       1  LIG1        0.0830
     10 N          -1.6694    2.5258   -0.0076 N.1     1  LIG1       -0.1908
     11 C          -2.2620    1.5238   -0.0174 C.1     1  LIG1        0.1014
     12 C          -5.2588    1.3633   -0.0517 C.ar    1  LIG1        0.1587
     13 C          -5.0911    2.7243   -0.1766 C.ar    1  LIG1        0.0280
     14 C          -6.3878    3.2966   -0.1476 C.ar    1  LIG1        0.1634
     15 C          -7.2984    2.2662    0.0140 C.ar    1  LIG1        0.1820
     16 O          -6.5980    1.0883    0.0609 O.2     1  LIG1       -0.4493
     17 H          -4.1656    3.2648   -0.2938 H       1  LIG1        0.0693
     18 O          -6.6208    4.6310   -0.2742 O.3     1  LIG1       -0.5032
     19 H          -7.5197    4.7645   -0.6053 H       1  LIG1        0.2923
     20 C          -9.4954    1.0220   -0.1749 C.ar    1  LIG1        0.2239
     21 C          -8.7418    2.2059    0.1022 C.ar    1  LIG1        0.0822
     22 C          -9.4931    3.3378    0.4565 C.ar    1  LIG1       -0.0438
     23 C         -10.8809    3.3040    0.4596 C.ar    1  LIG1       -0.0347
     24 C         -11.5277    2.1053    0.1050 C.ar    1  LIG1        0.0766
     25 N         -10.8183    0.9967   -0.1822 N.ar    1  LIG1       -0.2124
     26 H          -8.9798    4.2388    0.7808 H       1  LIG1        0.0627
     27 O          -8.9200   -0.1622   -0.4585 O.3     1  LIG1       -0.4919
     28 H          -7.9551   -0.1126   -0.3496 H       1  LIG1        0.2938
     29 H         -11.4512    4.1686    0.7751 H       1  LIG1        0.0639
     30 C         -13.9056    2.9978   -0.2252 C.ar    1  LIG1        0.0338
     31 C         -15.2880    2.7531   -0.1490 C.ar    1  LIG1       -0.0404
     32 C         -13.0045    1.9514    0.1036 C.ar    1  LIG1        0.0211
     33 C         -15.7825    1.5099    0.2242 C.ar    1  LIG1       -0.0600
     34 H         -15.9750    3.5583   -0.3989 H       1  LIG1        0.0636
     35 C         -13.5348    0.6941    0.4449 C.ar    1  LIG1       -0.0508
     36 C         -14.9025    0.4644    0.5160 C.ar    1  LIG1       -0.0610
     37 H         -12.8293   -0.1008    0.6592 H       1  LIG1        0.0625
     38 H         -16.8566    1.3553    0.2747 H       1  LIG1        0.0618
     39 N         -13.4694    4.2743   -0.6038 N.pl3   1  LIG1       -0.3575
     40 H         -12.5862    4.2912   -1.0976 H       1  LIG1        0.1423
     41 H         -14.1734    4.8081   -1.0972 H       1  LIG1        0.1423
     42 H         -15.2790   -0.5137    0.7972 H       1  LIG1        0.0618
@<TRIPOS>BOND
     1    40    39    1
     2    41    39    1
     3    19    18    1
     4    39    30    1
     5    27    28    1
     6    27    20    1
     7    34    31    1
     8    17    13    1
     9    18    14    1
    10    30    31   ar
    11    30    32   ar
    12    25    20   ar
    13    25    24   ar
    14    13    14   ar
    15    13    12   ar
    16    20    21   ar
    17    31    33   ar
    18    14    15   ar
    19     9     1    1
    20     6     1   ar
    21     6     5   ar
    22     1     2   ar
    23    12     5    1
    24    12    16   ar
    25     8     2    1
    26     5     4   ar
    27     2     3   ar
    28     3     4   ar
    29     3     7    1
    30     4    11    1
    31    11    10    3
    32    15    16   ar
    33    15    21    1
    34    21    22   ar
    35    32    24    1
    36    32    35   ar
    37    24    23   ar
    38    33    38    1
    39    33    36   ar
    40    35    36   ar
    41    35    37    1
    42    22    23   ar
    43    22    26    1
    44    23    29    1
    45    36    42    1
