@<TRIPOS>MOLECULE
mol_data/opt/b3lyp/geoms/mol2/6ad12fl-13ai-6hl.out
 50 53 0 0 0
SMALL
GASTEIGER

@<TRIPOS>ATOM
      1 C          -4.4590   -2.0853    0.8729 C.ar    1  LIG1        0.0285
      2 C          -3.0652   -2.2158    0.7951 C.ar    1  LIG1       -0.0423
      3 C          -2.3392   -1.0925    0.4374 C.ar    1  LIG1       -0.0407
      4 C          -3.0139    0.1164    0.1989 C.ar    1  LIG1        0.0808
      5 C          -4.4295    0.1777    0.3873 C.ar    1  LIG1        0.1270
      6 N          -5.1184   -0.9487    0.6890 N.ar    1  LIG1       -0.2505
      7 H          -1.2622   -1.1322    0.3113 H       1  LIG1        0.0631
      8 H          -2.5822   -3.1678    0.9828 H       1  LIG1        0.0633
      9 H          -5.0739   -2.9538    1.1045 H       1  LIG1        0.0830
     10 N          -1.7063    2.1604   -0.7026 N.1     1  LIG1       -0.1908
     11 C          -2.2784    1.2287   -0.2930 C.1     1  LIG1        0.1014
     12 C          -5.2197    1.3818    0.2775 C.ar    1  LIG1        0.2001
     13 C          -5.0204    2.7579    0.4276 C.ar    1  LIG1        0.2077
     14 C          -6.3015    3.3760    0.3235 C.ar    1  LIG1        0.2098
     15 C          -7.2185    2.3637    0.1261 C.ar    1  LIG1        0.1970
     16 O          -6.5763    1.1670    0.1039 O.2     1  LIG1       -0.4442
     17 O          -3.9245    3.4858    0.7264 O.3     1  LIG1       -0.5008
     18 H          -3.1150    3.1083    0.3386 H       1  LIG1        0.2924
     19 O          -6.6187    4.6896    0.4706 O.3     1  LIG1       -0.4884
     20 C          -5.8944    5.6019   -0.3687 C.3     1  LIG1        0.0791
     21 H          -6.2941    6.5928   -0.1473 H       1  LIG1        0.0660
     22 H          -4.8246    5.5755   -0.1490 H       1  LIG1        0.0660
     23 H          -6.0595    5.3692   -1.4277 H       1  LIG1        0.0660
     24 C          -8.6391    2.3533   -0.0415 C.ar    1  LIG1        0.0866
     25 C          -9.5678    3.3912   -0.0640 C.ar    1  LIG1       -0.0298
     26 C         -10.8489    2.8300   -0.2648 C.ar    1  LIG1       -0.0244
     27 C         -10.6806    1.4388   -0.3620 C.ar    1  LIG1        0.0533
     28 N          -9.3310    1.1825   -0.2327 N.ar    1  LIG1       -0.3514
     29 H          -8.9229    0.2569   -0.2481 H       1  LIG1        0.1660
     30 H          -9.3286    4.4383    0.0490 H       1  LIG1        0.0643
     31 C         -12.1253    3.6136   -0.3830 C.3     1  LIG1       -0.0377
     32 H         -12.6398    3.7247    0.5807 H       1  LIG1        0.0278
     33 H         -12.8292    3.1442   -1.0770 H       1  LIG1        0.0278
     34 H         -11.9190    4.6235   -0.7499 H       1  LIG1        0.0278
     35 C         -11.3408   -0.8541   -1.2040 C.ar    1  LIG1        0.1255
     36 C         -11.6524    0.3564   -0.5305 C.ar    1  LIG1        0.0415
     37 C         -12.9467    0.4670    0.0055 C.ar    1  LIG1       -0.0060
     38 C         -13.8533   -0.5850   -0.1261 C.ar    1  LIG1        0.1389
     39 C         -13.4255   -1.7410   -0.7867 C.ar    1  LIG1        0.0713
     40 N         -12.2083   -1.8642   -1.3152 N.ar    1  LIG1       -0.2364
     41 H         -13.2113    1.3607    0.5541 H       1  LIG1        0.0662
     42 H         -14.1067   -2.5824   -0.8882 H       1  LIG1        0.0868
     43 N         -10.0650   -1.0840   -1.7507 N.pl3   1  LIG1       -0.3426
     44 H         -10.0744   -1.9428   -2.2900 H       1  LIG1        0.1437
     45 H          -9.7073   -0.3093   -2.3000 H       1  LIG1        0.1437
     46 O         -15.1333   -0.5965    0.3536 O.3     1  LIG1       -0.4936
     47 C         -15.5921    0.5509    1.0491 C.3     1  LIG1        0.0789
     48 H         -16.6248    0.3408    1.3308 H       1  LIG1        0.0660
     49 H         -15.0032    0.7387    1.9565 H       1  LIG1        0.0660
     50 H         -15.5674    1.4472    0.4152 H       1  LIG1        0.0660
@<TRIPOS>BOND
     1    45    43    1
     2    44    43    1
     3    43    35    1
     4    23    20    1
     5    40    35   ar
     6    40    39   ar
     7    35    36   ar
     8    33    31    1
     9    42    39    1
    10    39    38   ar
    11    34    31    1
    12    10    11    3
    13    36    27    1
    14    36    37   ar
    15    31    26    1
    16    31    32    1
    17    20    22    1
    18    20    21    1
    19    20    19    1
    20    27    26   ar
    21    27    28   ar
    22    11     4    1
    23    26    25   ar
    24    29    28    1
    25    28    24   ar
    26    38    37   ar
    27    38    46    1
    28    25    24   ar
    29    25    30    1
    30    24    15    1
    31    37    41    1
    32    16    15   ar
    33    16    12   ar
    34    15    14   ar
    35     4     5   ar
    36     4     3   ar
    37    12     5    1
    38    12    13   ar
    39     7     3    1
    40    14    13   ar
    41    14    19    1
    42    18    17    1
    43    46    47    1
    44     5     6   ar
    45    50    47    1
    46    13    17    1
    47     3     2   ar
    48     6     1   ar
    49     2     1   ar
    50     2     8    1
    51     1     9    1
    52    47    48    1
    53    47    49    1
