@<TRIPOS>MOLECULE
mol_data/opt/b3lyp/geoms/mol2/6ad6ad6ad6ad-.out
 42 45 0 0 0
SMALL
GASTEIGER

@<TRIPOS>ATOM
      1 C          -4.8694   -2.2207   -0.0003 C.ar    1  LIG1        0.0283
      2 C          -3.5061   -2.5209   -0.0004 C.ar    1  LIG1       -0.0423
      3 C          -2.6173   -1.4583   -0.0005 C.ar    1  LIG1       -0.0408
      4 C          -3.1047   -0.1387   -0.0004 C.ar    1  LIG1        0.0777
      5 C          -4.5099    0.0749   -0.0003 C.ar    1  LIG1        0.0898
      6 N          -5.3460   -0.9788   -0.0002 N.ar    1  LIG1       -0.2536
      7 H          -1.5450   -1.6224   -0.0006 H       1  LIG1        0.0631
      8 H          -3.1593   -3.5480   -0.0004 H       1  LIG1        0.0633
      9 H          -5.6120   -3.0157   -0.0002 H       1  LIG1        0.0830
     10 N          -1.2668    1.6926   -0.0005 N.1     1  LIG1       -0.1908
     11 C          -2.1169    0.8977   -0.0004 C.1     1  LIG1        0.1013
     12 C          -6.6079    1.4273    0.0001 C.ar    1  LIG1        0.0375
     13 C          -5.1958    1.3981   -0.0002 C.ar    1  LIG1        0.0209
     14 C          -4.5703    2.6454   -0.0004 C.ar    1  LIG1       -0.0316
     15 C          -5.3299    3.8278   -0.0003 C.ar    1  LIG1        0.0783
     16 C          -6.7455    3.7478   -0.0000 C.ar    1  LIG1        0.0898
     17 N          -7.3330    2.5358    0.0001 N.ar    1  LIG1       -0.2530
     18 H          -3.4942    2.7475   -0.0006 H       1  LIG1        0.0638
     19 H          -7.1532    0.4903    0.0002 H       1  LIG1        0.0836
     20 N          -3.9352    6.0168   -0.0006 N.1     1  LIG1       -0.1908
     21 C          -4.5845    5.0511   -0.0005 C.1     1  LIG1        0.1013
     22 C          -9.0826    4.6145    0.0005 C.ar    1  LIG1        0.0375
     23 C          -7.6974    4.8902    0.0001 C.ar    1  LIG1        0.0209
     24 C          -7.3560    6.2437   -0.0002 C.ar    1  LIG1       -0.0316
     25 C          -8.3522    7.2352   -0.0001 C.ar    1  LIG1        0.0783
     26 C          -9.7178    6.8523    0.0003 C.ar    1  LIG1        0.0898
     27 N         -10.0280    5.5417    0.0006 N.ar    1  LIG1       -0.2530
     28 H          -6.3269    6.5743   -0.0006 H       1  LIG1        0.0638
     29 H          -9.4136    3.5820    0.0007 H       1  LIG1        0.0836
     30 N          -7.4266    9.6601   -0.0008 N.1     1  LIG1       -0.1908
     31 C          -7.8771    8.5874   -0.0005 C.1     1  LIG1        0.1013
     32 C         -10.8462    9.1685    0.0005 C.ar    1  LIG1        0.0368
     33 C         -10.9003    7.7612    0.0006 C.ar    1  LIG1        0.0209
     34 C         -12.1781    7.1794    0.0009 C.ar    1  LIG1       -0.0322
     35 C         -13.3084    7.9978    0.0011 C.ar    1  LIG1        0.0704
     36 C         -13.1284    9.3926    0.0010 C.ar    1  LIG1        0.0449
     37 N         -11.9260    9.9611    0.0007 N.ar    1  LIG1       -0.2613
     38 H         -12.2701    6.1011    0.0010 H       1  LIG1        0.0638
     39 H         -13.9899   10.0560    0.0012 H       1  LIG1        0.0842
     40 H          -9.9012    9.6962    0.0002 H       1  LIG1        0.0836
     41 N         -15.7018    6.9921    0.0017 N.1     1  LIG1       -0.1908
     42 C         -14.6272    7.4366    0.0015 C.1     1  LIG1        0.1007
@<TRIPOS>BOND
     1    30    31    3
     2    20    21    3
     3    28    24    1
     4    18    14    1
     5     7     3    1
     6    10    11    3
     7    31    25    1
     8    21    15    1
     9     3     2   ar
    10     3     4   ar
    11     8     2    1
    12    11     4    1
    13     2     1   ar
    14     4     5   ar
    15    14    15   ar
    16    14    13   ar
    17    15    16   ar
    18     5     6   ar
    19     5    13    1
    20     1     9    1
    21     1     6   ar
    22    24    25   ar
    23    24    23   ar
    24    13    12   ar
    25    25    26   ar
    26    16    23    1
    27    16    17   ar
    28    12    17   ar
    29    12    19    1
    30    23    22   ar
    31    40    32    1
    32    26    33    1
    33    26    27   ar
    34    22    27   ar
    35    22    29    1
    36    32    33   ar
    37    32    37   ar
    38    33    34   ar
    39    37    36   ar
    40    34    38    1
    41    34    35   ar
    42    36    35   ar
    43    36    39    1
    44    35    42    1
    45    42    41    3
