@<TRIPOS>MOLECULE
mol_data/opt/b3lyp/geoms/mol2/6ad6ad-4ad6ad.out
 43 46 0 0 0
SMALL
GASTEIGER

@<TRIPOS>ATOM
      1 C          -4.1891   -2.1400    0.6892 C.ar    1  LIG1        0.0283
      2 C          -2.8878   -2.2369    0.1921 C.ar    1  LIG1       -0.0423
      3 C          -2.3391   -1.1161   -0.4133 C.ar    1  LIG1       -0.0408
      4 C          -3.0937    0.0668   -0.4869 C.ar    1  LIG1        0.0777
      5 C          -4.3927    0.0825    0.0822 C.ar    1  LIG1        0.0898
      6 N          -4.9148   -1.0224    0.6394 N.ar    1  LIG1       -0.2536
      7 H          -1.3433   -1.1386   -0.8430 H       1  LIG1        0.0631
      8 H          -2.3324   -3.1651    0.2662 H       1  LIG1        0.0633
      9 H          -4.6703   -2.9994    1.1508 H       1  LIG1        0.0830
     10 N          -2.0249    2.0656   -1.7513 N.1     1  LIG1       -0.1908
     11 C          -2.5243    1.1855   -1.1772 C.1     1  LIG1        0.1013
     12 C          -4.8230    2.5955    0.2033 C.ar    1  LIG1        0.0375
     13 C          -5.2817    1.2720    0.0951 C.ar    1  LIG1        0.0209
     14 C          -6.6666    1.0915    0.0800 C.ar    1  LIG1       -0.0316
     15 C          -7.5212    2.1989    0.1047 C.ar    1  LIG1        0.0783
     16 C          -6.9553    3.5007    0.1390 C.ar    1  LIG1        0.0883
     17 N          -5.6253    3.6575    0.2212 N.ar    1  LIG1       -0.2530
     18 H          -7.0751    0.0880    0.0667 H       1  LIG1        0.0638
     19 H          -3.7635    2.8124    0.2963 H       1  LIG1        0.0836
     20 N         -10.0685    1.7049    0.1850 N.1     1  LIG1       -0.1908
     21 C          -8.9323    1.9515    0.1452 C.1     1  LIG1        0.1013
     22 C          -7.2228    5.8908    0.7759 C.ar    1  LIG1       -0.0519
     23 C          -7.9164    7.0934    0.7793 C.ar    1  LIG1       -0.0521
     24 C          -7.7427    4.7606    0.1221 C.ar    1  LIG1        0.0029
     25 C          -9.1450    7.2364    0.1178 C.ar    1  LIG1        0.0010
     26 H          -7.5114    7.9398    1.3245 H       1  LIG1        0.0624
     27 C          -8.9583    4.8885   -0.5580 C.ar    1  LIG1       -0.0345
     28 C          -9.6525    6.1079   -0.5691 C.ar    1  LIG1        0.0601
     29 H          -9.3773    4.0596   -1.1139 H       1  LIG1        0.0637
     30 H          -6.2702    5.8060    1.2850 H       1  LIG1        0.0624
     31 N         -11.8279    6.2205   -1.9861 N.1     1  LIG1       -0.1908
     32 C         -10.8593    6.1838   -1.3432 C.1     1  LIG1        0.0998
     33 C         -11.2196    8.6398    0.4660 C.ar    1  LIG1        0.0354
     34 C          -9.8515    8.5405    0.1509 C.ar    1  LIG1        0.0027
     35 C          -9.1623    9.7328   -0.0881 C.ar    1  LIG1       -0.0337
     36 C          -9.8541   10.9482   -0.0144 C.ar    1  LIG1        0.0704
     37 C         -11.2234   10.9222    0.3018 C.ar    1  LIG1        0.0449
     38 N         -11.8890    9.7932    0.5418 N.ar    1  LIG1       -0.2614
     39 H          -8.1085    9.7227   -0.3456 H       1  LIG1        0.0637
     40 H         -11.7863   11.8502    0.3611 H       1  LIG1        0.0842
     41 H         -11.7941    7.7431    0.6823 H       1  LIG1        0.0836
     42 N          -8.6497   13.2057   -0.4492 N.1     1  LIG1       -0.1908
     43 C          -9.1878   12.1927   -0.2570 C.1     1  LIG1        0.1007
@<TRIPOS>BOND
     1    31    32    3
     2    10    11    3
     3    32    28    1
     4    11     4    1
     5    29    27    1
     6     7     3    1
     7    28    27   ar
     8    28    25   ar
     9    27    24   ar
    10     4     3   ar
    11     4     5   ar
    12    42    43    3
    13     3     2   ar
    14    39    35    1
    15    43    36    1
    16    35    36   ar
    17    35    34   ar
    18    36    37   ar
    19    18    14    1
    20    14    13   ar
    21    14    15   ar
    22     5    13    1
    23     5     6   ar
    24    13    12   ar
    25    15    16   ar
    26    15    21    1
    27    25    34    1
    28    25    23   ar
    29    24    16    1
    30    24    22   ar
    31    16    17   ar
    32    21    20    3
    33    34    33   ar
    34     2     8    1
    35     2     1   ar
    36    12    17   ar
    37    12    19    1
    38    37    40    1
    39    37    38   ar
    40    33    38   ar
    41    33    41    1
    42     6     1   ar
    43     1     9    1
    44    22    23   ar
    45    22    30    1
    46    23    26    1
