@<TRIPOS>MOLECULE
mol_data/opt/b3lyp/geoms/mol2/6ad6ad-6ad-6ad.out
 42 45 0 0 0
SMALL
GASTEIGER

@<TRIPOS>ATOM
      1 C          -4.3090   -2.1826   -0.0005 C.ar    1  LIG1        0.0283
      2 C          -2.9142   -2.2378   -0.0005 C.ar    1  LIG1       -0.0423
      3 C          -2.2268   -1.0352   -0.0004 C.ar    1  LIG1       -0.0408
      4 C          -2.9383    0.1787   -0.0003 C.ar    1  LIG1        0.0777
      5 C          -4.3588    0.1410   -0.0003 C.ar    1  LIG1        0.0898
      6 N          -4.9960   -1.0436   -0.0004 N.ar    1  LIG1       -0.2536
      7 H          -1.1424   -1.0079   -0.0004 H       1  LIG1        0.0631
      8 H          -2.3916   -3.1877   -0.0006 H       1  LIG1        0.0633
      9 H          -4.9004   -3.0957   -0.0006 H       1  LIG1        0.0830
     10 N          -1.4378    2.2952   -0.0002 N.1     1  LIG1       -0.1908
     11 C          -2.1443    1.3705   -0.0003 C.1     1  LIG1        0.1013
     12 C          -4.8733    2.6724   -0.0000 C.ar    1  LIG1        0.0375
     13 C          -5.2698    1.3222   -0.0002 C.ar    1  LIG1        0.0209
     14 C          -6.6509    1.1002   -0.0003 C.ar    1  LIG1       -0.0316
     15 C          -7.5553    2.1673   -0.0002 C.ar    1  LIG1        0.0783
     16 C          -7.0532    3.4971   -0.0000 C.ar    1  LIG1        0.0898
     17 N          -5.7248    3.6937    0.0001 N.ar    1  LIG1       -0.2530
     18 H          -7.0194    0.0823   -0.0004 H       1  LIG1        0.0638
     19 H          -3.8288    2.9578    0.0001 H       1  LIG1        0.0836
     20 N         -10.0561    1.4717   -0.0004 N.1     1  LIG1       -0.1908
     21 C          -8.9441    1.8147   -0.0003 C.1     1  LIG1        0.1013
     22 C          -7.1858    5.9873    0.0004 C.ar    1  LIG1        0.0375
     23 C          -7.8600    4.7462    0.0001 C.ar    1  LIG1        0.0209
     24 C          -9.2536    4.8206   -0.0000 C.ar    1  LIG1       -0.0316
     25 C          -9.9059    6.0657    0.0001 C.ar    1  LIG1        0.0783
     26 C          -9.1356    7.2565    0.0004 C.ar    1  LIG1        0.0898
     27 N          -7.7917    7.1647    0.0005 N.ar    1  LIG1       -0.2530
     28 H          -9.8742    3.9355   -0.0003 H       1  LIG1        0.0638
     29 H          -6.1015    5.9976    0.0005 H       1  LIG1        0.0836
     30 N         -12.4959    5.8975   -0.0003 N.1     1  LIG1       -0.1908
     31 C         -11.3380    6.0114   -0.0001 C.1     1  LIG1        0.1013
     32 C         -11.0135    9.0202    0.0006 C.ar    1  LIG1        0.0368
     33 C          -9.6533    8.6552    0.0006 C.ar    1  LIG1        0.0209
     34 C          -8.7190    9.7031    0.0008 C.ar    1  LIG1       -0.0322
     35 C          -9.1661   11.0251    0.0009 C.ar    1  LIG1        0.0704
     36 C         -10.5516   11.2663    0.0009 C.ar    1  LIG1        0.0449
     37 N         -11.4509   10.2863    0.0007 N.ar    1  LIG1       -0.2613
     38 H          -7.6617    9.4719    0.0008 H       1  LIG1        0.0638
     39 H         -10.9300   12.2857    0.0010 H       1  LIG1        0.0842
     40 H         -11.7974    8.2738    0.0004 H       1  LIG1        0.0836
     41 N          -7.4986   13.0149    0.0013 N.1     1  LIG1       -0.1908
     42 C          -8.2401   12.1191    0.0012 C.1     1  LIG1        0.1007
@<TRIPOS>BOND
     1     8     2    1
     2     9     1    1
     3     2     1   ar
     4     2     3   ar
     5     1     6   ar
     6     7     3    1
     7    18    14    1
     8     3     4   ar
     9     6     5   ar
    10    20    21    3
    11     4     5   ar
    12     4    11    1
    13     5    13    1
    14    14    13   ar
    15    14    15   ar
    16    30    31    3
    17    21    15    1
    18    28    24    1
    19    11    10    3
    20    13    12   ar
    21    15    16   ar
    22    31    25    1
    23    24    25   ar
    24    24    23   ar
    25    16    17   ar
    26    16    23    1
    27    12    17   ar
    28    12    19    1
    29    25    26   ar
    30    23    22   ar
    31    26    27   ar
    32    26    33    1
    33    22    29    1
    34    22    27   ar
    35    40    32    1
    36    32    33   ar
    37    32    37   ar
    38    33    34   ar
    39    37    36   ar
    40    34    38    1
    41    34    35   ar
    42    36    35   ar
    43    36    39    1
    44    35    42    1
    45    42    41    3
