@<TRIPOS>MOLECULE
mol_data/opt/b3lyp/geoms/mol2/6ad6ad-.out
 22 23 0 0 0
SMALL
GASTEIGER

@<TRIPOS>ATOM
      1 C          -4.5828   -2.0346   -0.0000 C.ar    1  LIG1        0.0283
      2 C          -3.1921   -2.1500   -0.0000 C.ar    1  LIG1       -0.0423
      3 C          -2.4555   -0.9772   -0.0002 C.ar    1  LIG1       -0.0408
      4 C          -3.1147    0.2661   -0.0003 C.ar    1  LIG1        0.0777
      5 C          -4.5358    0.2907   -0.0002 C.ar    1  LIG1        0.0898
      6 N          -5.2204   -0.8673   -0.0001 N.ar    1  LIG1       -0.2536
      7 H          -1.3709   -0.9951   -0.0002 H       1  LIG1        0.0631
      8 H          -2.7102   -3.1209    0.0000 H       1  LIG1        0.0633
      9 H          -5.2131   -2.9213    0.0001 H       1  LIG1        0.0830
     10 N          -1.5022    2.2987   -0.0006 N.1     1  LIG1       -0.1908
     11 C          -2.2630    1.4180   -0.0004 C.1     1  LIG1        0.1013
     12 C          -4.9323    2.8384   -0.0002 C.ar    1  LIG1        0.0368
     13 C          -5.3993    1.5106   -0.0003 C.ar    1  LIG1        0.0209
     14 C          -6.7914    1.3331   -0.0004 C.ar    1  LIG1       -0.0322
     15 C          -7.6294    2.4495   -0.0004 C.ar    1  LIG1        0.0704
     16 C          -7.0456    3.7286   -0.0004 C.ar    1  LIG1        0.0449
     17 N          -5.7288    3.9155   -0.0003 N.ar    1  LIG1       -0.2613
     18 H          -7.1992    0.3307   -0.0004 H       1  LIG1        0.0638
     19 H          -7.6722    4.6169   -0.0004 H       1  LIG1        0.0842
     20 H          -3.8737    3.0637   -0.0002 H       1  LIG1        0.0836
     21 N         -10.2133    2.1943   -0.0006 N.1     1  LIG1       -0.1908
     22 C          -9.0553    2.3026   -0.0005 C.1     1  LIG1        0.1007
@<TRIPOS>BOND
     1    21    22    3
     2    10    11    3
     3    22    15    1
     4    19    16    1
     5    15    16   ar
     6    15    14   ar
     7    11     4    1
     8    16    17   ar
     9    18    14    1
    10    14    13   ar
    11    17    12   ar
    12    13    12   ar
    13    13     5    1
    14     4     5   ar
    15     4     3   ar
    16    12    20    1
    17     5     6   ar
    18     7     3    1
    19     3     2   ar
    20     6     1   ar
    21     2     1   ar
    22     2     8    1
    23     1     9    1
