@<TRIPOS>MOLECULE
mol_data/opt/b3lyp/geoms/mol2/6ad6ad-6ad6ad-.out
 42 45 0 0 0
SMALL
GASTEIGER

@<TRIPOS>ATOM
      1 C          -4.4636   -2.2418   -0.0004 C.ar    1  LIG1        0.0283
      2 C          -3.0728   -2.3614   -0.0005 C.ar    1  LIG1       -0.0423
      3 C          -2.3307   -1.1918   -0.0006 C.ar    1  LIG1       -0.0408
      4 C          -2.9852    0.0538   -0.0005 C.ar    1  LIG1        0.0777
      5 C          -4.4059    0.0817   -0.0003 C.ar    1  LIG1        0.0898
      6 N          -5.0971   -1.0722   -0.0003 N.ar    1  LIG1       -0.2536
      7 H          -1.2462   -1.2146   -0.0007 H       1  LIG1        0.0631
      8 H          -2.5946   -3.3343   -0.0006 H       1  LIG1        0.0633
      9 H          -5.0966   -3.1266   -0.0003 H       1  LIG1        0.0830
     10 N          -1.3894    2.0991   -0.0007 N.1     1  LIG1       -0.1908
     11 C          -2.1375    1.2077   -0.0006 C.1     1  LIG1        0.1013
     12 C          -4.8042    2.6344   -0.0001 C.ar    1  LIG1        0.0375
     13 C          -5.2617    1.3037   -0.0002 C.ar    1  LIG1        0.0209
     14 C          -6.6515    1.1449   -0.0002 C.ar    1  LIG1       -0.0316
     15 C          -7.5075    2.2515   -0.0001 C.ar    1  LIG1        0.0783
     16 C          -6.9451    3.5567    0.0000 C.ar    1  LIG1        0.0898
     17 N          -5.6093    3.6927   -0.0000 N.ar    1  LIG1       -0.2530
     18 H          -7.0657    0.1448   -0.0003 H       1  LIG1        0.0638
     19 H          -3.7480    2.8727   -0.0001 H       1  LIG1        0.0836
     20 N         -10.0330    1.6523   -0.0001 N.1     1  LIG1       -0.1908
     21 C          -8.9101    1.9571   -0.0001 C.1     1  LIG1        0.1013
     22 C          -9.0942    4.9823    0.0003 C.ar    1  LIG1        0.0375
     23 C          -7.6940    4.8429    0.0002 C.ar    1  LIG1        0.0209
     24 C          -6.9694    6.0399    0.0002 C.ar    1  LIG1       -0.0316
     25 C          -7.6180    7.2795    0.0003 C.ar    1  LIG1        0.0783
     26 C          -9.0395    7.3140    0.0004 C.ar    1  LIG1        0.0898
     27 N          -9.7190    6.1556    0.0004 N.ar    1  LIG1       -0.2530
     28 H          -5.8875    5.9988    0.0001 H       1  LIG1        0.0638
     29 H          -9.7510    4.1214    0.0003 H       1  LIG1        0.0836
     30 N          -6.0054    9.3133    0.0003 N.1     1  LIG1       -0.1908
     31 C          -6.7604    8.4281    0.0003 C.1     1  LIG1        0.1013
     32 C          -9.4299    9.8586    0.0007 C.ar    1  LIG1        0.0368
     33 C          -9.9007    8.5317    0.0006 C.ar    1  LIG1        0.0209
     34 C         -11.2937    8.3557    0.0006 C.ar    1  LIG1       -0.0322
     35 C         -12.1288    9.4738    0.0008 C.ar    1  LIG1        0.0704
     36 C         -11.5415   10.7519    0.0008 C.ar    1  LIG1        0.0449
     37 N         -10.2244   10.9370    0.0008 N.ar    1  LIG1       -0.2613
     38 H         -11.7027    7.3536    0.0006 H       1  LIG1        0.0638
     39 H         -12.1667   11.6415    0.0009 H       1  LIG1        0.0842
     40 H          -8.3705   10.0808    0.0006 H       1  LIG1        0.0836
     41 N         -14.7135    9.2318    0.0009 N.1     1  LIG1       -0.1908
     42 C         -13.5550    9.3325    0.0008 C.1     1  LIG1        0.1007
@<TRIPOS>BOND
     1     7     3    1
     2    10    11    3
     3     8     2    1
     4    11     4    1
     5     3     2   ar
     6     3     4   ar
     7     2     1   ar
     8     4     5   ar
     9     1     9    1
    10     1     6   ar
    11     5     6   ar
    12     5    13    1
    13    18    14    1
    14    13    14   ar
    15    13    12   ar
    16    14    15   ar
    17    19    12    1
    18    12    17   ar
    19    20    21    3
    20    21    15    1
    21    15    16   ar
    22    17    16   ar
    23    16    23    1
    24    28    24    1
    25    23    24   ar
    26    23    22   ar
    27    24    25   ar
    28    30    31    3
    29    22    29    1
    30    22    27   ar
    31    31    25    1
    32    25    26   ar
    33    27    26   ar
    34    26    33    1
    35    38    34    1
    36    33    34   ar
    37    33    32   ar
    38    40    32    1
    39    34    35   ar
    40    32    37   ar
    41    35    42    1
    42    35    36   ar
    43    37    36   ar
    44    42    41    3
    45    36    39    1
