@<TRIPOS>MOLECULE
mol_data/opt/b3lyp/geoms/mol2/6ad6ad6ad6ad.out
 42 45 0 0 0
SMALL
GASTEIGER

@<TRIPOS>ATOM
      1 C          -4.8302   -2.2686   -0.0003 C.ar    1  LIG1        0.0283
      2 C          -3.4659   -2.5641   -0.0006 C.ar    1  LIG1       -0.0423
      3 C          -2.5808   -1.4983   -0.0007 C.ar    1  LIG1       -0.0408
      4 C          -3.0727   -0.1805   -0.0006 C.ar    1  LIG1        0.0777
      5 C          -4.4787    0.0283   -0.0003 C.ar    1  LIG1        0.0898
      6 N          -5.3112   -1.0284   -0.0002 N.ar    1  LIG1       -0.2536
      7 H          -1.5080   -1.6586   -0.0008 H       1  LIG1        0.0631
      8 H          -3.1153   -3.5899   -0.0006 H       1  LIG1        0.0633
      9 H          -5.5700   -3.0662   -0.0003 H       1  LIG1        0.0830
     10 N          -1.2404    1.6561   -0.0007 N.1     1  LIG1       -0.1908
     11 C          -2.0882    0.8588   -0.0007 C.1     1  LIG1        0.1013
     12 C          -6.5808    1.3747    0.0001 C.ar    1  LIG1        0.0375
     13 C          -5.1688    1.3495   -0.0002 C.ar    1  LIG1        0.0209
     14 C          -4.5468    2.5985   -0.0004 C.ar    1  LIG1       -0.0316
     15 C          -5.3096    3.7786   -0.0002 C.ar    1  LIG1        0.0783
     16 C          -6.7251    3.6948    0.0001 C.ar    1  LIG1        0.0898
     17 N          -7.3091    2.4811    0.0002 N.ar    1  LIG1       -0.2530
     18 H          -3.4710    2.7035   -0.0006 H       1  LIG1        0.0638
     19 H          -7.1235    0.4360    0.0002 H       1  LIG1        0.0836
     20 N          -3.9196    5.9704   -0.0006 N.1     1  LIG1       -0.1908
     21 C          -4.5668    5.0033   -0.0004 C.1     1  LIG1        0.1013
     22 C          -9.0646    4.5570    0.0006 C.ar    1  LIG1        0.0375
     23 C          -7.6797    4.8351    0.0002 C.ar    1  LIG1        0.0209
     24 C          -7.3405    6.1891   -0.0000 C.ar    1  LIG1       -0.0316
     25 C          -8.3392    7.1775    0.0002 C.ar    1  LIG1        0.0783
     26 C          -9.7047    6.7926    0.0006 C.ar    1  LIG1        0.0898
     27 N         -10.0127    5.4815    0.0008 N.ar    1  LIG1       -0.2530
     28 H          -6.3122    6.5224   -0.0003 H       1  LIG1        0.0638
     29 H          -9.3934    3.5237    0.0009 H       1  LIG1        0.0836
     30 N          -7.4361    9.6110   -0.0002 N.1     1  LIG1       -0.1908
     31 C          -7.8710    8.5317   -0.0000 C.1     1  LIG1        0.1013
     32 C         -12.1734    7.1248    0.0014 C.ar    1  LIG1        0.0368
     33 C         -10.8840    7.7040    0.0008 C.ar    1  LIG1        0.0209
     34 C         -10.8242    9.1034    0.0003 C.ar    1  LIG1       -0.0322
     35 C         -12.0181    9.8368    0.0006 C.ar    1  LIG1        0.0704
     36 C         -13.2400    9.1470    0.0013 C.ar    1  LIG1        0.0449
     37 N         -13.3152    7.8156    0.0017 N.ar    1  LIG1       -0.2613
     38 H          -9.8879    9.6428   -0.0002 H       1  LIG1        0.0638
     39 H         -14.1780    9.6967    0.0015 H       1  LIG1        0.0842
     40 H         -12.2599    6.0445    0.0018 H       1  LIG1        0.0836
     41 N         -12.0131   12.4326   -0.0002 N.1     1  LIG1       -0.1908
     42 C         -12.0036   11.2697    0.0002 C.1     1  LIG1        0.1007
@<TRIPOS>BOND
     1     7     3    1
     2    10    11    3
     3     3     2   ar
     4     3     4   ar
     5    11     4    1
     6     8     2    1
     7    18    14    1
     8    20    21    3
     9     2     1   ar
    10     4     5   ar
    11    21    15    1
    12    14    15   ar
    13    14    13   ar
    14     5     6   ar
    15     5    13    1
    16     1     9    1
    17     1     6   ar
    18    28    24    1
    19    15    16   ar
    20    30    31    3
    21    13    12   ar
    22    41    42    3
    23    38    34    1
    24    31    25    1
    25    24    25   ar
    26    24    23   ar
    27    16    17   ar
    28    16    23    1
    29    12    17   ar
    30    12    19    1
    31    42    35    1
    32    25    26   ar
    33    23    22   ar
    34    34    35   ar
    35    34    33   ar
    36    26    33    1
    37    26    27   ar
    38    35    36   ar
    39    22    27   ar
    40    22    29    1
    41    33    32   ar
    42    36    39    1
    43    36    37   ar
    44    32    37   ar
    45    32    40    1
