@<TRIPOS>MOLECULE
mol_data/opt/b3lyp/geoms/mol2/6ad6ad6ad.out
 32 34 0 0 0
SMALL
GASTEIGER

@<TRIPOS>ATOM
      1 C          -4.6626   -2.1659   -0.0002 C.ar    1  LIG1        0.0283
      2 C          -3.2814   -2.3676   -0.0003 C.ar    1  LIG1       -0.0423
      3 C          -2.4715   -1.2437   -0.0004 C.ar    1  LIG1       -0.0408
      4 C          -3.0525    0.0374   -0.0003 C.ar    1  LIG1        0.0777
      5 C          -4.4695    0.1499   -0.0002 C.ar    1  LIG1        0.0898
      6 N          -5.2274   -0.9616   -0.0002 N.ar    1  LIG1       -0.2536
      7 H          -1.3902   -1.3301   -0.0004 H       1  LIG1        0.0631
      8 H          -2.8616   -3.3671   -0.0004 H       1  LIG1        0.0633
      9 H          -5.3462   -3.0124   -0.0002 H       1  LIG1        0.0830
     10 N          -1.3481    1.9936   -0.0004 N.1     1  LIG1       -0.1908
     11 C          -2.1412    1.1417   -0.0003 C.1     1  LIG1        0.1013
     12 C          -6.6589    1.3486    0.0000 C.ar    1  LIG1        0.0375
     13 C          -5.2488    1.4201   -0.0002 C.ar    1  LIG1        0.0209
     14 C          -4.7153    2.7092   -0.0003 C.ar    1  LIG1       -0.0316
     15 C          -5.5578    3.8342   -0.0003 C.ar    1  LIG1        0.0783
     16 C          -6.9647    3.6542   -0.0001 C.ar    1  LIG1        0.0898
     17 N          -7.4613    2.4023    0.0000 N.ar    1  LIG1       -0.2530
     18 H          -3.6493    2.8886   -0.0005 H       1  LIG1        0.0638
     19 H          -7.1362    0.3750    0.0001 H       1  LIG1        0.0836
     20 N          -4.3051    6.1076   -0.0005 N.1     1  LIG1       -0.1908
     21 C          -4.8954    5.1048   -0.0004 C.1     1  LIG1        0.1013
     22 C          -9.3580    4.3445    0.0003 C.ar    1  LIG1        0.0368
     23 C          -7.9978    4.7287   -0.0000 C.ar    1  LIG1        0.0209
     24 C          -7.7338    6.1041   -0.0003 C.ar    1  LIG1       -0.0322
     25 C          -8.8074    7.0046   -0.0002 C.ar    1  LIG1        0.0704
     26 C         -10.1171    6.5012    0.0001 C.ar    1  LIG1        0.0449
     27 N         -10.3864    5.1951    0.0004 N.ar    1  LIG1       -0.2613
     28 H          -6.7285    6.5004   -0.0006 H       1  LIG1        0.0638
     29 H         -10.9646    7.1822    0.0002 H       1  LIG1        0.0842
     30 H          -9.6015    3.2884    0.0006 H       1  LIG1        0.0836
     31 N          -8.4210    9.5715   -0.0008 N.1     1  LIG1       -0.1908
     32 C          -8.5827    8.4200   -0.0005 C.1     1  LIG1        0.1007
@<TRIPOS>BOND
     1    31    32    3
     2    28    24    1
     3    32    25    1
     4    20    21    3
     5    18    14    1
     6     7     3    1
     7    21    15    1
     8    10    11    3
     9     3     2   ar
    10     3     4   ar
    11     8     2    1
    12    11     4    1
    13     2     1   ar
    14    24    25   ar
    15    24    23   ar
    16    14    15   ar
    17    14    13   ar
    18     4     5   ar
    19    15    16   ar
    20     1     9    1
    21     1     6   ar
    22     5     6   ar
    23     5    13    1
    24    25    26   ar
    25    13    12   ar
    26    16    23    1
    27    16    17   ar
    28    23    22   ar
    29    12    17   ar
    30    12    19    1
    31    26    29    1
    32    26    27   ar
    33    22    27   ar
    34    22    30    1
