@<TRIPOS>MOLECULE
mol_data/opt/b3lyp/geoms/mol2/6ad6ad.out
 22 23 0 0 0
SMALL
GASTEIGER

@<TRIPOS>ATOM
      1 C          -4.5812   -2.0909   -0.0001 C.ar    1  LIG1        0.0283
      2 C          -3.1895   -2.1963   -0.0001 C.ar    1  LIG1       -0.0423
      3 C          -2.4611   -1.0182   -0.0002 C.ar    1  LIG1       -0.0408
      4 C          -3.1303    0.2194   -0.0002 C.ar    1  LIG1        0.0777
      5 C          -4.5521    0.2340   -0.0002 C.ar    1  LIG1        0.0898
      6 N          -5.2282   -0.9289   -0.0001 N.ar    1  LIG1       -0.2536
      7 H          -1.3764   -1.0282   -0.0002 H       1  LIG1        0.0631
      8 H          -2.7004   -3.1640   -0.0001 H       1  LIG1        0.0633
      9 H          -5.2046   -2.9826   -0.0000 H       1  LIG1        0.0830
     10 N          -1.5494    2.2768   -0.0003 N.1     1  LIG1       -0.1908
     11 C          -2.2916    1.3803   -0.0003 C.1     1  LIG1        0.1013
     12 C          -6.8206    1.2701   -0.0001 C.ar    1  LIG1        0.0368
     13 C          -5.4192    1.4501   -0.0003 C.ar    1  LIG1        0.0209
     14 C          -4.9571    2.7714   -0.0005 C.ar    1  LIG1       -0.0322
     15 C          -5.8869    3.8203   -0.0005 C.ar    1  LIG1        0.0704
     16 C          -7.2560    3.5149   -0.0003 C.ar    1  LIG1        0.0449
     17 N          -7.7133    2.2623   -0.0001 N.ar    1  LIG1       -0.2613
     18 H          -3.9049    3.0173   -0.0007 H       1  LIG1        0.0638
     19 H          -7.9946    4.3127   -0.0003 H       1  LIG1        0.0842
     20 H          -7.2167    0.2616    0.0001 H       1  LIG1        0.0836
     21 N          -5.1238    6.3015   -0.0010 N.1     1  LIG1       -0.1908
     22 C          -5.4555    5.1869   -0.0008 C.1     1  LIG1        0.1007
@<TRIPOS>BOND
     1    21    22    3
     2    22    15    1
     3    18    14    1
     4    15    14   ar
     5    15    16   ar
     6    14    13   ar
     7    10    11    3
     8    19    16    1
     9    16    17   ar
    10    11     4    1
    11    13     5    1
    12    13    12   ar
    13     4     5   ar
    14     4     3   ar
    15     5     6   ar
    16     7     3    1
    17     3     2   ar
    18     6     1   ar
    19     2     1   ar
    20     2     8    1
    21     1     9    1
    22    17    12   ar
    23    12    20    1
