@<TRIPOS>MOLECULE
mol_data/opt/b3lyp/geoms/mol2/6ad6ad6ad-6ad-.out
 42 45 0 0 0
SMALL
GASTEIGER

@<TRIPOS>ATOM
      1 C          -4.6742   -2.2219   -0.0004 C.ar    1  LIG1        0.0283
      2 C          -3.2993   -2.4637   -0.0005 C.ar    1  LIG1       -0.0423
      3 C          -2.4566   -1.3642   -0.0006 C.ar    1  LIG1       -0.0408
      4 C          -2.9996   -0.0665   -0.0005 C.ar    1  LIG1        0.0777
      5 C          -4.4127    0.0870   -0.0004 C.ar    1  LIG1        0.0898
      6 N          -5.2032   -1.0013   -0.0003 N.ar    1  LIG1       -0.2536
      7 H          -1.3783   -1.4824   -0.0007 H       1  LIG1        0.0631
      8 H          -2.9089   -3.4751   -0.0006 H       1  LIG1        0.0633
      9 H          -5.3823   -3.0477   -0.0003 H       1  LIG1        0.0830
     10 N          -1.2414    1.8413   -0.0006 N.1     1  LIG1       -0.1908
     11 C          -2.0569    1.0109   -0.0006 C.1     1  LIG1        0.1013
     12 C          -6.5662    1.3494    0.0000 C.ar    1  LIG1        0.0375
     13 C          -5.1542    1.3799   -0.0003 C.ar    1  LIG1        0.0209
     14 C          -4.5821    2.6524   -0.0004 C.ar    1  LIG1       -0.0316
     15 C          -5.3901    3.8027   -0.0003 C.ar    1  LIG1        0.0783
     16 C          -6.8007    3.6627   -0.0000 C.ar    1  LIG1        0.0898
     17 N          -7.3363    2.4270    0.0002 N.ar    1  LIG1       -0.2530
     18 H          -3.5113    2.7996   -0.0007 H       1  LIG1        0.0638
     19 H          -7.0719    0.3904    0.0002 H       1  LIG1        0.0836
     20 N          -4.0729    6.0390   -0.0008 N.1     1  LIG1       -0.1908
     21 C          -4.6921    5.0539   -0.0006 C.1     1  LIG1        0.1013
     22 C          -7.5177    6.1422    0.0002 C.ar    1  LIG1        0.0375
     23 C          -7.8023    4.7636    0.0002 C.ar    1  LIG1        0.0209
     24 C          -9.1611    4.4296    0.0004 C.ar    1  LIG1       -0.0316
     25 C         -10.1497    5.4191    0.0006 C.ar    1  LIG1        0.0783
     26 C          -9.7589    6.7865    0.0005 C.ar    1  LIG1        0.0898
     27 N          -8.4505    7.0892    0.0003 N.ar    1  LIG1       -0.2530
     28 H          -9.4449    3.3848    0.0004 H       1  LIG1        0.0638
     29 H          -6.5001    6.5120    0.0000 H       1  LIG1        0.0836
     30 N         -12.5783    4.5023    0.0011 N.1     1  LIG1       -0.1908
     31 C         -11.5030    4.9471    0.0008 C.1     1  LIG1        0.1013
     32 C         -10.0892    9.2564    0.0008 C.ar    1  LIG1        0.0368
     33 C         -10.6684    7.9670    0.0006 C.ar    1  LIG1        0.0209
     34 C         -12.0674    7.9062    0.0005 C.ar    1  LIG1       -0.0322
     35 C         -12.8019    9.0995    0.0006 C.ar    1  LIG1        0.0704
     36 C         -12.1125   10.3216    0.0009 C.ar    1  LIG1        0.0449
     37 N         -10.7810   10.3975    0.0010 N.ar    1  LIG1       -0.2613
     38 H         -12.6059    6.9692    0.0003 H       1  LIG1        0.0638
     39 H         -12.6623   11.2596    0.0010 H       1  LIG1        0.0842
     40 H          -9.0087    9.3431    0.0009 H       1  LIG1        0.0836
     41 N         -15.3976    9.0889    0.0004 N.1     1  LIG1       -0.1908
     42 C         -14.2347    9.0830    0.0005 C.1     1  LIG1        0.1007
@<TRIPOS>BOND
     1    20    21    3
     2     7     3    1
     3    18    14    1
     4    10    11    3
     5     3     2   ar
     6     3     4   ar
     7     8     2    1
     8    21    15    1
     9    11     4    1
    10     2     1   ar
    11     4     5   ar
    12    14    15   ar
    13    14    13   ar
    14     1     9    1
    15     1     6   ar
    16     5     6   ar
    17     5    13    1
    18    15    16   ar
    19    13    12   ar
    20    16    17   ar
    21    16    23    1
    22    29    22    1
    23    12    17   ar
    24    12    19    1
    25    22    23   ar
    26    22    27   ar
    27    23    24   ar
    28    27    26   ar
    29    38    34    1
    30    24    28    1
    31    24    25   ar
    32    41    42    3
    33    26    25   ar
    34    26    33    1
    35    34    33   ar
    36    34    35   ar
    37    42    35    1
    38    25    31    1
    39    33    32   ar
    40    35    36   ar
    41    31    30    3
    42    32    40    1
    43    32    37   ar
    44    36    37   ar
    45    36    39    1
