@<TRIPOS>MOLECULE
mol_data/opt/b3lyp/geoms/mol2/6ad6ad-6ad.out
 32 34 0 0 0
SMALL
GASTEIGER

@<TRIPOS>ATOM
      1 C          -4.5061   -2.1368   -0.0002 C.ar    1  LIG1        0.0283
      2 C          -3.1144   -2.2448   -0.0002 C.ar    1  LIG1       -0.0423
      3 C          -2.3823   -1.0688   -0.0003 C.ar    1  LIG1       -0.0408
      4 C          -3.0476    0.1709   -0.0003 C.ar    1  LIG1        0.0777
      5 C          -4.4686    0.1872   -0.0002 C.ar    1  LIG1        0.0898
      6 N          -5.1497   -0.9728   -0.0002 N.ar    1  LIG1       -0.2536
      7 H          -1.2977   -1.0822   -0.0003 H       1  LIG1        0.0631
      8 H          -2.6280   -3.2137   -0.0002 H       1  LIG1        0.0633
      9 H          -5.1316   -3.0269   -0.0001 H       1  LIG1        0.0830
     10 N          -1.4662    2.2276   -0.0005 N.1     1  LIG1       -0.1908
     11 C          -2.2088    1.3315   -0.0004 C.1     1  LIG1        0.1013
     12 C          -4.8873    2.7362   -0.0001 C.ar    1  LIG1        0.0375
     13 C          -5.3337    1.4022   -0.0002 C.ar    1  LIG1        0.0209
     14 C          -6.7222    1.2337   -0.0003 C.ar    1  LIG1       -0.0316
     15 C          -7.5871    2.3336   -0.0003 C.ar    1  LIG1        0.0783
     16 C          -7.0360    3.6439   -0.0002 C.ar    1  LIG1        0.0898
     17 N          -5.7010    3.7879   -0.0001 N.ar    1  LIG1       -0.2530
     18 H          -7.1298    0.2308   -0.0004 H       1  LIG1        0.0638
     19 H          -3.8331    2.9832   -0.0000 H       1  LIG1        0.0836
     20 N         -10.1015    1.6898   -0.0005 N.1     1  LIG1       -0.1908
     21 C          -8.9857    2.0199   -0.0004 C.1     1  LIG1        0.1013
     22 C          -9.1975    5.0413   -0.0001 C.ar    1  LIG1        0.0368
     23 C          -7.7942    4.9283   -0.0001 C.ar    1  LIG1        0.0209
     24 C          -7.0641    6.1275   -0.0001 C.ar    1  LIG1       -0.0322
     25 C          -7.7432    7.3467   -0.0001 C.ar    1  LIG1        0.0704
     26 C          -9.1497    7.3333   -0.0000 C.ar    1  LIG1        0.0449
     27 N          -9.8572    6.2070   -0.0001 N.ar    1  LIG1       -0.2613
     28 H          -5.9823    6.0915   -0.0001 H       1  LIG1        0.0638
     29 H          -9.7058    8.2676   -0.0000 H       1  LIG1        0.0842
     30 H          -9.8334    4.1653   -0.0001 H       1  LIG1        0.0836
     31 N          -6.4656    9.6066   -0.0000 N.1     1  LIG1       -0.1908
     32 C          -7.0312    8.5906   -0.0001 C.1     1  LIG1        0.1007
@<TRIPOS>BOND
     1    20    21    3
     2    10    11    3
     3    11     4    1
     4    21    15    1
     5    18    14    1
     6     7     3    1
     7     4     3   ar
     8     4     5   ar
     9    14    15   ar
    10    14    13   ar
    11     3     2   ar
    12    15    16   ar
    13     5    13    1
    14     5     6   ar
    15     2     8    1
    16     2     1   ar
    17    13    12   ar
    18     6     1   ar
    19     1     9    1
    20    16    23    1
    21    16    17   ar
    22    28    24    1
    23    23    24   ar
    24    23    22   ar
    25    12    17   ar
    26    12    19    1
    27    24    25   ar
    28    22    30    1
    29    22    27   ar
    30    25    32    1
    31    25    26   ar
    32    32    31    3
    33    27    26   ar
    34    26    29    1
