@<TRIPOS>MOLECULE
mol_data/opt/b3lyp/geoms/mol2/6ad6ad-6ad-6ad-.out
 42 45 0 0 0
SMALL
GASTEIGER

@<TRIPOS>ATOM
      1 C          -4.2884   -2.2163   -0.0005 C.ar    1  LIG1        0.0283
      2 C          -2.8937   -2.2768   -0.0006 C.ar    1  LIG1       -0.0423
      3 C          -2.2019   -1.0767   -0.0006 C.ar    1  LIG1       -0.0408
      4 C          -2.9089    0.1399   -0.0005 C.ar    1  LIG1        0.0777
      5 C          -4.3295    0.1077   -0.0004 C.ar    1  LIG1        0.0898
      6 N          -4.9710   -1.0746   -0.0004 N.ar    1  LIG1       -0.2536
      7 H          -1.1174   -1.0535   -0.0007 H       1  LIG1        0.0631
      8 H          -2.3747   -3.2286   -0.0007 H       1  LIG1        0.0633
      9 H          -4.8834   -3.1271   -0.0005 H       1  LIG1        0.0830
     10 N          -1.4000    2.2503   -0.0005 N.1     1  LIG1       -0.1908
     11 C          -2.1105    1.3286   -0.0005 C.1     1  LIG1        0.1013
     12 C          -4.8350    2.6413   -0.0000 C.ar    1  LIG1        0.0375
     13 C          -5.2360    1.2923   -0.0002 C.ar    1  LIG1        0.0209
     14 C          -6.6180    1.0751   -0.0002 C.ar    1  LIG1       -0.0316
     15 C          -7.5186    2.1452   -0.0001 C.ar    1  LIG1        0.0783
     16 C          -7.0121    3.4734    0.0001 C.ar    1  LIG1        0.0898
     17 N          -5.6829    3.6656    0.0001 N.ar    1  LIG1       -0.2530
     18 H          -6.9905    0.0586   -0.0004 H       1  LIG1        0.0638
     19 H          -3.7899    2.9233    0.0000 H       1  LIG1        0.0836
     20 N         -10.0210    1.4556   -0.0001 N.1     1  LIG1       -0.1908
     21 C          -8.9084    1.7964   -0.0001 C.1     1  LIG1        0.1013
     22 C          -7.1399    5.9645    0.0005 C.ar    1  LIG1        0.0375
     23 C          -7.8158    4.7241    0.0002 C.ar    1  LIG1        0.0209
     24 C          -9.2094    4.8004    0.0001 C.ar    1  LIG1       -0.0316
     25 C          -9.8584    6.0467    0.0002 C.ar    1  LIG1        0.0783
     26 C          -9.0866    7.2370    0.0005 C.ar    1  LIG1        0.0898
     27 N          -7.7429    7.1435    0.0007 N.ar    1  LIG1       -0.2530
     28 H          -9.8315    3.9164   -0.0002 H       1  LIG1        0.0638
     29 H          -6.0555    5.9730    0.0007 H       1  LIG1        0.0836
     30 N         -12.4499    5.9005   -0.0001 N.1     1  LIG1       -0.1908
     31 C         -11.2905    5.9992    0.0001 C.1     1  LIG1        0.1013
     32 C          -8.6745    9.6938    0.0012 C.ar    1  LIG1        0.0368
     33 C          -9.6087    8.6327    0.0007 C.ar    1  LIG1        0.0209
     34 C         -10.9633    8.9886    0.0004 C.ar    1  LIG1       -0.0322
     35 C         -11.3117   10.3458    0.0006 C.ar    1  LIG1        0.0704
     36 C         -10.2921   11.3097    0.0011 C.ar    1  LIG1        0.0449
     37 N          -8.9978   10.9885    0.0014 N.ar    1  LIG1       -0.2613
     38 H         -11.7551    8.2533   -0.0001 H       1  LIG1        0.0638
     39 H         -10.5405   12.3682    0.0013 H       1  LIG1        0.0842
     40 H          -7.6168    9.4576    0.0015 H       1  LIG1        0.0836
     41 N         -13.7938   11.1060   -0.0000 N.1     1  LIG1       -0.1908
     42 C         -12.6853   10.7544    0.0002 C.1     1  LIG1        0.1007
@<TRIPOS>BOND
     1     8     2    1
     2     7     3    1
     3     2     3   ar
     4     2     1   ar
     5     3     4   ar
     6    10    11    3
     7     9     1    1
     8     1     6   ar
     9    11     4    1
    10     4     5   ar
    11     6     5   ar
    12     5    13    1
    13    18    14    1
    14    14    13   ar
    15    14    15   ar
    16    13    12   ar
    17    28    24    1
    18    20    21    3
    19    21    15    1
    20    15    16   ar
    21    30    31    3
    22    38    34    1
    23    41    42    3
    24    12    19    1
    25    12    17   ar
    26    31    25    1
    27    16    17   ar
    28    16    23    1
    29    24    23   ar
    30    24    25   ar
    31    23    22   ar
    32    25    26   ar
    33    42    35    1
    34    34    35   ar
    35    34    33   ar
    36    26    27   ar
    37    26    33    1
    38    22    29    1
    39    22    27   ar
    40    35    36   ar
    41    33    32   ar
    42    36    39    1
    43    36    37   ar
    44    32    37   ar
    45    32    40    1
