@<TRIPOS>MOLECULE
mol_data/opt/b3lyp/geoms/mol2/6ad6ad6ad-6ad.out
 42 45 0 0 0
SMALL
GASTEIGER

@<TRIPOS>ATOM
      1 C          -4.6854   -2.2256   -0.0004 C.ar    1  LIG1        0.0283
      2 C          -3.3101   -2.4651   -0.0005 C.ar    1  LIG1       -0.0423
      3 C          -2.4691   -1.3643   -0.0005 C.ar    1  LIG1       -0.0408
      4 C          -3.0144   -0.0677   -0.0004 C.ar    1  LIG1        0.0777
      5 C          -4.4276    0.0835   -0.0004 C.ar    1  LIG1        0.0898
      6 N          -5.2165   -1.0060   -0.0004 N.ar    1  LIG1       -0.2536
      7 H          -1.3906   -1.4808   -0.0006 H       1  LIG1        0.0631
      8 H          -2.9182   -3.4759   -0.0006 H       1  LIG1        0.0633
      9 H          -5.3921   -3.0528   -0.0004 H       1  LIG1        0.0830
     10 N          -1.2593    1.8431   -0.0004 N.1     1  LIG1       -0.1908
     11 C          -2.0735    1.0115   -0.0004 C.1     1  LIG1        0.1013
     12 C          -6.5832    1.3419   -0.0001 C.ar    1  LIG1        0.0375
     13 C          -5.1712    1.3753   -0.0003 C.ar    1  LIG1        0.0209
     14 C          -4.6017    2.6490   -0.0003 C.ar    1  LIG1       -0.0316
     15 C          -5.4125    3.7974   -0.0002 C.ar    1  LIG1        0.0783
     16 C          -6.8226    3.6546   -0.0000 C.ar    1  LIG1        0.0898
     17 N          -7.3557    2.4177    0.0000 N.ar    1  LIG1       -0.2530
     18 H          -3.5312    2.7982   -0.0005 H       1  LIG1        0.0638
     19 H          -7.0870    0.3820   -0.0000 H       1  LIG1        0.0836
     20 N          -4.1016    6.0376   -0.0004 N.1     1  LIG1       -0.1908
     21 C          -4.7174    5.0504   -0.0003 C.1     1  LIG1        0.1013
     22 C          -7.5459    6.1326    0.0002 C.ar    1  LIG1        0.0375
     23 C          -7.8266    4.7532    0.0001 C.ar    1  LIG1        0.0209
     24 C          -9.1845    4.4159    0.0002 C.ar    1  LIG1       -0.0316
     25 C         -10.1771    5.4019    0.0004 C.ar    1  LIG1        0.0783
     26 C          -9.7900    6.7697    0.0004 C.ar    1  LIG1        0.0898
     27 N          -8.4824    7.0761    0.0003 N.ar    1  LIG1       -0.2530
     28 H          -9.4657    3.3705    0.0002 H       1  LIG1        0.0638
     29 H          -6.5294    6.5059    0.0001 H       1  LIG1        0.0836
     30 N         -12.5941    4.4554    0.0006 N.1     1  LIG1       -0.1908
     31 C         -11.5270    4.9194    0.0005 C.1     1  LIG1        0.1013
     32 C         -12.1060    7.8922    0.0008 C.ar    1  LIG1        0.0368
     33 C         -10.6993    7.9516    0.0006 C.ar    1  LIG1        0.0209
     34 C         -10.1211    9.2312    0.0006 C.ar    1  LIG1       -0.0322
     35 C         -10.9444   10.3581    0.0007 C.ar    1  LIG1        0.0704
     36 C         -12.3386   10.1728    0.0009 C.ar    1  LIG1        0.0449
     37 N         -12.9032    8.9684    0.0009 N.ar    1  LIG1       -0.2613
     38 H          -9.0430    9.3277    0.0005 H       1  LIG1        0.0638
     39 H         -13.0049   11.0321    0.0010 H       1  LIG1        0.0842
     40 H         -12.6300    6.9448    0.0008 H       1  LIG1        0.0836
     41 N          -9.9544   12.7581    0.0007 N.1     1  LIG1       -0.1908
     42 C         -10.3904   11.6800    0.0007 C.1     1  LIG1        0.1007
@<TRIPOS>BOND
     1     8     2    1
     2     7     3    1
     3     2     3   ar
     4     2     1   ar
     5     3     4   ar
     6    18    14    1
     7    20    21    3
     8     1     9    1
     9     1     6   ar
    10     4    11    1
    11     4     5   ar
    12    11    10    3
    13     6     5   ar
    14     5    13    1
    15    21    15    1
    16    14    13   ar
    17    14    15   ar
    18    13    12   ar
    19    15    16   ar
    20    12    19    1
    21    12    17   ar
    22    16    17   ar
    23    16    23    1
    24    29    22    1
    25    23    22   ar
    26    23    24   ar
    27    22    27   ar
    28    28    24    1
    29    24    25   ar
    30    27    26   ar
    31    25    26   ar
    32    25    31    1
    33    26    33    1
    34    38    34    1
    35    31    30    3
    36    34    33   ar
    37    34    35   ar
    38    33    32   ar
    39    42    41    3
    40    42    35    1
    41    35    36   ar
    42    32    40    1
    43    32    37   ar
    44    36    37   ar
    45    36    39    1
