@<TRIPOS>MOLECULE
mol_data/opt/b3lyp/geoms/mol2/6ae6ae6ae-6ae-.out
 46 49 0 0 0
SMALL
GASTEIGER

@<TRIPOS>ATOM
      1 C          -4.7017   -2.1696   -0.0006 C.ar    1  LIG1        0.0283
      2 C          -3.3259   -2.4029   -0.0007 C.ar    1  LIG1       -0.0424
      3 C          -2.4915   -1.2977   -0.0007 C.ar    1  LIG1       -0.0428
      4 C          -3.0278    0.0058   -0.0005 C.ar    1  LIG1        0.0507
      5 C          -4.4464    0.1423   -0.0004 C.ar    1  LIG1        0.0878
      6 N          -5.2330   -0.9515   -0.0004 N.ar    1  LIG1       -0.2537
      7 H          -1.4126   -1.4121   -0.0008 H       1  LIG1        0.0631
      8 H          -2.9284   -3.4120   -0.0008 H       1  LIG1        0.0633
      9 H          -5.4065   -2.9990   -0.0006 H       1  LIG1        0.0830
     10 C          -2.0774    1.0729   -0.0005 C.1     1  LIG1       -0.0675
     11 C          -1.1799    1.8860   -0.0004 C.1     1  LIG1       -0.1138
     12 H          -0.4167    2.6300   -0.0003 H       1  LIG1        0.1232
     13 C          -6.6127    1.3927    0.0000 C.ar    1  LIG1        0.0375
     14 C          -5.2010    1.4269   -0.0003 C.ar    1  LIG1        0.0208
     15 C          -4.6368    2.7014   -0.0005 C.ar    1  LIG1       -0.0336
     16 C          -5.4353    3.8615   -0.0003 C.ar    1  LIG1        0.0513
     17 C          -6.8475    3.7088    0.0000 C.ar    1  LIG1        0.0878
     18 N          -7.3818    2.4702    0.0002 N.ar    1  LIG1       -0.2530
     19 H          -3.5657    2.8363   -0.0007 H       1  LIG1        0.0637
     20 H          -7.1173    0.4330    0.0001 H       1  LIG1        0.0836
     21 C          -4.7220    5.1009   -0.0006 C.1     1  LIG1       -0.0675
     22 C          -4.0147    6.0837   -0.0008 C.1     1  LIG1       -0.1138
     23 H          -3.4277    6.9733   -0.0012 H       1  LIG1        0.1232
     24 C          -7.5722    6.1815    0.0002 C.ar    1  LIG1        0.0375
     25 C          -7.8557    4.8039    0.0002 C.ar    1  LIG1        0.0208
     26 C          -9.2150    4.4737    0.0005 C.ar    1  LIG1       -0.0336
     27 C         -10.2163    5.4557    0.0007 C.ar    1  LIG1        0.0513
     28 C          -9.8148    6.8229    0.0006 C.ar    1  LIG1        0.0878
     29 N          -8.5049    7.1277    0.0004 N.ar    1  LIG1       -0.2530
     30 H          -9.4975    3.4289    0.0005 H       1  LIG1        0.0637
     31 H          -6.5516    6.5401    0.0001 H       1  LIG1        0.0836
     32 C         -11.5618    4.9693    0.0010 C.1     1  LIG1       -0.0675
     33 C         -12.6527    4.4439    0.0013 C.1     1  LIG1       -0.1138
     34 H         -13.6269    4.0119    0.0017 H       1  LIG1        0.1232
     35 C         -10.1406    9.2983    0.0010 C.ar    1  LIG1        0.0368
     36 C         -10.7185    8.0091    0.0007 C.ar    1  LIG1        0.0208
     37 C         -12.1168    7.9513    0.0005 C.ar    1  LIG1       -0.0342
     38 C         -12.8655    9.1387    0.0006 C.ar    1  LIG1        0.0434
     39 C         -12.1680   10.3581    0.0009 C.ar    1  LIG1        0.0430
     40 N         -10.8358   10.4380    0.0011 N.ar    1  LIG1       -0.2614
     41 H         -12.6396    7.0067    0.0002 H       1  LIG1        0.0637
     42 H         -12.7181   11.2964    0.0010 H       1  LIG1        0.0842
     43 H          -9.0603    9.3858    0.0011 H       1  LIG1        0.0836
     44 C         -14.2935    9.1149    0.0004 C.1     1  LIG1       -0.0681
     45 C         -15.5035    9.1045    0.0002 C.1     1  LIG1       -0.1139
     46 H         -16.5688    9.0973    0.0002 H       1  LIG1        0.1232
@<TRIPOS>BOND
     1    23    22    1
     2     8     2    1
     3    22    21    3
     4     7     3    1
     5    19    15    1
     6     2     3   ar
     7     2     1   ar
     8     3     4   ar
     9     9     1    1
    10     1     6   ar
    11    21    16    1
    12     4    10    1
    13     4     5   ar
    14    10    11    3
    15    15    16   ar
    16    15    14   ar
    17     6     5   ar
    18     5    14    1
    19    11    12    1
    20    16    17   ar
    21    14    13   ar
    22    17    18   ar
    23    17    25    1
    24    13    20    1
    25    13    18   ar
    26    31    24    1
    27    46    45    1
    28    24    25   ar
    29    24    29   ar
    30    25    26   ar
    31    41    37    1
    32    45    44    3
    33    29    28   ar
    34    44    38    1
    35    26    30    1
    36    26    27   ar
    37    37    38   ar
    38    37    36   ar
    39    28    27   ar
    40    28    36    1
    41    38    39   ar
    42    27    32    1
    43    36    35   ar
    44    39    42    1
    45    39    40   ar
    46    35    40   ar
    47    35    43    1
    48    32    33    3
    49    33    34    1
