@<TRIPOS>MOLECULE
mol_data/opt/b3lyp/geoms/mol2/6ae6ae-6ae6ae-.out
 46 49 0 0 0
SMALL
GASTEIGER

@<TRIPOS>ATOM
      1 C          -4.4883   -2.1868   -0.0003 C.ar    1  LIG1        0.0283
      2 C          -3.0977   -2.3017   -0.0005 C.ar    1  LIG1       -0.0424
      3 C          -2.3612   -1.1292   -0.0006 C.ar    1  LIG1       -0.0428
      4 C          -3.0067    0.1243   -0.0005 C.ar    1  LIG1        0.0507
      5 C          -4.4315    0.1391   -0.0003 C.ar    1  LIG1        0.0878
      6 N          -5.1210   -1.0183   -0.0003 N.ar    1  LIG1       -0.2537
      7 H          -1.2766   -1.1506   -0.0007 H       1  LIG1        0.0631
      8 H          -2.6153   -3.2732   -0.0005 H       1  LIG1        0.0633
      9 H          -5.1198   -3.0733   -0.0003 H       1  LIG1        0.0830
     10 C          -2.1493    1.2673   -0.0007 C.1     1  LIG1       -0.0675
     11 C          -1.3212    2.1509   -0.0008 C.1     1  LIG1       -0.1138
     12 H          -0.6233    2.9566   -0.0009 H       1  LIG1        0.1232
     13 C          -4.8422    2.6860   -0.0001 C.ar    1  LIG1        0.0375
     14 C          -5.2959    1.3550   -0.0002 C.ar    1  LIG1        0.0208
     15 C          -6.6855    1.1974   -0.0002 C.ar    1  LIG1       -0.0336
     16 C          -7.5569    2.2964   -0.0001 C.ar    1  LIG1        0.0513
     17 C          -6.9871    3.6018    0.0000 C.ar    1  LIG1        0.0878
     18 N          -5.6494    3.7416    0.0000 N.ar    1  LIG1       -0.2530
     19 H          -7.0976    0.1967   -0.0003 H       1  LIG1        0.0637
     20 H          -3.7850    2.9148   -0.0001 H       1  LIG1        0.0836
     21 C          -8.9527    1.9846   -0.0002 C.1     1  LIG1       -0.0675
     22 C         -10.1017    1.6029   -0.0002 C.1     1  LIG1       -0.1138
     23 H         -11.1237    1.3009   -0.0003 H       1  LIG1        0.1232
     24 C          -9.1324    5.0288    0.0003 C.ar    1  LIG1        0.0375
     25 C          -7.7331    4.8905    0.0002 C.ar    1  LIG1        0.0208
     26 C          -7.0145    6.0905    0.0002 C.ar    1  LIG1       -0.0336
     27 C          -7.6539    7.3389    0.0003 C.ar    1  LIG1        0.0513
     28 C          -9.0785    7.3615    0.0005 C.ar    1  LIG1        0.0878
     29 N          -9.7581    6.2012    0.0005 N.ar    1  LIG1       -0.2530
     30 H          -5.9331    6.0500    0.0001 H       1  LIG1        0.0637
     31 H          -9.7780    4.1606    0.0004 H       1  LIG1        0.0836
     32 C          -6.7885    8.4779    0.0003 C.1     1  LIG1       -0.0675
     33 C          -5.9606    9.3613    0.0002 C.1     1  LIG1       -0.1138
     34 H          -5.2617   10.1657    0.0002 H       1  LIG1        0.1232
     35 C          -9.4815    9.9019    0.0007 C.ar    1  LIG1        0.0368
     36 C          -9.9481    8.5748    0.0006 C.ar    1  LIG1        0.0208
     37 C         -11.3413    8.3992    0.0007 C.ar    1  LIG1       -0.0342
     38 C         -12.1903    9.5103    0.0008 C.ar    1  LIG1        0.0434
     39 C         -11.5958   10.7874    0.0009 C.ar    1  LIG1        0.0430
     40 N         -10.2789   10.9792    0.0009 N.ar    1  LIG1       -0.2614
     41 H         -11.7457    7.3954    0.0006 H       1  LIG1        0.0637
     42 H         -12.2236   11.6757    0.0011 H       1  LIG1        0.0842
     43 H          -8.4213   10.1144    0.0007 H       1  LIG1        0.0836
     44 C         -13.6114    9.3670    0.0009 C.1     1  LIG1       -0.0681
     45 C         -14.8163    9.2579    0.0009 C.1     1  LIG1       -0.1139
     46 H         -15.8771    9.1593    0.0009 H       1  LIG1        0.1232
@<TRIPOS>BOND
     1    12    11    1
     2    11    10    3
     3     7     3    1
     4    10     4    1
     5     3     4   ar
     6     3     2   ar
     7     8     2    1
     8     4     5   ar
     9     2     1   ar
    10     5     6   ar
    11     5    14    1
    12     1     6   ar
    13     1     9    1
    14    19    15    1
    15    23    22    1
    16    15    14   ar
    17    15    16   ar
    18    14    13   ar
    19    22    21    3
    20    21    16    1
    21    16    17   ar
    22    13    20    1
    23    13    18   ar
    24    17    18   ar
    25    17    25    1
    26    30    26    1
    27    34    33    1
    28    25    26   ar
    29    25    24   ar
    30    26    27   ar
    31    33    32    3
    32    32    27    1
    33    27    28   ar
    34    24    31    1
    35    24    29   ar
    36    28    29   ar
    37    28    36    1
    38    41    37    1
    39    36    37   ar
    40    36    35   ar
    41    37    38   ar
    42    43    35    1
    43    35    40   ar
    44    38    44    1
    45    38    39   ar
    46    40    39   ar
    47    44    45    3
    48    46    45    1
    49    39    42    1
