@<TRIPOS>MOLECULE
mol_data/opt/b3lyp/geoms/mol2/6ae6ae-4ae6ae.out
 47 50 0 0 0
SMALL
GASTEIGER

@<TRIPOS>ATOM
      1 C          -4.3428   -2.1161   -0.8556 C.ar    1  LIG1        0.0283
      2 C          -2.9743   -2.2149   -0.6014 C.ar    1  LIG1       -0.0424
      3 C          -2.3222   -1.0916   -0.1144 C.ar    1  LIG1       -0.0428
      4 C          -3.0359    0.1037    0.0902 C.ar    1  LIG1        0.0507
      5 C          -4.4188    0.1135   -0.2405 C.ar    1  LIG1        0.0878
      6 N          -5.0403   -0.9930   -0.6845 N.ar    1  LIG1       -0.2537
      7 H          -1.2650   -1.1184    0.1280 H       1  LIG1        0.0631
      8 H          -2.4436   -3.1463   -0.7676 H       1  LIG1        0.0633
      9 H          -4.9036   -2.9764   -1.2157 H       1  LIG1        0.0830
     10 C          -2.3441    1.2147    0.6626 C.1     1  LIG1       -0.0675
     11 C          -1.6987    2.1070    1.1647 C.1     1  LIG1       -0.1138
     12 H          -1.1545    2.9101    1.6060 H       1  LIG1        0.1232
     13 C          -4.8665    2.6211   -0.3478 C.ar    1  LIG1        0.0375
     14 C          -5.2943    1.3063   -0.1075 C.ar    1  LIG1        0.0208
     15 C          -6.6401    1.1407    0.2246 C.ar    1  LIG1       -0.0336
     16 C          -7.4979    2.2453    0.3271 C.ar    1  LIG1        0.0512
     17 C          -6.9625    3.5327    0.0442 C.ar    1  LIG1        0.0864
     18 N          -5.6661    3.6832   -0.2774 N.ar    1  LIG1       -0.2531
     19 H          -7.0239    0.1453    0.4139 H       1  LIG1        0.0637
     20 H          -3.8387    2.8238   -0.6306 H       1  LIG1        0.0836
     21 C          -8.8403    2.0099    0.7577 C.1     1  LIG1       -0.0675
     22 C          -9.9550    1.7359    1.1413 C.1     1  LIG1       -0.1138
     23 H         -10.9434    1.5240    1.4785 H       1  LIG1        0.1232
     24 C          -7.0935    5.9860    0.4535 C.ar    1  LIG1       -0.0519
     25 C          -7.7860    7.1884    0.4947 C.ar    1  LIG1       -0.0522
     26 C          -7.7459    4.7959    0.0902 C.ar    1  LIG1        0.0027
     27 C          -9.1463    7.2707    0.1610 C.ar    1  LIG1       -0.0010
     28 H          -7.2705    8.0893    0.8134 H       1  LIG1        0.0624
     29 C          -9.0969    4.8655   -0.2629 C.ar    1  LIG1       -0.0365
     30 C          -9.8051    6.0801   -0.2385 C.ar    1  LIG1        0.0330
     31 H          -9.6232    3.9787   -0.5894 H       1  LIG1        0.0636
     32 H          -6.0403    5.9485    0.7062 H       1  LIG1        0.0624
     33 C         -11.1698    6.0703   -0.6704 C.1     1  LIG1       -0.0690
     34 C         -12.3171    6.0153   -1.0517 C.1     1  LIG1       -0.1139
     35 H         -13.3284    5.9872   -1.3856 H       1  LIG1        0.1232
     36 C         -11.0674    8.7500    0.8766 C.ar    1  LIG1        0.0354
     37 C          -9.8322    8.5853    0.2251 C.ar    1  LIG1        0.0025
     38 C          -9.2451    9.7285   -0.3251 C.ar    1  LIG1       -0.0357
     39 C          -9.8961   10.9672   -0.2201 C.ar    1  LIG1        0.0433
     40 C         -11.1333   10.9972    0.4501 C.ar    1  LIG1        0.0430
     41 N         -11.7044    9.9196    0.9894 N.ar    1  LIG1       -0.2614
     42 H          -8.2966    9.6620   -0.8482 H       1  LIG1        0.0637
     43 H         -11.6695   11.9385    0.5470 H       1  LIG1        0.0842
     44 H         -11.5531    7.8945    1.3370 H       1  LIG1        0.0836
     45 C          -9.3351   12.1569   -0.7745 C.1     1  LIG1       -0.0681
     46 C          -8.8643   13.1689   -1.2416 C.1     1  LIG1       -0.1139
     47 H          -8.4511   14.0601   -1.6542 H       1  LIG1        0.1232
@<TRIPOS>BOND
     1    47    46    1
     2    35    34    1
     3    46    45    3
     4     9     1    1
     5    34    33    3
     6     1     6   ar
     7     1     2   ar
     8    42    38    1
     9    45    39    1
    10     8     2    1
    11     6     5   ar
    12    33    30    1
    13    20    13    1
    14     2     3   ar
    15    31    29    1
    16    13    18   ar
    17    13    14   ar
    18    38    39   ar
    19    38    37   ar
    20    18    17   ar
    21    29    30   ar
    22    29    26   ar
    23     5    14    1
    24     5     4   ar
    25    30    27   ar
    26    39    40   ar
    27     3     4   ar
    28     3     7    1
    29    14    15   ar
    30    17    26    1
    31    17    16   ar
    32    26    24   ar
    33     4    10    1
    34    27    37    1
    35    27    25   ar
    36    15    16   ar
    37    15    19    1
    38    37    36   ar
    39    16    21    1
    40    40    43    1
    41    40    41   ar
    42    24    25   ar
    43    24    32    1
    44    25    28    1
    45    10    11    3
    46    21    22    3
    47    36    41   ar
    48    36    44    1
    49    22    23    1
    50    11    12    1
