@<TRIPOS>MOLECULE
mol_data/opt/b3lyp/geoms/mol2/6ae6ae.out
 24 25 0 0 0
SMALL
GASTEIGER

@<TRIPOS>ATOM
      1 C          -4.5872   -2.0811   -0.0002 C.ar    1  LIG1        0.0283
      2 C          -3.1952   -2.1753   -0.0003 C.ar    1  LIG1       -0.0424
      3 C          -2.4773   -0.9913   -0.0003 C.ar    1  LIG1       -0.0428
      4 C          -3.1424    0.2518   -0.0002 C.ar    1  LIG1        0.0507
      5 C          -4.5679    0.2460   -0.0002 C.ar    1  LIG1        0.0878
      6 N          -5.2380   -0.9225   -0.0002 N.ar    1  LIG1       -0.2537
      7 H          -1.3924   -0.9957   -0.0003 H       1  LIG1        0.0631
      8 H          -2.6979   -3.1392   -0.0003 H       1  LIG1        0.0633
      9 H          -5.2053   -2.9771   -0.0002 H       1  LIG1        0.0830
     10 C          -2.2993    1.4060   -0.0002 C.1     1  LIG1       -0.0675
     11 C          -1.4814    2.2991   -0.0001 C.1     1  LIG1       -0.1138
     12 H          -0.7931    3.1129    0.0002 H       1  LIG1        0.1232
     13 C          -6.8500    1.2632    0.0002 C.ar    1  LIG1        0.0368
     14 C          -5.4502    1.4514   -0.0002 C.ar    1  LIG1        0.0208
     15 C          -4.9985    2.7755   -0.0005 C.ar    1  LIG1       -0.0342
     16 C          -5.9243    3.8309   -0.0005 C.ar    1  LIG1        0.0434
     17 C          -7.2914    3.5082   -0.0001 C.ar    1  LIG1        0.0430
     18 N          -7.7455    2.2536    0.0002 N.ar    1  LIG1       -0.2614
     19 H          -3.9449    3.0106   -0.0008 H       1  LIG1        0.0637
     20 H          -8.0351    4.3019   -0.0001 H       1  LIG1        0.0842
     21 H          -7.2422    0.2529    0.0004 H       1  LIG1        0.0836
     22 C          -5.4952    5.1930   -0.0008 C.1     1  LIG1       -0.0681
     23 C          -5.1406    6.3499   -0.0011 C.1     1  LIG1       -0.1139
     24 H          -4.8317    7.3695   -0.0013 H       1  LIG1        0.1232
@<TRIPOS>BOND
     1    24    23    1
     2    23    22    3
     3    22    16    1
     4    19    15    1
     5    15    16   ar
     6    15    14   ar
     7    16    17   ar
     8     8     2    1
     9     7     3    1
    10     2     3   ar
    11     2     1   ar
    12     3     4   ar
    13     1     9    1
    14     1     6   ar
    15     4     5   ar
    16     4    10    1
    17     5     6   ar
    18     5    14    1
    19    14    13   ar
    20    10    11    3
    21    17    20    1
    22    17    18   ar
    23    11    12    1
    24    13    18   ar
    25    13    21    1
