@<TRIPOS>MOLECULE
mol_data/opt/b3lyp/geoms/mol2/6ae6ae-.out
 24 25 0 0 0
SMALL
GASTEIGER

@<TRIPOS>ATOM
      1 C          -4.5861   -1.9968    0.0001 C.ar    1  LIG1        0.0283
      2 C          -3.1947   -2.0963   -0.0000 C.ar    1  LIG1       -0.0424
      3 C          -2.4726   -0.9149   -0.0002 C.ar    1  LIG1       -0.0428
      4 C          -3.1323    0.3312   -0.0003 C.ar    1  LIG1        0.0507
      5 C          -4.5575    0.3309   -0.0002 C.ar    1  LIG1        0.0878
      6 N          -5.2319   -0.8352   -0.0000 N.ar    1  LIG1       -0.2537
      7 H          -1.3878   -0.9233   -0.0003 H       1  LIG1        0.0631
      8 H          -2.7010   -3.0621    0.0001 H       1  LIG1        0.0633
      9 H          -5.2080   -2.8902    0.0002 H       1  LIG1        0.0830
     10 C          -2.2835    1.4810   -0.0005 C.1     1  LIG1       -0.0675
     11 C          -1.4592    2.3680   -0.0008 C.1     1  LIG1       -0.1138
     12 H          -0.7686    3.1798   -0.0010 H       1  LIG1        0.1232
     13 C          -4.9868    2.8693   -0.0000 C.ar    1  LIG1        0.0368
     14 C          -5.4401    1.5381   -0.0002 C.ar    1  LIG1        0.0208
     15 C          -6.8312    1.3491   -0.0004 C.ar    1  LIG1       -0.0342
     16 C          -7.6911    2.4520   -0.0004 C.ar    1  LIG1        0.0434
     17 C          -7.1092    3.7347   -0.0003 C.ar    1  LIG1        0.0430
     18 N          -5.7943    3.9390   -0.0001 N.ar    1  LIG1       -0.2614
     19 H          -7.2275    0.3422   -0.0005 H       1  LIG1        0.0637
     20 H          -7.7455    4.6170   -0.0003 H       1  LIG1        0.0842
     21 H          -3.9291    3.0934    0.0002 H       1  LIG1        0.0836
     22 C          -9.1106    2.2947   -0.0007 C.1     1  LIG1       -0.0681
     23 C         -10.3144    2.1740   -0.0008 C.1     1  LIG1       -0.1139
     24 H         -11.3742    2.0652   -0.0007 H       1  LIG1        0.1232
@<TRIPOS>BOND
     1    12    11    1
     2    23    24    1
     3    23    22    3
     4    11    10    3
     5    22    16    1
     6    10     4    1
     7    19    15    1
     8    16    15   ar
     9    16    17   ar
    10    15    14   ar
    11    20    17    1
    12     4     3   ar
    13     4     5   ar
    14    17    18   ar
    15     7     3    1
    16    14     5    1
    17    14    13   ar
    18     3     2   ar
    19     5     6   ar
    20    18    13   ar
    21    13    21    1
    22     6     1   ar
    23     2     1   ar
    24     2     8    1
    25     1     9    1
