@<TRIPOS>MOLECULE
mol_data/opt/b3lyp/geoms/mol2/6ae6ae6ae.out
 35 37 0 0 0
SMALL
GASTEIGER

@<TRIPOS>ATOM
      1 C          -4.6774   -2.1438   -0.0005 C.ar    1  LIG1        0.0283
      2 C          -3.2952   -2.3355   -0.0006 C.ar    1  LIG1       -0.0424
      3 C          -2.4946   -1.2055   -0.0005 C.ar    1  LIG1       -0.0428
      4 C          -3.0701    0.0812   -0.0003 C.ar    1  LIG1        0.0507
      5 C          -4.4923    0.1750   -0.0003 C.ar    1  LIG1        0.0878
      6 N          -5.2451   -0.9423   -0.0004 N.ar    1  LIG1       -0.2537
      7 H          -1.4128   -1.2872   -0.0005 H       1  LIG1        0.0631
      8 H          -2.8674   -3.3322   -0.0007 H       1  LIG1        0.0633
      9 H          -5.3568   -2.9941   -0.0006 H       1  LIG1        0.0830
     10 C          -2.1525    1.1766   -0.0002 C.1     1  LIG1       -0.0675
     11 C          -1.2798    2.0163   -0.0001 C.1     1  LIG1       -0.1138
     12 H          -0.5397    2.7832    0.0000 H       1  LIG1        0.1232
     13 C          -6.6956    1.3582    0.0001 C.ar    1  LIG1        0.0375
     14 C          -5.2860    1.4359   -0.0002 C.ar    1  LIG1        0.0208
     15 C          -4.7619    2.7273   -0.0003 C.ar    1  LIG1       -0.0336
     16 C          -5.5966    3.8618   -0.0002 C.ar    1  LIG1        0.0513
     17 C          -7.0040    3.6662    0.0000 C.ar    1  LIG1        0.0878
     18 N          -7.4979    2.4113    0.0002 N.ar    1  LIG1       -0.2530
     19 H          -3.6955    2.8955   -0.0005 H       1  LIG1        0.0637
     20 H          -7.1708    0.3835    0.0002 H       1  LIG1        0.0836
     21 C          -4.9191    5.1215   -0.0002 C.1     1  LIG1       -0.0675
     22 C          -4.2392    6.1237   -0.0003 C.1     1  LIG1       -0.1138
     23 H          -3.6754    7.0280   -0.0003 H       1  LIG1        0.1232
     24 C          -9.4055    4.3467    0.0007 C.ar    1  LIG1        0.0368
     25 C          -8.0463    4.7322    0.0001 C.ar    1  LIG1        0.0208
     26 C          -7.7868    6.1075   -0.0003 C.ar    1  LIG1       -0.0342
     27 C          -8.8530    7.0203   -0.0002 C.ar    1  LIG1        0.0434
     28 C         -10.1606    6.5064    0.0004 C.ar    1  LIG1        0.0430
     29 N         -10.4324    5.2000    0.0008 N.ar    1  LIG1       -0.2614
     30 H          -6.7767    6.4885   -0.0008 H       1  LIG1        0.0637
     31 H         -11.0094    7.1865    0.0005 H       1  LIG1        0.0842
     32 H          -9.6488    3.2905    0.0010 H       1  LIG1        0.0836
     33 C          -8.6224    8.4297   -0.0006 C.1     1  LIG1       -0.0681
     34 C          -8.4365    9.6254   -0.0010 C.1     1  LIG1       -0.1139
     35 H          -8.2758   10.6785   -0.0013 H       1  LIG1        0.1232
@<TRIPOS>BOND
     1    35    34    1
     2    34    33    3
     3    30    26    1
     4     8     2    1
     5    33    27    1
     6     9     1    1
     7     2     1   ar
     8     2     3   ar
     9     1     6   ar
    10     7     3    1
    11     3     4   ar
    12    19    15    1
    13     6     5   ar
    14     4     5   ar
    15     4    10    1
    16    23    22    1
    17     5    14    1
    18    26    27   ar
    19    26    25   ar
    20    22    21    3
    21    15    14   ar
    22    15    16   ar
    23    21    16    1
    24    10    11    3
    25    14    13   ar
    26    16    17   ar
    27    27    28   ar
    28    11    12    1
    29    17    25    1
    30    17    18   ar
    31    13    18   ar
    32    13    20    1
    33    25    24   ar
    34    28    31    1
    35    28    29   ar
    36    24    29   ar
    37    24    32    1
