@<TRIPOS>MOLECULE
mol_data/opt/b3lyp/geoms/mol2/6ae6ae6ae6ae.out
 46 49 0 0 0
SMALL
GASTEIGER

@<TRIPOS>ATOM
      1 C          -4.8510   -2.2414   -0.0007 C.ar    1  LIG1        0.0283
      2 C          -3.4851   -2.5271   -0.0009 C.ar    1  LIG1       -0.0424
      3 C          -2.6089   -1.4546   -0.0008 C.ar    1  LIG1       -0.0428
      4 C          -3.0950   -0.1316   -0.0006 C.ar    1  LIG1        0.0507
      5 C          -4.5074    0.0591   -0.0005 C.ar    1  LIG1        0.0878
      6 N          -5.3352   -1.0038   -0.0005 N.ar    1  LIG1       -0.2537
      7 H          -1.5352   -1.6103   -0.0009 H       1  LIG1        0.0631
      8 H          -3.1265   -3.5507   -0.0011 H       1  LIG1        0.0633
      9 H          -5.5870   -3.0431   -0.0008 H       1  LIG1        0.0830
     10 C          -2.1042    0.8980   -0.0005 C.1     1  LIG1       -0.0675
     11 C          -1.1759    1.6757   -0.0005 C.1     1  LIG1       -0.1138
     12 H          -0.3839    2.3890   -0.0014 H       1  LIG1        0.1232
     13 C          -6.6244    1.3910    0.0000 C.ar    1  LIG1        0.0375
     14 C          -5.2123    1.3718   -0.0003 C.ar    1  LIG1        0.0208
     15 C          -4.5996    2.6237   -0.0003 C.ar    1  LIG1       -0.0336
     16 C          -5.3538    3.8128   -0.0001 C.ar    1  LIG1        0.0513
     17 C          -6.7710    3.7139    0.0001 C.ar    1  LIG1        0.0878
     18 N          -7.3525    2.4968    0.0002 N.ar    1  LIG1       -0.2530
     19 H          -3.5240    2.7172   -0.0005 H       1  LIG1        0.0637
     20 H          -7.1651    0.4512    0.0001 H       1  LIG1        0.0836
     21 C          -4.5953    5.0250   -0.0002 C.1     1  LIG1       -0.0675
     22 C          -3.8543    5.9829   -0.0002 C.1     1  LIG1       -0.1138
     23 H          -3.2336    6.8491    0.0001 H       1  LIG1        0.1232
     24 C          -9.1194    4.5681    0.0008 C.ar    1  LIG1        0.0375
     25 C          -7.7347    4.8461    0.0004 C.ar    1  LIG1        0.0208
     26 C          -7.3996    6.1995    0.0002 C.ar    1  LIG1       -0.0336
     27 C          -8.3873    7.2030    0.0004 C.ar    1  LIG1        0.0513
     28 C          -9.7528    6.8086    0.0008 C.ar    1  LIG1        0.0878
     29 N         -10.0634    5.4963    0.0010 N.ar    1  LIG1       -0.2530
     30 H          -6.3676    6.5168   -0.0002 H       1  LIG1        0.0637
     31 H          -9.4499    3.5352    0.0011 H       1  LIG1        0.0836
     32 C          -7.8962    8.5465    0.0002 C.1     1  LIG1       -0.0675
     33 C          -7.3656    9.6351    0.0001 C.1     1  LIG1       -0.1138
     34 H          -6.9365   10.6105    0.0007 H       1  LIG1        0.1232
     35 C         -12.2267    7.1414    0.0019 C.ar    1  LIG1        0.0368
     36 C         -10.9357    7.7157    0.0010 C.ar    1  LIG1        0.0208
     37 C         -10.8740    9.1139    0.0004 C.ar    1  LIG1       -0.0342
     38 C         -12.0589    9.8662    0.0007 C.ar    1  LIG1        0.0434
     39 C         -13.2804    9.1723    0.0016 C.ar    1  LIG1        0.0430
     40 N         -13.3643    7.8405    0.0021 N.ar    1  LIG1       -0.2614
     41 H          -9.9282    9.6344   -0.0003 H       1  LIG1        0.0637
     42 H         -14.2170    9.7253    0.0018 H       1  LIG1        0.0842
     43 H         -12.3181    6.0614    0.0023 H       1  LIG1        0.0836
     44 C         -12.0306   11.2941    0.0001 C.1     1  LIG1       -0.0681
     45 C         -12.0160   12.5041   -0.0005 C.1     1  LIG1       -0.1139
     46 H         -12.0062   13.5693   -0.0016 H       1  LIG1        0.1232
@<TRIPOS>BOND
     1    46    45    1
     2    12    11    1
     3     8     2    1
     4     7     3    1
     5     2     3   ar
     6     2     1   ar
     7     3     4   ar
     8     9     1    1
     9     1     6   ar
    10     4    10    1
    11     4     5   ar
    12     6     5   ar
    13    19    15    1
    14    11    10    3
    15     5    14    1
    16    45    44    3
    17    15    14   ar
    18    15    16   ar
    19    14    13   ar
    20    41    37    1
    21    22    21    3
    22    22    23    1
    23    30    26    1
    24    21    16    1
    25    16    17   ar
    26    13    20    1
    27    13    18   ar
    28    33    32    3
    29    33    34    1
    30    44    38    1
    31    17    18   ar
    32    17    25    1
    33    26    25   ar
    34    26    27   ar
    35    32    27    1
    36    25    24   ar
    37    27    28   ar
    38    37    38   ar
    39    37    36   ar
    40    38    39   ar
    41    28    36    1
    42    28    29   ar
    43    24    29   ar
    44    24    31    1
    45    36    35   ar
    46    39    42    1
    47    39    40   ar
    48    35    40   ar
    49    35    43    1
