@<TRIPOS>MOLECULE
mol_data/opt/b3lyp/geoms/mol2/6ae6ae-6ae-6ae.out
 46 49 0 0 0
SMALL
GASTEIGER

@<TRIPOS>ATOM
      1 C          -4.3522   -2.1330   -0.0003 C.ar    1  LIG1        0.0283
      2 C          -2.9580   -2.1899   -0.0005 C.ar    1  LIG1       -0.0424
      3 C          -2.2710   -0.9876   -0.0005 C.ar    1  LIG1       -0.0428
      4 C          -2.9681    0.2378   -0.0004 C.ar    1  LIG1        0.0507
      5 C          -4.3923    0.1931   -0.0003 C.ar    1  LIG1        0.0878
      6 N          -5.0332   -0.9919   -0.0002 N.ar    1  LIG1       -0.2537
      7 H          -1.1864   -0.9638   -0.0006 H       1  LIG1        0.0631
      8 H          -2.4355   -3.1403   -0.0005 H       1  LIG1        0.0633
      9 H          -4.9462   -3.0450   -0.0003 H       1  LIG1        0.0830
     10 C          -2.1591    1.4156   -0.0005 C.1     1  LIG1       -0.0675
     11 C          -1.3687    2.3330   -0.0007 C.1     1  LIG1       -0.1138
     12 H          -0.7054    3.1674   -0.0012 H       1  LIG1        0.1232
     13 C          -4.9068    2.7207    0.0001 C.ar    1  LIG1        0.0375
     14 C          -5.3061    1.3724   -0.0001 C.ar    1  LIG1        0.0208
     15 C          -6.6882    1.1579   -0.0002 C.ar    1  LIG1       -0.0336
     16 C          -7.6031    2.2207   -0.0001 C.ar    1  LIG1        0.0513
     17 C          -7.0865    3.5484    0.0001 C.ar    1  LIG1        0.0878
     18 N          -5.7558    3.7430    0.0002 N.ar    1  LIG1       -0.2530
     19 H          -7.0587    0.1411   -0.0003 H       1  LIG1        0.0637
     20 H          -3.8597    2.9920    0.0002 H       1  LIG1        0.0836
     21 C          -8.9858    1.8555   -0.0001 C.1     1  LIG1       -0.0675
     22 C         -10.1207    1.4335   -0.0002 C.1     1  LIG1       -0.1138
     23 H         -11.1305    1.0927   -0.0005 H       1  LIG1        0.1232
     24 C          -7.2090    6.0442    0.0006 C.ar    1  LIG1        0.0375
     25 C          -7.8837    4.8040    0.0002 C.ar    1  LIG1        0.0208
     26 C          -9.2756    4.8843   -0.0001 C.ar    1  LIG1       -0.0336
     27 C          -9.9429    6.1246    0.0000 C.ar    1  LIG1        0.0513
     28 C          -9.1626    7.3120    0.0004 C.ar    1  LIG1        0.0878
     29 N          -7.8169    7.2202    0.0007 N.ar    1  LIG1       -0.2530
     30 H          -9.8837    3.9920   -0.0004 H       1  LIG1        0.0637
     31 H          -6.1246    6.0543    0.0008 H       1  LIG1        0.0836
     32 C         -11.3712    6.0520   -0.0004 C.1     1  LIG1       -0.0675
     33 C         -12.5675    5.8648   -0.0007 C.1     1  LIG1       -0.1138
     34 H         -13.6264    5.7449   -0.0010 H       1  LIG1        0.1232
     35 C         -11.0326    9.0788    0.0007 C.ar    1  LIG1        0.0368
     36 C          -9.6738    8.7141    0.0006 C.ar    1  LIG1        0.0208
     37 C          -8.7419    9.7646    0.0009 C.ar    1  LIG1       -0.0342
     38 C          -9.1795   11.0928    0.0011 C.ar    1  LIG1        0.0434
     39 C         -10.5690   11.3235    0.0010 C.ar    1  LIG1        0.0430
     40 N         -11.4712   10.3452    0.0008 N.ar    1  LIG1       -0.2614
     41 H          -7.6852    9.5314    0.0009 H       1  LIG1        0.0637
     42 H         -10.9475   12.3433    0.0012 H       1  LIG1        0.0842
     43 H         -11.8068    8.3241    0.0005 H       1  LIG1        0.0836
     44 C          -8.2589   12.1848    0.0013 C.1     1  LIG1       -0.0681
     45 C          -7.4892   13.1183    0.0015 C.1     1  LIG1       -0.1139
     46 H          -6.8097   13.9388    0.0014 H       1  LIG1        0.1232
@<TRIPOS>BOND
     1    12    11    1
     2    34    33    1
     3    33    32    3
     4    11    10    3
     5     7     3    1
     6    10     4    1
     7     8     2    1
     8     3     2   ar
     9     3     4   ar
    10    23    22    1
    11     2     1   ar
    12    30    26    1
    13     4     5   ar
    14    32    27    1
    15    19    15    1
    16     1     9    1
    17     1     6   ar
    18     5     6   ar
    19     5    14    1
    20    15    14   ar
    21    15    16   ar
    22    22    21    3
    23    14    13   ar
    24    21    16    1
    25    26    27   ar
    26    26    25   ar
    27    16    17   ar
    28    27    28   ar
    29    13    18   ar
    30    13    20    1
    31    17    18   ar
    32    17    25    1
    33    25    24   ar
    34    28    36    1
    35    28    29   ar
    36    43    35    1
    37    24    29   ar
    38    24    31    1
    39    36    35   ar
    40    36    37   ar
    41    35    40   ar
    42    40    39   ar
    43    37    41    1
    44    37    38   ar
    45    39    38   ar
    46    39    42    1
    47    38    44    1
    48    44    45    3
    49    46    45    1
