@<TRIPOS>MOLECULE
mol_data/opt/b3lyp/geoms/mol2/6ae6ae-6ae-6ae-.out
 46 49 0 0 0
SMALL
GASTEIGER

@<TRIPOS>ATOM
      1 C          -4.3081   -2.1809   -0.0006 C.ar    1  LIG1        0.0283
      2 C          -2.9140   -2.2415   -0.0009 C.ar    1  LIG1       -0.0424
      3 C          -2.2238   -1.0411   -0.0010 C.ar    1  LIG1       -0.0428
      4 C          -2.9176    0.1862   -0.0008 C.ar    1  LIG1        0.0507
      5 C          -4.3419    0.1455   -0.0005 C.ar    1  LIG1        0.0878
      6 N          -4.9859   -1.0379   -0.0004 N.ar    1  LIG1       -0.2537
      7 H          -1.1392   -1.0202   -0.0012 H       1  LIG1        0.0631
      8 H          -2.3941   -3.1934   -0.0011 H       1  LIG1        0.0633
      9 H          -4.9046   -3.0913   -0.0005 H       1  LIG1        0.0830
     10 C          -2.1054    1.3617   -0.0010 C.1     1  LIG1       -0.0675
     11 C          -1.3130    2.2773   -0.0012 C.1     1  LIG1       -0.1138
     12 H          -0.6480    3.1104   -0.0016 H       1  LIG1        0.1232
     13 C          -4.8514    2.6746   -0.0001 C.ar    1  LIG1        0.0375
     14 C          -5.2529    1.3269   -0.0002 C.ar    1  LIG1        0.0208
     15 C          -6.6355    1.1148   -0.0001 C.ar    1  LIG1       -0.0336
     16 C          -7.5483    2.1791    0.0002 C.ar    1  LIG1        0.0513
     17 C          -7.0297    3.5059    0.0003 C.ar    1  LIG1        0.0878
     18 N          -5.6987    3.6985    0.0002 N.ar    1  LIG1       -0.2530
     19 H          -7.0081    0.0988   -0.0001 H       1  LIG1        0.0637
     20 H          -3.8038    2.9444   -0.0001 H       1  LIG1        0.0836
     21 C          -8.9315    1.8150    0.0004 C.1     1  LIG1       -0.0675
     22 C         -10.0663    1.3926    0.0005 C.1     1  LIG1       -0.1138
     23 H         -11.0759    1.0515    0.0005 H       1  LIG1        0.1232
     24 C          -7.1513    6.0027    0.0009 C.ar    1  LIG1        0.0375
     25 C          -7.8259    4.7620    0.0005 C.ar    1  LIG1        0.0208
     26 C          -9.2178    4.8416    0.0002 C.ar    1  LIG1       -0.0336
     27 C          -9.8846    6.0820    0.0004 C.ar    1  LIG1        0.0513
     28 C          -9.1045    7.2698    0.0008 C.ar    1  LIG1        0.0878
     29 N          -7.7588    7.1789    0.0011 N.ar    1  LIG1       -0.2530
     30 H          -9.8255    3.9491   -0.0001 H       1  LIG1        0.0637
     31 H          -6.0670    6.0130    0.0011 H       1  LIG1        0.0836
     32 C         -11.3132    6.0097    0.0003 C.1     1  LIG1       -0.0675
     33 C         -12.5099    5.8238    0.0001 C.1     1  LIG1       -0.1138
     34 H         -13.5684    5.7006   -0.0009 H       1  LIG1        0.1232
     35 C          -8.6922    9.7319    0.0020 C.ar    1  LIG1        0.0368
     36 C          -9.6218    8.6678    0.0010 C.ar    1  LIG1        0.0208
     37 C         -10.9759    9.0215    0.0003 C.ar    1  LIG1       -0.0342
     38 C         -11.3450   10.3757    0.0005 C.ar    1  LIG1        0.0434
     39 C         -10.3215   11.3381    0.0016 C.ar    1  LIG1        0.0430
     40 N          -9.0243   11.0251    0.0023 N.ar    1  LIG1       -0.2614
     41 H         -11.7524    8.2715   -0.0005 H       1  LIG1        0.0637
     42 H         -10.5735   12.3961    0.0018 H       1  LIG1        0.0842
     43 H          -7.6334    9.5003    0.0026 H       1  LIG1        0.0836
     44 C         -12.7177   10.7699   -0.0003 C.1     1  LIG1       -0.0681
     45 C         -13.8781   11.1129   -0.0009 C.1     1  LIG1       -0.1139
     46 H         -14.8990   11.4176   -0.0010 H       1  LIG1        0.1232
@<TRIPOS>BOND
     1    12    11    1
     2     7     3    1
     3    11    10    3
     4     8     2    1
     5    46    45    1
     6     3     2   ar
     7     3     4   ar
     8    10     4    1
     9    34    33    1
    10     2     1   ar
    11    45    44    3
    12     4     5   ar
    13     1     9    1
    14     1     6   ar
    15    41    37    1
    16     5     6   ar
    17     5    14    1
    18    44    38    1
    19    14    15   ar
    20    14    13   ar
    21    19    15    1
    22    20    13    1
    23    30    26    1
    24    15    16   ar
    25    13    18   ar
    26    33    32    3
    27    18    17   ar
    28    16    17   ar
    29    16    21    1
    30    26    27   ar
    31    26    25   ar
    32    17    25    1
    33    32    27    1
    34    37    38   ar
    35    37    36   ar
    36    21    22    3
    37    27    28   ar
    38    23    22    1
    39    25    24   ar
    40    38    39   ar
    41    28    36    1
    42    28    29   ar
    43    24    29   ar
    44    24    31    1
    45    36    35   ar
    46    39    42    1
    47    39    40   ar
    48    35    40   ar
    49    35    43    1
