@<TRIPOS>MOLECULE
mol_data/opt/b3lyp/geoms/mol2/6ae6ae6ae-6ae.out
 46 49 0 0 0
SMALL
GASTEIGER

@<TRIPOS>ATOM
      1 C          -4.7325   -2.1803   -0.0006 C.ar    1  LIG1        0.0283
      2 C          -3.3568   -2.4144   -0.0006 C.ar    1  LIG1       -0.0424
      3 C          -2.5214   -1.3099   -0.0005 C.ar    1  LIG1       -0.0428
      4 C          -3.0569   -0.0061   -0.0004 C.ar    1  LIG1        0.0507
      5 C          -4.4754    0.1314   -0.0004 C.ar    1  LIG1        0.0878
      6 N          -5.2629   -0.9618   -0.0005 N.ar    1  LIG1       -0.2537
      7 H          -1.4426   -1.4252   -0.0005 H       1  LIG1        0.0631
      8 H          -2.9601   -3.4239   -0.0007 H       1  LIG1        0.0633
      9 H          -5.4377   -3.0092   -0.0007 H       1  LIG1        0.0830
     10 C          -2.1059    1.0604   -0.0003 C.1     1  LIG1       -0.0675
     11 C          -1.2075    1.8725   -0.0002 C.1     1  LIG1       -0.1138
     12 H          -0.4433    2.6156   -0.0002 H       1  LIG1        0.1232
     13 C          -6.6409    1.3824   -0.0001 C.ar    1  LIG1        0.0375
     14 C          -5.2292    1.4166   -0.0003 C.ar    1  LIG1        0.0208
     15 C          -4.6648    2.6910   -0.0004 C.ar    1  LIG1       -0.0336
     16 C          -5.4635    3.8511   -0.0003 C.ar    1  LIG1        0.0513
     17 C          -6.8757    3.6985   -0.0001 C.ar    1  LIG1        0.0878
     18 N          -7.4099    2.4599    0.0001 N.ar    1  LIG1       -0.2530
     19 H          -3.5936    2.8254   -0.0007 H       1  LIG1        0.0637
     20 H          -7.1458    0.4229    0.0000 H       1  LIG1        0.0836
     21 C          -4.7502    5.0904   -0.0005 C.1     1  LIG1       -0.0675
     22 C          -4.0430    6.0733   -0.0007 C.1     1  LIG1       -0.1138
     23 H          -3.4552    6.9623   -0.0003 H       1  LIG1        0.1232
     24 C          -7.6022    6.1712    0.0002 C.ar    1  LIG1        0.0375
     25 C          -7.8842    4.7934    0.0001 C.ar    1  LIG1        0.0208
     26 C          -9.2432    4.4622    0.0003 C.ar    1  LIG1       -0.0336
     27 C         -10.2463    5.4425    0.0005 C.ar    1  LIG1        0.0513
     28 C          -9.8465    6.8099    0.0005 C.ar    1  LIG1        0.0878
     29 N          -8.5367    7.1159    0.0004 N.ar    1  LIG1       -0.2530
     30 H          -9.5252    3.4174    0.0003 H       1  LIG1        0.0637
     31 H          -6.5820    6.5313    0.0001 H       1  LIG1        0.0836
     32 C         -11.5900    4.9521    0.0006 C.1     1  LIG1       -0.0675
     33 C         -12.6781    4.4212    0.0006 C.1     1  LIG1       -0.1138
     34 H         -13.6521    3.9889   -0.0000 H       1  LIG1        0.1232
     35 C         -12.1544    7.9445    0.0009 C.ar    1  LIG1        0.0368
     36 C         -10.7487    7.9990    0.0007 C.ar    1  LIG1        0.0208
     37 C         -10.1701    9.2787    0.0007 C.ar    1  LIG1       -0.0342
     38 C         -10.9818   10.4173    0.0009 C.ar    1  LIG1        0.0434
     39 C         -12.3773   10.2257    0.0011 C.ar    1  LIG1        0.0430
     40 N         -12.9488    9.0239    0.0011 N.ar    1  LIG1       -0.2614
     41 H          -9.0918    9.3697    0.0005 H       1  LIG1        0.0637
     42 H         -13.0411   11.0875    0.0012 H       1  LIG1        0.0842
     43 H         -12.6699    6.9940    0.0009 H       1  LIG1        0.0836
     44 C         -10.4262   11.7332    0.0008 C.1     1  LIG1       -0.0681
     45 C          -9.9670   12.8526    0.0008 C.1     1  LIG1       -0.1139
     46 H          -9.5606   13.8373    0.0005 H       1  LIG1        0.1232
@<TRIPOS>BOND
     1     8     2    1
     2    22    21    3
     3    22    23    1
     4    19    15    1
     5     9     1    1
     6     2     1   ar
     7     2     3   ar
     8     1     6   ar
     9     7     3    1
    10     3     4   ar
    11    21    16    1
    12     6     5   ar
    13    15    16   ar
    14    15    14   ar
    15     4     5   ar
    16     4    10    1
    17     5    14    1
    18    16    17   ar
    19    14    13   ar
    20    10    11    3
    21    12    11    1
    22    13    20    1
    23    13    18   ar
    24    17    18   ar
    25    17    25    1
    26    34    33    1
    27    31    24    1
    28    25    24   ar
    29    25    26   ar
    30    24    29   ar
    31    30    26    1
    32    26    27   ar
    33    29    28   ar
    34    27    28   ar
    35    27    32    1
    36    28    36    1
    37    46    45    1
    38    41    37    1
    39    32    33    3
    40    37    36   ar
    41    37    38   ar
    42    36    35   ar
    43    45    44    3
    44    44    38    1
    45    38    39   ar
    46    35    43    1
    47    35    40   ar
    48    39    40   ar
    49    39    42    1
