@<TRIPOS>MOLECULE
mol_data/opt/b3lyp/geoms/mol2/6ae6ae6ae6ae-.out
 46 49 0 0 0
SMALL
GASTEIGER

@<TRIPOS>ATOM
      1 C          -4.9028   -2.1669   -0.0007 C.ar    1  LIG1        0.0283
      2 C          -3.5374   -2.4553   -0.0007 C.ar    1  LIG1       -0.0424
      3 C          -2.6591   -1.3846   -0.0005 C.ar    1  LIG1       -0.0428
      4 C          -3.1425   -0.0605   -0.0004 C.ar    1  LIG1        0.0507
      5 C          -4.5546    0.1329   -0.0004 C.ar    1  LIG1        0.0878
      6 N          -5.3844   -0.9283   -0.0006 N.ar    1  LIG1       -0.2537
      7 H          -1.5857   -1.5425   -0.0005 H       1  LIG1        0.0631
      8 H          -3.1810   -3.4796   -0.0009 H       1  LIG1        0.0633
      9 H          -5.6404   -2.9672   -0.0009 H       1  LIG1        0.0830
     10 C          -2.1500    0.9675   -0.0001 C.1     1  LIG1       -0.0675
     11 C          -1.2204    1.7437    0.0001 C.1     1  LIG1       -0.1138
     12 H          -0.4275    2.4559    0.0010 H       1  LIG1        0.1232
     13 C          -6.6692    1.4683   -0.0001 C.ar    1  LIG1        0.0375
     14 C          -5.2572    1.4467   -0.0003 C.ar    1  LIG1        0.0208
     15 C          -4.6424    2.6977   -0.0003 C.ar    1  LIG1       -0.0336
     16 C          -5.3948    3.8880   -0.0002 C.ar    1  LIG1        0.0513
     17 C          -6.8122    3.7913   -0.0000 C.ar    1  LIG1        0.0878
     18 N          -7.3957    2.5751    0.0000 N.ar    1  LIG1       -0.2530
     19 H          -3.5667    2.7895   -0.0004 H       1  LIG1        0.0637
     20 H          -7.2114    0.5293   -0.0001 H       1  LIG1        0.0836
     21 C          -4.6354    5.0998   -0.0001 C.1     1  LIG1       -0.0675
     22 C          -3.8934    6.0568   -0.0002 C.1     1  LIG1       -0.1138
     23 H          -3.2721    6.9227   -0.0006 H       1  LIG1        0.1232
     24 C          -9.1589    4.6483    0.0005 C.ar    1  LIG1        0.0375
     25 C          -7.7742    4.9248    0.0001 C.ar    1  LIG1        0.0208
     26 C          -7.4380    6.2780   -0.0003 C.ar    1  LIG1       -0.0336
     27 C          -8.4243    7.2832   -0.0001 C.ar    1  LIG1        0.0513
     28 C          -9.7899    6.8903    0.0003 C.ar    1  LIG1        0.0878
     29 N         -10.1014    5.5781    0.0007 N.ar    1  LIG1       -0.2530
     30 H          -6.4057    6.5941   -0.0007 H       1  LIG1        0.0637
     31 H          -9.4907    3.6159    0.0008 H       1  LIG1        0.0836
     32 C          -7.9306    8.6256   -0.0005 C.1     1  LIG1       -0.0675
     33 C          -7.3961    9.7121   -0.0009 C.1     1  LIG1       -0.1138
     34 H          -6.9675   10.6878   -0.0017 H       1  LIG1        0.1232
     35 C         -10.9202    9.2007    0.0003 C.ar    1  LIG1        0.0368
     36 C         -10.9767    7.7950    0.0005 C.ar    1  LIG1        0.0208
     37 C         -12.2570    7.2180    0.0011 C.ar    1  LIG1       -0.0342
     38 C         -13.3946    8.0313    0.0013 C.ar    1  LIG1        0.0434
     39 C         -13.2011    9.4265    0.0010 C.ar    1  LIG1        0.0430
     40 N         -11.9984    9.9966    0.0005 N.ar    1  LIG1       -0.2614
     41 H         -12.3490    6.1398    0.0013 H       1  LIG1        0.0637
     42 H         -14.0619   10.0915    0.0011 H       1  LIG1        0.0842
     43 H          -9.9691    9.7150   -0.0001 H       1  LIG1        0.0836
     44 C         -14.7113    7.4778    0.0018 C.1     1  LIG1       -0.0681
     45 C         -15.8317    7.0213    0.0022 C.1     1  LIG1       -0.1139
     46 H         -16.8168    6.6156    0.0023 H       1  LIG1        0.1232
@<TRIPOS>BOND
     1    34    33    1
     2    33    32    3
     3     8     2    1
     4     9     1    1
     5     2     1   ar
     6     2     3   ar
     7     1     6   ar
     8    30    26    1
     9    23    22    1
    10     6     5   ar
    11     3     7    1
    12     3     4   ar
    13    32    27    1
    14     5     4   ar
    15     5    14    1
    16    19    15    1
    17     4    10    1
    18    15    14   ar
    19    15    16   ar
    20    26    27   ar
    21    26    25   ar
    22    14    13   ar
    23    16    21    1
    24    16    17   ar
    25    22    21    3
    26    27    28   ar
    27    43    35    1
    28    10    11    3
    29    13    20    1
    30    13    18   ar
    31    17    18   ar
    32    17    25    1
    33    25    24   ar
    34    11    12    1
    35    35    40   ar
    36    35    36   ar
    37    28    36    1
    38    28    29   ar
    39    40    39   ar
    40    24    29   ar
    41    24    31    1
    42    36    37   ar
    43    39    42    1
    44    39    38   ar
    45    37    38   ar
    46    37    41    1
    47    38    44    1
    48    44    45    3
    49    45    46    1
