@<TRIPOS>MOLECULE
mol_data/opt/b3lyp/geoms/mol2/6ae6ae-6ae.out
 35 37 0 0 0
SMALL
GASTEIGER

@<TRIPOS>ATOM
      1 C          -4.5488   -2.0955   -0.0001 C.ar    1  LIG1        0.0283
      2 C          -3.1577   -2.2039   -0.0002 C.ar    1  LIG1       -0.0424
      3 C          -2.4270   -1.0276   -0.0003 C.ar    1  LIG1       -0.0428
      4 C          -3.0787    0.2225   -0.0003 C.ar    1  LIG1        0.0507
      5 C          -4.5036    0.2307   -0.0002 C.ar    1  LIG1        0.0878
      6 N          -5.1874   -0.9302   -0.0001 N.ar    1  LIG1       -0.2537
      7 H          -1.3422   -1.0436   -0.0003 H       1  LIG1        0.0631
      8 H          -2.6706   -3.1730   -0.0002 H       1  LIG1        0.0633
      9 H          -5.1761   -2.9850   -0.0001 H       1  LIG1        0.0830
     10 C          -2.2266    1.3696   -0.0004 C.1     1  LIG1       -0.0675
     11 C          -1.4025    2.2569   -0.0006 C.1     1  LIG1       -0.1138
     12 H          -0.7089    3.0662   -0.0008 H       1  LIG1        0.1232
     13 C          -4.9261    2.7754   -0.0001 C.ar    1  LIG1        0.0375
     14 C          -5.3733    1.4427   -0.0002 C.ar    1  LIG1        0.0208
     15 C          -6.7622    1.2798   -0.0003 C.ar    1  LIG1       -0.0336
     16 C          -7.6388    2.3748   -0.0003 C.ar    1  LIG1        0.0513
     17 C          -7.0756    3.6834   -0.0001 C.ar    1  LIG1        0.0878
     18 N          -5.7386    3.8271   -0.0000 N.ar    1  LIG1       -0.2530
     19 H          -7.1707    0.2778   -0.0004 H       1  LIG1        0.0637
     20 H          -3.8700    3.0096    0.0000 H       1  LIG1        0.0836
     21 C          -9.0321    2.0515   -0.0004 C.1     1  LIG1       -0.0675
     22 C         -10.1767    1.6571   -0.0006 C.1     1  LIG1       -0.1138
     23 H         -11.1965    1.3477   -0.0008 H       1  LIG1        0.1232
     24 C          -9.2281    5.0908   -0.0000 C.ar    1  LIG1        0.0368
     25 C          -7.8263    4.9737   -0.0001 C.ar    1  LIG1        0.0208
     26 C          -7.0959    6.1731   -0.0001 C.ar    1  LIG1       -0.0342
     27 C          -7.7626    7.4023   -0.0000 C.ar    1  LIG1        0.0434
     28 C          -9.1711    7.3822    0.0000 C.ar    1  LIG1        0.0430
     29 N          -9.8849    6.2591    0.0000 N.ar    1  LIG1       -0.2614
     30 H          -6.0145    6.1321   -0.0001 H       1  LIG1        0.0637
     31 H          -9.7248    8.3185    0.0000 H       1  LIG1        0.0842
     32 H          -9.8557    4.2104   -0.0000 H       1  LIG1        0.0836
     33 C          -7.0505    8.6404   -0.0000 C.1     1  LIG1       -0.0681
     34 C          -6.4579    9.6953   -0.0000 C.1     1  LIG1       -0.1139
     35 H          -5.9343   10.6231    0.0002 H       1  LIG1        0.1232
@<TRIPOS>BOND
     1    23    22    1
     2    12    11    1
     3    11    10    3
     4    22    21    3
     5    10     4    1
     6    21    16    1
     7    19    15    1
     8     7     3    1
     9     4     3   ar
    10     4     5   ar
    11    15    16   ar
    12    15    14   ar
    13     3     2   ar
    14    16    17   ar
    15     5    14    1
    16     5     6   ar
    17    14    13   ar
    18     2     8    1
    19     2     1   ar
    20    17    25    1
    21    17    18   ar
    22     6     1   ar
    23     1     9    1
    24    30    26    1
    25    25    26   ar
    26    25    24   ar
    27    26    27   ar
    28    13    18   ar
    29    13    20    1
    30    24    32    1
    31    24    29   ar
    32    27    33    1
    33    27    28   ar
    34    33    34    3
    35    34    35    1
    36    28    29   ar
    37    28    31    1
