@<TRIPOS>MOLECULE
mol_data/opt/b3lyp/geoms/mol2/6af13hi-12ah12fd.out
 43 46 0 0 0
SMALL
GASTEIGER

@<TRIPOS>ATOM
      1 C          -4.6653   -2.1118   -0.0906 C.ar    1  LIG1        0.0286
      2 C          -3.2805   -2.2936   -0.1048 C.ar    1  LIG1       -0.0401
      3 C          -2.4702   -1.1676   -0.1054 C.ar    1  LIG1       -0.0166
      4 C          -3.0394    0.1145   -0.0919 C.ar    1  LIG1        0.1442
      5 C          -4.4577    0.2035   -0.0780 C.ar    1  LIG1        0.1301
      6 N          -5.2284   -0.9070   -0.0778 N.ar    1  LIG1       -0.2498
      7 H          -1.3874   -1.2390   -0.1159 H       1  LIG1        0.0655
      8 H          -2.8528   -3.2911   -0.1150 H       1  LIG1        0.0634
      9 H          -5.3428   -2.9627   -0.0896 H       1  LIG1        0.0830
     10 O          -2.1937    1.1565   -0.0935 O.3     1  LIG1       -0.5046
     11 H          -2.6774    2.0354   -0.0817 H       1  LIG1        0.2922
     12 C          -5.2356    1.4515   -0.0634 C.ar    1  LIG1        0.0902
     13 C          -4.9615    2.8261   -0.0560 C.ar    1  LIG1        0.0555
     14 C          -6.1906    3.5377   -0.0402 C.ar    1  LIG1       -0.0009
     15 C          -7.2018    2.5720   -0.0384 C.ar    1  LIG1        0.0874
     16 N          -6.5990    1.3405   -0.0530 N.ar    1  LIG1       -0.3488
     17 H          -7.0487    0.4344   -0.0528 H       1  LIG1        0.1661
     18 N          -3.6419    3.3947   -0.0622 N.pl3   1  LIG1       -0.3561
     19 H          -3.4908    3.9854   -0.8777 H       1  LIG1        0.1424
     20 H          -3.4774    3.9717    0.7605 H       1  LIG1        0.1424
     21 C          -6.3605    5.0264   -0.0267 C.3     1  LIG1       -0.0358
     22 H          -6.9010    5.3707    0.8636 H       1  LIG1        0.0279
     23 H          -6.9165    5.3856   -0.9015 H       1  LIG1        0.0279
     24 H          -5.3890    5.5300   -0.0311 H       1  LIG1        0.0279
     25 C          -8.6313    2.7024   -0.0258 C.ar    1  LIG1        0.1541
     26 C          -9.4919    3.7751   -0.0066 C.ar    1  LIG1        0.0071
     27 C         -10.8192    3.2469    0.0152 C.ar    1  LIG1        0.0749
     28 C         -10.6839    1.8686   -0.0045 C.ar    1  LIG1        0.1948
     29 O          -9.3411    1.5370   -0.0286 O.2     1  LIG1       -0.4482
     30 H          -9.2197    4.8193    0.0130 H       1  LIG1        0.0675
     31 N         -11.9866    3.9881    0.1322 N.pl3   1  LIG1       -0.3549
     32 H         -11.9155    4.9236   -0.2443 H       1  LIG1        0.1424
     33 H         -12.8220    3.5121   -0.1897 H       1  LIG1        0.1424
     34 C         -11.6275    0.7933   -0.0099 C.ar    1  LIG1        0.2139
     35 C         -12.9648    0.7069   -0.3173 C.ar    1  LIG1        0.1836
     36 C         -13.3665   -0.6532   -0.0778 C.ar    1  LIG1        0.1315
     37 C         -12.2372   -1.3114    0.3420 C.ar    1  LIG1        0.1138
     38 O         -11.1964   -0.4578    0.3912 O.2     1  LIG1       -0.4546
     39 H         -12.0469   -2.3365    0.6154 H       1  LIG1        0.1044
     40 O         -13.7369    1.7260   -0.7953 O.3     1  LIG1       -0.5023
     41 H         -14.6589    1.4352   -0.8375 H       1  LIG1        0.2923
     42 N         -15.7739   -1.5008   -0.4562 N.1     1  LIG1       -0.1906
     43 C         -14.6749   -1.1608   -0.2740 C.1     1  LIG1        0.1060
@<TRIPOS>BOND
     1    23    21    1
     2    19    18    1
     3    41    40    1
     4    40    35    1
     5    42    43    3
     6    35    36   ar
     7    35    34   ar
     8    43    36    1
     9    32    31    1
    10    33    31    1
    11     7     3    1
    12     8     2    1
    13     3     2   ar
    14     3     4   ar
    15     2     1   ar
    16    10     4    1
    17    10    11    1
    18     4     5   ar
    19     1     9    1
    20     1     6   ar
    21     5     6   ar
    22     5    12    1
    23    36    37   ar
    24    12    13   ar
    25    12    16   ar
    26    18    13    1
    27    18    20    1
    28    13    14   ar
    29    16    17    1
    30    16    15   ar
    31    14    15   ar
    32    14    21    1
    33    15    25    1
    34    24    21    1
    35    29    25   ar
    36    29    28   ar
    37    21    22    1
    38    25    26   ar
    39    34    28    1
    40    34    38   ar
    41    26    30    1
    42    26    27   ar
    43    28    27   ar
    44    27    31    1
    45    37    38   ar
    46    37    39    1
