@<TRIPOS>MOLECULE
mol_data/opt/b3lyp/geoms/mol2/6af4fl12ff-13ee13fd-4ia12ai-12eh-.out
 92 99 0 0 0
SMALL
GASTEIGER

@<TRIPOS>ATOM
      1 C          -3.9737   -0.7608    3.4666 C.ar    1  LIG1        0.0285
      2 C          -2.7492   -0.5259    4.0956 C.ar    1  LIG1       -0.0401
      3 C          -2.2038    0.7460    4.0059 C.ar    1  LIG1       -0.0166
      4 C          -2.8803    1.7475    3.2983 C.ar    1  LIG1        0.1428
      5 C          -4.1183    1.4213    2.6861 C.ar    1  LIG1        0.1158
      6 N          -4.6316    0.1789    2.7922 N.ar    1  LIG1       -0.2512
      7 H          -1.2605    1.0040    4.4762 H       1  LIG1        0.0655
      8 H          -2.2417   -1.3176    4.6378 H       1  LIG1        0.0634
      9 H          -4.4450   -1.7406    3.5110 H       1  LIG1        0.0830
     10 O          -2.3198    2.9820    3.3085 O.3     1  LIG1       -0.5046
     11 H          -2.5575    3.4470    2.4829 H       1  LIG1        0.2922
     12 C          -4.5924    3.4391    1.1372 C.ar    1  LIG1        0.1270
     13 C          -5.5007    4.2752    0.5017 C.ar    1  LIG1       -0.0052
     14 C          -5.0057    2.3912    1.9796 C.ar    1  LIG1        0.0488
     15 C          -6.8907    4.1210    0.6665 C.ar    1  LIG1        0.0661
     16 H          -5.1323    5.0585   -0.1535 H       1  LIG1        0.0662
     17 C          -6.3939    2.2362    2.1231 C.ar    1  LIG1       -0.0064
     18 C          -7.3214    3.0658    1.5070 C.ar    1  LIG1        0.1317
     19 H          -6.7577    1.4200    2.7358 H       1  LIG1        0.0662
     20 O          -3.2345    3.6033    0.9107 O.3     1  LIG1       -0.5061
     21 H          -3.0962    4.3617    0.3277 H       1  LIG1        0.2922
     22 O          -8.6646    2.8135    1.7261 O.3     1  LIG1       -0.4944
     23 C          -9.2024    3.4921    2.8619 C.3     1  LIG1        0.0788
     24 H         -10.2344    3.1505    2.9723 H       1  LIG1        0.0660
     25 H          -8.6435    3.2454    3.7730 H       1  LIG1        0.0660
     26 H          -9.1960    4.5798    2.7193 H       1  LIG1        0.0660
     27 C          -7.7804    5.0212   -0.0386 C.ar    1  LIG1        0.1844
     28 C          -7.5606    6.1653   -0.7790 C.ar    1  LIG1        0.2060
     29 C          -8.8167    6.6223   -1.2655 C.ar    1  LIG1        0.2073
     30 C          -9.7639    5.7372   -0.7986 C.ar    1  LIG1        0.1980
     31 O          -9.1339    4.7700   -0.0514 O.2     1  LIG1       -0.4456
     32 O          -6.3716    6.7745   -1.0317 O.3     1  LIG1       -0.5008
     33 H          -6.5618    7.5603   -1.5666 H       1  LIG1        0.2924
     34 O          -8.8834    7.7243   -2.0486 O.3     1  LIG1       -0.5008
     35 H          -9.8140    7.9631   -2.2257 H       1  LIG1        0.2924
     36 C         -11.1790    5.5666   -0.9383 C.ar    1  LIG1        0.1032
     37 C         -12.1873    6.3649   -1.4887 C.ar    1  LIG1        0.0691
     38 C         -13.4317    5.6465   -1.3402 C.ar    1  LIG1        0.0675
     39 C         -13.1411    4.4473   -0.6879 C.ar    1  LIG1        0.0838
     40 N         -11.7767    4.4216   -0.4705 N.ar    1  LIG1       -0.3485
     41 H         -11.2717    3.7277    0.0625 H       1  LIG1        0.1661
     42 C         -12.0270    7.6388   -2.0807 C.1     1  LIG1       -0.0662
     43 C         -11.9026    8.7347   -2.5892 C.1     1  LIG1       -0.1138
     44 H         -11.8378    9.7056   -3.0241 H       1  LIG1        0.1232
     45 C         -14.6916    6.0702   -1.8242 C.1     1  LIG1       -0.0662
     46 C         -15.7563    6.4451   -2.2598 C.1     1  LIG1       -0.1138
     47 H         -16.6991    6.7707   -2.6332 H       1  LIG1        0.1232
     48 C         -13.9885    3.3441   -0.2970 C.ar    1  LIG1        0.1079
     49 C         -15.2378    3.3049    0.3015 C.ar    1  LIG1        0.1615
     50 C         -15.5829    1.9322    0.5175 C.ar    1  LIG1        0.1189
     51 C         -14.5213    1.1414    0.0460 C.ar    1  LIG1        0.0684
     52 N         -13.5868    2.0136   -0.4295 N.ar    1  LIG1       -0.3490
     53 H         -12.7315    1.7166   -0.8746 H       1  LIG1        0.1661
     54 O         -15.9658    4.3898    0.6452 O.3     1  LIG1       -0.5034
     55 H         -16.8058    4.0974    1.0279 H       1  LIG1        0.2923
     56 N         -17.8816    1.2810    1.4858 N.1     1  LIG1       -0.1907
     57 C         -16.8311    1.5267    1.0421 C.1     1  LIG1        0.1050
     58 C         -14.5357   -1.2169    0.9873 C.ar    1  LIG1       -0.0406
     59 C         -14.3086   -2.5739    0.7573 C.ar    1  LIG1       -0.0475
     60 C         -14.3363   -0.3108   -0.0843 C.ar    1  LIG1        0.0026
     61 C         -13.8856   -3.0741   -0.4858 C.ar    1  LIG1        0.0176
     62 H         -14.4527   -3.2640    1.5834 H       1  LIG1        0.0627
     63 C         -13.9036   -0.8105   -1.3279 C.ar    1  LIG1       -0.0517
     64 C         -13.6788   -2.1628   -1.5352 C.ar    1  LIG1       -0.0504
     65 H         -13.7758   -0.1209   -2.1578 H       1  LIG1        0.0624
     66 C         -14.9478   -0.7676    2.3695 C.3     1  LIG1       -0.0391
     67 H         -14.6685   -1.5179    3.1138 H       1  LIG1        0.0278
     68 H         -16.0297   -0.6160    2.4415 H       1  LIG1        0.0278
     69 H         -14.4728    0.1783    2.6448 H       1  LIG1        0.0278
     70 H         -13.3558   -2.5230   -2.5048 H       1  LIG1        0.0625
     71 C         -13.6630   -4.4974   -0.6773 C.ar    1  LIG1        0.1361
     72 C         -13.7646   -5.5945    0.1432 C.ar    1  LIG1       -0.0122
     73 C         -13.3971   -6.7422   -0.6181 C.ar    1  LIG1       -0.0010
     74 C         -13.1056   -6.2667   -1.8813 C.ar    1  LIG1        0.1747
     75 O         -13.2601   -4.9035   -1.9182 O.2     1  LIG1       -0.4514
     76 H         -14.0484   -5.5924    1.1860 H       1  LIG1        0.0658
     77 C         -13.2998   -8.1487   -0.1108 C.3     1  LIG1       -0.0360
     78 H         -12.5480   -8.7192   -0.6611 H       1  LIG1        0.0279
     79 H         -14.2487   -8.6858   -0.2151 H       1  LIG1        0.0279
     80 H         -13.0273   -8.1528    0.9488 H       1  LIG1        0.0279
     81 C         -12.6658   -6.8886   -3.1020 C.ar    1  LIG1        0.1871
     82 C         -12.8943   -8.1323   -3.6728 C.ar    1  LIG1        0.0940
     83 C         -12.1468   -8.1497   -4.9128 C.ar    1  LIG1        0.0792
     84 C         -11.5478   -6.9269   -5.0069 C.ar    1  LIG1        0.1145
     85 O         -11.8571   -6.1570   -3.9105 O.2     1  LIG1       -0.4567
     86 H         -10.9051   -6.4692   -5.7407 H       1  LIG1        0.1049
     87 C         -13.7586   -9.1710   -3.2551 C.1     1  LIG1       -0.0639
     88 C         -14.4930  -10.0943   -2.9763 C.1     1  LIG1       -0.1137
     89 H         -15.1485  -10.8909   -2.7104 H       1  LIG1        0.1232
     90 N         -12.0625   -9.2503   -5.7602 N.pl3   1  LIG1       -0.3546
     91 H         -12.8418   -9.8882   -5.6507 H       1  LIG1        0.1424
     92 H         -11.9108   -9.0202   -6.7332 H       1  LIG1        0.1424
@<TRIPOS>BOND
     1    92    90    1
     2    90    91    1
     3    90    83    1
     4    86    84    1
     5    84    83   ar
     6    84    85   ar
     7    83    82   ar
     8    85    81   ar
     9    82    87    1
    10    82    81   ar
    11    87    88    3
    12    81    74    1
    13    44    43    1
    14    88    89    1
    15    47    46    1
    16    43    42    3
    17    70    64    1
    18    46    45    3
    19    35    34    1
    20    65    63    1
    21    42    37    1
    22    34    29    1
    23    75    74   ar
    24    75    71   ar
    25    74    73   ar
    26    45    38    1
    27    33    32    1
    28    64    63   ar
    29    64    61   ar
    30    37    38   ar
    31    37    36   ar
    32    38    39   ar
    33    63    60   ar
    34    29    30   ar
    35    29    28   ar
    36    32    28    1
    37    36    30    1
    38    36    40   ar
    39    53    52    1
    40    30    31   ar
    41    28    27   ar
    42    39    40   ar
    43    39    48    1
    44    71    61    1
    45    71    72   ar
    46    78    77    1
    47    73    77    1
    48    73    72   ar
    49    61    59   ar
    50    40    41    1
    51    52    48   ar
    52    52    51   ar
    53    48    49   ar
    54    79    77    1
    55    16    13    1
    56    77    80    1
    57    60    51    1
    58    60    58   ar
    59    31    27   ar
    60    27    15    1
    61    51    50   ar
    62    72    76    1
    63    49    50   ar
    64    49    54    1
    65    21    20    1
    66    13    15   ar
    67    13    12   ar
    68    50    57    1
    69    54    55    1
    70    15    18   ar
    71    59    58   ar
    72    59    62    1
    73    20    12    1
    74    58    66    1
    75    57    56    3
    76    12    14   ar
    77    18    22    1
    78    18    17   ar
    79    22    23    1
    80    14    17   ar
    81    14     5    1
    82    17    19    1
    83    66    68    1
    84    66    69    1
    85    66    67    1
    86    11    10    1
    87     5     6   ar
    88     5     4   ar
    89    26    23    1
    90     6     1   ar
    91    23    24    1
    92    23    25    1
    93     4    10    1
    94     4     3   ar
    95     1     9    1
    96     1     2   ar
    97     3     2   ar
    98     3     7    1
    99     2     8    1
