@<TRIPOS>MOLECULE
mol_data/opt/b3lyp/geoms/mol2/6af4dd13la-12ha-.out
 45 48 0 0 0
SMALL
GASTEIGER

@<TRIPOS>ATOM
      1 C          -4.2936   -2.3939   -1.0534 C.ar    1  LIG1        0.0285
      2 C          -3.1059   -2.6682   -0.3735 C.ar    1  LIG1       -0.0401
      3 C          -2.5704   -1.6695    0.4302 C.ar    1  LIG1       -0.0166
      4 C          -3.2142   -0.4330    0.5212 C.ar    1  LIG1        0.1427
      5 C          -4.4038   -0.2366   -0.2185 C.ar    1  LIG1        0.1135
      6 N          -4.9240   -1.2227   -0.9763 N.ar    1  LIG1       -0.2513
      7 H          -1.6659   -1.8200    1.0106 H       1  LIG1        0.0655
      8 H          -2.6250   -3.6369   -0.4644 H       1  LIG1        0.0634
      9 H          -4.7614   -3.1489   -1.6818 H       1  LIG1        0.0830
     10 O          -2.7225    0.4858    1.4140 O.3     1  LIG1       -0.5046
     11 H          -2.3066    1.2260    0.9425 H       1  LIG1        0.2922
     12 C          -4.7529    2.3307   -0.2282 C.ar    1  LIG1        0.0617
     13 C          -5.6076    3.4321   -0.1780 C.ar    1  LIG1       -0.0332
     14 C          -5.2343    0.9980   -0.1632 C.ar    1  LIG1        0.0225
     15 C          -7.0093    3.3006   -0.0644 C.ar    1  LIG1        0.0205
     16 H          -5.1799    4.4222   -0.2387 H       1  LIG1        0.0637
     17 C          -6.6186    0.8569   -0.0905 C.ar    1  LIG1       -0.0332
     18 C          -7.4918    1.9526   -0.0354 C.ar    1  LIG1        0.0617
     19 H          -7.0322   -0.1444   -0.0807 H       1  LIG1        0.0637
     20 N          -2.2174    2.8011   -0.5396 N.1     1  LIG1       -0.1908
     21 C          -3.3578    2.6004   -0.4094 C.1     1  LIG1        0.0998
     22 N         -10.0173    1.3725    0.1184 N.1     1  LIG1       -0.1908
     23 C          -8.8836    1.6358    0.0502 C.1     1  LIG1        0.0998
     24 C          -7.8348    4.4839   -0.0003 C.ar    1  LIG1        0.0905
     25 C          -7.4734    5.8506   -0.0163 C.ar    1  LIG1        0.1460
     26 C          -8.6355    6.6392    0.0702 C.ar    1  LIG1        0.0091
     27 C          -9.7171    5.7523    0.1405 C.ar    1  LIG1        0.0879
     28 N          -9.2254    4.4831    0.0961 N.ar    1  LIG1       -0.3487
     29 H          -9.8122    3.6612    0.1281 H       1  LIG1        0.1661
     30 O          -6.1865    6.2774   -0.0932 O.3     1  LIG1       -0.4930
     31 C          -5.9802    7.6853   -0.0687 C.3     1  LIG1        0.0789
     32 H          -4.9033    7.8359   -0.1480 H       1  LIG1        0.0660
     33 H          -6.4812    8.1726   -0.9139 H       1  LIG1        0.0660
     34 H          -6.3430    8.1220    0.8693 H       1  LIG1        0.0660
     35 H          -8.6958    7.7124    0.1531 H       1  LIG1        0.0677
     36 C         -11.1201    6.0200    0.2376 C.ar    1  LIG1        0.1715
     37 C         -11.8772    7.1594    0.0468 C.ar    1  LIG1        0.0724
     38 C         -13.2361    6.7814    0.3023 C.ar    1  LIG1       -0.0025
     39 C         -13.2146    5.4554    0.6125 C.ar    1  LIG1        0.0945
     40 O         -11.9495    4.9694    0.5765 O.2     1  LIG1       -0.4596
     41 H         -13.9862    4.7466    0.8690 H       1  LIG1        0.1030
     42 N         -11.4109    8.4302   -0.2920 N.pl3   1  LIG1       -0.3550
     43 H         -10.6061    8.4103   -0.9081 H       1  LIG1        0.1424
     44 H         -12.1307    9.0292   -0.6760 H       1  LIG1        0.1424
     45 H         -14.1072    7.4195    0.2544 H       1  LIG1        0.0668
@<TRIPOS>BOND
     1     9     1    1
     2     1     6   ar
     3     1     2   ar
     4     6     5   ar
     5    33    31    1
     6    43    42    1
     7    44    42    1
     8    20    21    3
     9     8     2    1
    10    21    12    1
    11     2     3   ar
    12    42    37    1
    13    16    13    1
    14    12    13   ar
    15    12    14   ar
    16     5    14    1
    17     5     4   ar
    18    13    15   ar
    19    14    17   ar
    20    32    31    1
    21    30    31    1
    22    30    25    1
    23    17    19    1
    24    17    18   ar
    25    31    34    1
    26    15    18   ar
    27    15    24    1
    28    18    23    1
    29    25    24   ar
    30    25    26   ar
    31    24    28   ar
    32    37    36   ar
    33    37    38   ar
    34    23    22    3
    35    26    27   ar
    36    26    35    1
    37    28    29    1
    38    28    27   ar
    39    27    36    1
    40    36    40   ar
    41    45    38    1
    42    38    39   ar
    43     3     4   ar
    44     3     7    1
    45     4    10    1
    46    40    39   ar
    47    39    41    1
    48    11    10    1
