@<TRIPOS>MOLECULE
mol_data/opt/b3lyp/geoms/mol2/6af6af-6af-6af-.out
 42 45 0 0 0
SMALL
GASTEIGER

@<TRIPOS>ATOM
      1 C          -4.1671   -2.1531    0.7684 C.ar    1  LIG1        0.0285
      2 C          -2.8562   -2.2279    0.2899 C.ar    1  LIG1       -0.0401
      3 C          -2.3151   -1.1118   -0.3332 C.ar    1  LIG1       -0.0166
      4 C          -3.0853    0.0495   -0.4382 C.ar    1  LIG1        0.1428
      5 C          -4.3842    0.0569    0.1201 C.ar    1  LIG1        0.1138
      6 N          -4.9065   -1.0485    0.6835 N.ar    1  LIG1       -0.2513
      7 H          -1.3158   -1.1135   -0.7558 H       1  LIG1        0.0655
      8 H          -2.2824   -3.1435    0.3903 H       1  LIG1        0.0634
      9 H          -4.6368   -3.0129    1.2408 H       1  LIG1        0.0830
     10 O          -2.5260    1.1021   -1.0970 O.3     1  LIG1       -0.5046
     11 H          -3.2019    1.7718   -1.2760 H       1  LIG1        0.2922
     12 C          -4.8093    2.5726    0.1986 C.ar    1  LIG1        0.0378
     13 C          -5.2686    1.2486    0.0899 C.ar    1  LIG1        0.0255
     14 C          -6.6550    1.0833    0.0011 C.ar    1  LIG1       -0.0073
     15 C          -7.4981    2.1873   -0.0136 C.ar    1  LIG1        0.1434
     16 C          -6.9420    3.4928    0.0521 C.ar    1  LIG1        0.1138
     17 N          -5.6118    3.6339    0.1730 N.ar    1  LIG1       -0.2506
     18 H          -7.0599    0.0753   -0.0358 H       1  LIG1        0.0662
     19 H          -3.7552    2.7872    0.3628 H       1  LIG1        0.0836
     20 O          -8.8540    2.0336   -0.0847 O.3     1  LIG1       -0.5046
     21 H          -9.0630    1.0897   -0.0548 H       1  LIG1        0.2922
     22 C          -7.1133    5.9532    0.4329 C.ar    1  LIG1        0.0378
     23 C          -7.7262    4.7504    0.0272 C.ar    1  LIG1        0.0255
     24 C          -9.0555    4.8543   -0.3974 C.ar    1  LIG1       -0.0073
     25 C          -9.7002    6.0897   -0.3979 C.ar    1  LIG1        0.1434
     26 C          -9.0105    7.2420    0.0420 C.ar    1  LIG1        0.1138
     27 N          -7.7281    7.1279    0.4411 N.ar    1  LIG1       -0.2506
     28 H          -9.5953    3.9783   -0.7377 H       1  LIG1        0.0662
     29 H          -6.0808    5.9366    0.7645 H       1  LIG1        0.0836
     30 O         -10.9938    6.1966   -0.8363 O.3     1  LIG1       -0.5046
     31 H         -11.2913    5.3271   -1.1367 H       1  LIG1        0.2922
     32 C          -8.7063    9.7127    0.1318 C.ar    1  LIG1        0.0371
     33 C          -9.5827    8.6110    0.0809 C.ar    1  LIG1        0.0255
     34 C         -10.9582    8.8884    0.0895 C.ar    1  LIG1       -0.0079
     35 C         -11.3823   10.2144    0.1454 C.ar    1  LIG1        0.1355
     36 C         -10.4236   11.2323    0.1864 C.ar    1  LIG1        0.0690
     37 N          -9.1118   10.9842    0.1787 N.ar    1  LIG1       -0.2590
     38 H         -11.6850    8.0852    0.0572 H       1  LIG1        0.0661
     39 H         -10.7450   12.2707    0.2271 H       1  LIG1        0.0867
     40 H          -7.6365    9.5359    0.1340 H       1  LIG1        0.0836
     41 O         -12.6995   10.5774    0.1650 O.3     1  LIG1       -0.5052
     42 H         -13.2457    9.7811    0.1248 H       1  LIG1        0.2922
@<TRIPOS>BOND
     1    11    10    1
     2    31    30    1
     3    10     4    1
     4    30    25    1
     5     7     3    1
     6    28    24    1
     7     4     3   ar
     8     4     5   ar
     9    25    24   ar
    10    25    26   ar
    11    24    23   ar
    12     3     2   ar
    13    20    21    1
    14    20    15    1
    15    18    14    1
    16    15    14   ar
    17    15    16   ar
    18    14    13   ar
    19    23    16    1
    20    23    22   ar
    21    26    33    1
    22    26    27   ar
    23    16    17   ar
    24    38    34    1
    25    33    34   ar
    26    33    32   ar
    27    34    35   ar
    28    13     5    1
    29    13    12   ar
    30     5     6   ar
    31    42    41    1
    32    32    40    1
    33    32    37   ar
    34    35    41    1
    35    35    36   ar
    36    17    12   ar
    37    37    36   ar
    38    36    39    1
    39    12    19    1
    40     2     8    1
    41     2     1   ar
    42    22    27   ar
    43    22    29    1
    44     6     1   ar
    45     1     9    1
