@<TRIPOS>MOLECULE
mol_data/opt/b3lyp/geoms/mol2/6af6af.out
 22 23 0 0 0
SMALL
GASTEIGER

@<TRIPOS>ATOM
      1 C          -4.5140   -2.0604   -0.4844 C.ar    1  LIG1        0.0285
      2 C          -3.1441   -2.1258   -0.2189 C.ar    1  LIG1       -0.0401
      3 C          -2.4914   -0.9694    0.1885 C.ar    1  LIG1       -0.0166
      4 C          -3.2210    0.2163    0.2979 C.ar    1  LIG1        0.1428
      5 C          -4.5950    0.2038   -0.0329 C.ar    1  LIG1        0.1138
      6 N          -5.2177   -0.9317   -0.3930 N.ar    1  LIG1       -0.2513
      7 H          -1.4353   -0.9588    0.4373 H       1  LIG1        0.0655
      8 H          -2.6066   -3.0637   -0.3164 H       1  LIG1        0.0634
      9 H          -5.0654   -2.9482   -0.7858 H       1  LIG1        0.0830
     10 O          -2.5531    1.3211    0.7367 O.3     1  LIG1       -0.5046
     11 H          -3.1913    2.0201    0.9412 H       1  LIG1        0.2922
     12 C          -6.7579    1.3331    0.5243 C.ar    1  LIG1        0.0371
     13 C          -5.4403    1.4253    0.0359 C.ar    1  LIG1        0.0255
     14 C          -4.9932    2.6822   -0.3912 C.ar    1  LIG1       -0.0079
     15 C          -5.8595    3.7750   -0.3018 C.ar    1  LIG1        0.1355
     16 C          -7.1433    3.5707    0.2128 C.ar    1  LIG1        0.0690
     17 N          -7.5853    2.3745    0.6126 N.ar    1  LIG1       -0.2590
     18 H          -4.0144    2.8257   -0.8390 H       1  LIG1        0.0661
     19 H          -7.8402    4.4064    0.2955 H       1  LIG1        0.0867
     20 H          -7.1387    0.3682    0.8444 H       1  LIG1        0.0836
     21 O          -5.4101    4.9874   -0.7307 O.3     1  LIG1       -0.5052
     22 H          -6.1171    5.6407   -0.6389 H       1  LIG1        0.2922
@<TRIPOS>BOND
     1    18    14    1
     2     9     1    1
     3    21    22    1
     4    21    15    1
     5     1     6   ar
     6     1     2   ar
     7     6     5   ar
     8    14    15   ar
     9    14    13   ar
    10     8     2    1
    11    15    16   ar
    12     2     3   ar
    13     5    13    1
    14     5     4   ar
    15    13    12   ar
    16     3     4   ar
    17     3     7    1
    18    16    19    1
    19    16    17   ar
    20     4    10    1
    21    12    17   ar
    22    12    20    1
    23    10    11    1
