@<TRIPOS>MOLECULE
mol_data/opt/b3lyp/geoms/mol2/6af6af-4af6af.out
 43 46 0 0 0
SMALL
GASTEIGER

@<TRIPOS>ATOM
      1 C          -4.0031   -2.0238   -1.0264 C.ar    1  LIG1        0.0285
      2 C          -2.8331   -2.2048   -0.2843 C.ar    1  LIG1       -0.0401
      3 C          -2.4568   -1.2115    0.6096 C.ar    1  LIG1       -0.0166
      4 C          -3.2424   -0.0612    0.7183 C.ar    1  LIG1        0.1428
      5 C          -4.3834    0.0646   -0.1071 C.ar    1  LIG1        0.1138
      6 N          -4.7543   -0.9270   -0.9382 N.ar    1  LIG1       -0.2513
      7 H          -1.5780   -1.3033    1.2394 H       1  LIG1        0.0655
      8 H          -2.2424   -3.1085   -0.3947 H       1  LIG1        0.0634
      9 H          -4.3457   -2.7885   -1.7199 H       1  LIG1        0.0830
     10 O          -2.8572    0.8650    1.6398 O.3     1  LIG1       -0.5046
     11 H          -3.5620    1.5189    1.7562 H       1  LIG1        0.2922
     12 C          -4.8003    2.5727    0.1039 C.ar    1  LIG1        0.0378
     13 C          -5.2634    1.2600   -0.0858 C.ar    1  LIG1        0.0255
     14 C          -6.6361    1.1195   -0.3165 C.ar    1  LIG1       -0.0073
     15 C          -7.4708    2.2301   -0.3116 C.ar    1  LIG1        0.1433
     16 C          -6.9230    3.5169   -0.0574 C.ar    1  LIG1        0.1124
     17 N          -5.5976    3.6391    0.1208 N.ar    1  LIG1       -0.2507
     18 H          -7.0335    0.1286   -0.5209 H       1  LIG1        0.0662
     19 H          -3.7363    2.7823    0.1973 H       1  LIG1        0.0836
     20 O          -8.8083    2.1008   -0.5581 O.3     1  LIG1       -0.5046
     21 H          -8.9960    1.1781   -0.7792 H       1  LIG1        0.2922
     22 C          -7.0299    6.0003   -0.1707 C.ar    1  LIG1       -0.0516
     23 C          -7.7232    7.2004   -0.1065 C.ar    1  LIG1       -0.0499
     24 C          -7.7058    4.7791   -0.0034 C.ar    1  LIG1        0.0074
     25 C          -9.1058    7.2623    0.1364 C.ar    1  LIG1        0.0252
     26 H          -7.1789    8.1322   -0.2268 H       1  LIG1        0.0625
     27 C          -9.0865    4.8206    0.2422 C.ar    1  LIG1       -0.0103
     28 C          -9.7734    6.0336    0.3151 C.ar    1  LIG1        0.1252
     29 H          -9.6418    3.9002    0.3785 H       1  LIG1        0.0661
     30 H          -5.9606    5.9878   -0.3387 H       1  LIG1        0.0624
     31 O         -11.1230    6.0578    0.5448 O.3     1  LIG1       -0.5061
     32 H         -11.4440    5.1481    0.5999 H       1  LIG1        0.2922
     33 C         -10.7806    8.8770    1.1439 C.ar    1  LIG1        0.0356
     34 C          -9.8006    8.5725    0.1783 C.ar    1  LIG1        0.0072
     35 C          -9.4625    9.5803   -0.7323 C.ar    1  LIG1       -0.0094
     36 C         -10.0951   10.8197   -0.6451 C.ar    1  LIG1        0.1354
     37 C         -11.0524   11.0123    0.3556 C.ar    1  LIG1        0.0690
     38 N         -11.3873   10.0621    1.2324 N.ar    1  LIG1       -0.2590
     39 H          -8.7333    9.4115   -1.5178 H       1  LIG1        0.0661
     40 H         -11.5662   11.9712    0.4464 H       1  LIG1        0.0867
     41 H         -11.0761    8.1287    1.8711 H       1  LIG1        0.0836
     42 O          -9.7545   11.7864   -1.5471 O.3     1  LIG1       -0.5052
     43 H         -10.2813   12.5782   -1.3734 H       1  LIG1        0.2922
@<TRIPOS>BOND
     1     9     1    1
     2    42    43    1
     3    42    36    1
     4    39    35    1
     5     1     6   ar
     6     1     2   ar
     7     6     5   ar
     8    21    20    1
     9    35    36   ar
    10    35    34   ar
    11    36    37   ar
    12    20    15    1
    13    18    14    1
    14     8     2    1
    15    30    22    1
    16    14    15   ar
    17    14    13   ar
    18    15    16   ar
    19     2     3   ar
    20    26    23    1
    21    22    23   ar
    22    22    24   ar
    23     5    13    1
    24     5     4   ar
    25    23    25   ar
    26    13    12   ar
    27    16    24    1
    28    16    17   ar
    29    24    27   ar
    30    12    17   ar
    31    12    19    1
    32    25    34    1
    33    25    28   ar
    34    34    33   ar
    35    27    28   ar
    36    27    29    1
    37    28    31    1
    38    37    40    1
    39    37    38   ar
    40    31    32    1
    41     3     4   ar
    42     3     7    1
    43     4    10    1
    44    33    38   ar
    45    33    41    1
    46    10    11    1
