@<TRIPOS>MOLECULE
mol_data/opt/b3lyp/geoms/mol2/6af6af6af-6af-.out
 42 45 0 0 0
SMALL
GASTEIGER

@<TRIPOS>ATOM
      1 C          -4.3902   -2.2541   -0.1384 C.ar    1  LIG1        0.0285
      2 C          -3.0069   -2.3055    0.0532 C.ar    1  LIG1       -0.0401
      3 C          -2.3212   -1.1156    0.2583 C.ar    1  LIG1       -0.0166
      4 C          -3.0321    0.0869    0.2450 C.ar    1  LIG1        0.1428
      5 C          -4.4236    0.0523   -0.0007 C.ar    1  LIG1        0.1138
      6 N          -5.0767   -1.1123   -0.1630 N.ar    1  LIG1       -0.2513
      7 H          -1.2521   -1.0885    0.4414 H       1  LIG1        0.0655
      8 H          -2.4845   -3.2567    0.0550 H       1  LIG1        0.0634
      9 H          -4.9659   -3.1657   -0.2818 H       1  LIG1        0.0830
     10 O          -2.3275    1.2283    0.4865 O.3     1  LIG1       -0.5046
     11 H          -2.9423    1.9597    0.6428 H       1  LIG1        0.2922
     12 C          -6.5672    1.2628    0.4562 C.ar    1  LIG1        0.0378
     13 C          -5.2550    1.2812   -0.0564 C.ar    1  LIG1        0.0255
     14 C          -4.8239    2.4762   -0.6416 C.ar    1  LIG1       -0.0073
     15 C          -5.6686    3.5893   -0.6593 C.ar    1  LIG1        0.1434
     16 C          -6.9419    3.4909   -0.0581 C.ar    1  LIG1        0.1138
     17 N          -7.3699    2.3196    0.4536 N.ar    1  LIG1       -0.2506
     18 H          -3.8684    2.5577   -1.1508 H       1  LIG1        0.0662
     19 H          -6.9595    0.3424    0.8777 H       1  LIG1        0.0836
     20 O          -5.2001    4.6997   -1.2927 O.3     1  LIG1       -0.5046
     21 H          -5.9236    5.3303   -1.4223 H       1  LIG1        0.2922
     22 C          -7.5195    5.9660    0.1501 C.ar    1  LIG1        0.0378
     23 C          -7.8993    4.6207    0.0064 C.ar    1  LIG1        0.0255
     24 C          -9.2756    4.3674   -0.0250 C.ar    1  LIG1       -0.0073
     25 C         -10.1857    5.4143    0.0466 C.ar    1  LIG1        0.1434
     26 C          -9.7096    6.7494    0.1397 C.ar    1  LIG1        0.1138
     27 N          -8.3879    6.9739    0.2060 N.ar    1  LIG1       -0.2506
     28 H          -9.6165    3.3373   -0.0859 H       1  LIG1        0.0662
     29 H          -6.4746    6.2425    0.2763 H       1  LIG1        0.0836
     30 O         -11.5311    5.1803    0.0363 O.3     1  LIG1       -0.5046
     31 H         -11.6826    4.2250    0.0420 H       1  LIG1        0.2922
     32 C         -10.0568    9.1376    0.7567 C.ar    1  LIG1        0.0371
     33 C         -10.5793    7.9506    0.2086 C.ar    1  LIG1        0.0255
     34 C         -11.8996    7.9897   -0.2645 C.ar    1  LIG1       -0.0079
     35 C         -12.6173    9.1804   -0.1706 C.ar    1  LIG1        0.1355
     36 C         -11.9998   10.3009    0.3967 C.ar    1  LIG1        0.0690
     37 N         -10.7454   10.2775    0.8520 N.ar    1  LIG1       -0.2590
     38 H         -12.3585    7.1102   -0.7010 H       1  LIG1        0.0661
     39 H         -12.5525   11.2345    0.4756 H       1  LIG1        0.0867
     40 H          -9.0381    9.1452    1.1287 H       1  LIG1        0.0836
     41 O         -13.9026    9.3165   -0.6101 O.3     1  LIG1       -0.5052
     42 H         -14.2076    8.4710   -0.9652 H       1  LIG1        0.2922
@<TRIPOS>BOND
     1    21    20    1
     2    20    15    1
     3    18    14    1
     4    42    41    1
     5    38    34    1
     6    15    14   ar
     7    15    16   ar
     8    14    13   ar
     9    41    35    1
    10     9     1    1
    11    34    35   ar
    12    34    33   ar
    13    35    36   ar
    14     6     1   ar
    15     6     5   ar
    16     1     2   ar
    17    28    24    1
    18    16    23    1
    19    16    17   ar
    20    13     5    1
    21    13    12   ar
    22    24    23   ar
    23    24    25   ar
    24     5     4   ar
    25    23    22   ar
    26    30    31    1
    27    30    25    1
    28    25    26   ar
    29     2     8    1
    30     2     3   ar
    31    26    27   ar
    32    26    33    1
    33    22    27   ar
    34    22    29    1
    35    33    32   ar
    36     4     3   ar
    37     4    10    1
    38     3     7    1
    39    36    39    1
    40    36    37   ar
    41    17    12   ar
    42    12    19    1
    43    10    11    1
    44    32    37   ar
    45    32    40    1
