@<TRIPOS>MOLECULE
mol_data/opt/b3lyp/geoms/mol2/6af6af-6af.out
 32 34 0 0 0
SMALL
GASTEIGER

@<TRIPOS>ATOM
      1 C          -4.3449   -2.0632    0.7866 C.ar    1  LIG1        0.0285
      2 C          -3.0305   -2.1735    0.3259 C.ar    1  LIG1       -0.0401
      3 C          -2.4540   -1.0755   -0.2983 C.ar    1  LIG1       -0.0166
      4 C          -3.1945    0.1030   -0.4219 C.ar    1  LIG1        0.1428
      5 C          -4.5007    0.1456    0.1176 C.ar    1  LIG1        0.1138
      6 N          -5.0567   -0.9417    0.6831 N.ar    1  LIG1       -0.2513
      7 H          -1.4496   -1.1049   -0.7076 H       1  LIG1        0.0655
      8 H          -2.4805   -3.1020    0.4405 H       1  LIG1        0.0634
      9 H          -4.8414   -2.9075    1.2596 H       1  LIG1        0.0830
     10 O          -2.6024    1.1381   -1.0800 O.3     1  LIG1       -0.5046
     11 H          -3.2604    1.8244   -1.2642 H       1  LIG1        0.2922
     12 C          -4.8633    2.6694    0.1799 C.ar    1  LIG1        0.0378
     13 C          -5.3550    1.3588    0.0611 C.ar    1  LIG1        0.0255
     14 C          -6.7423    1.2279   -0.0649 C.ar    1  LIG1       -0.0073
     15 C          -7.5560    2.3540   -0.1085 C.ar    1  LIG1        0.1434
     16 C          -6.9642    3.6429   -0.0384 C.ar    1  LIG1        0.1138
     17 N          -5.6373    3.7526    0.1264 N.ar    1  LIG1       -0.2506
     18 H          -7.1726    0.2307   -0.1054 H       1  LIG1        0.0662
     19 H          -3.8092    2.8557    0.3759 H       1  LIG1        0.0836
     20 O          -8.9108    2.2443   -0.2041 O.3     1  LIG1       -0.5046
     21 H          -9.1546    1.3087   -0.1834 H       1  LIG1        0.2922
     22 C          -8.9864    5.0597   -0.6995 C.ar    1  LIG1        0.0371
     23 C          -7.7208    4.9218   -0.0964 C.ar    1  LIG1        0.0255
     24 C          -7.1291    6.0736    0.4387 C.ar    1  LIG1       -0.0079
     25 C          -7.8130    7.2831    0.3694 C.ar    1  LIG1        0.1355
     26 C          -9.0697    7.3065   -0.2471 C.ar    1  LIG1        0.0690
     27 N          -9.6404    6.2229   -0.7752 N.ar    1  LIG1       -0.2590
     28 H          -6.1483    6.0231    0.8955 H       1  LIG1        0.0661
     29 H          -9.6298    8.2413   -0.3156 H       1  LIG1        0.0867
     30 H          -9.4832    4.2066   -1.1433 H       1  LIG1        0.0836
     31 O          -7.2278    8.3937    0.9051 O.3     1  LIG1       -0.5052
     32 H          -7.8164    9.1508    0.7827 H       1  LIG1        0.2922
@<TRIPOS>BOND
     1    11    10    1
     2    30    22    1
     3    10     4    1
     4    27    22   ar
     5    27    26   ar
     6     7     3    1
     7    22    23   ar
     8     4     3   ar
     9     4     5   ar
    10    29    26    1
    11     3     2   ar
    12    26    25   ar
    13    20    21    1
    14    20    15    1
    15    15    14   ar
    16    15    16   ar
    17    18    14    1
    18    23    16    1
    19    23    24   ar
    20    14    13   ar
    21    16    17   ar
    22    13     5    1
    23    13    12   ar
    24     5     6   ar
    25    17    12   ar
    26    12    19    1
    27     2     8    1
    28     2     1   ar
    29    25    24   ar
    30    25    31    1
    31    24    28    1
    32     6     1   ar
    33    32    31    1
    34     1     9    1
