@<TRIPOS>MOLECULE
mol_data/opt/b3lyp/geoms/mol2/6af6af6af6af-.out
 42 45 0 0 0
SMALL
GASTEIGER

@<TRIPOS>ATOM
      1 C          -4.2120   -2.0485   -1.0162 C.ar    1  LIG1        0.0285
      2 C          -3.0254   -2.2821   -0.3164 C.ar    1  LIG1       -0.0401
      3 C          -2.5566   -1.2960    0.5420 C.ar    1  LIG1       -0.0166
      4 C          -3.2731   -0.1028    0.6580 C.ar    1  LIG1        0.1428
      5 C          -4.4386    0.0704   -0.1228 C.ar    1  LIG1        0.1138
      6 N          -4.8976   -0.9095   -0.9214 N.ar    1  LIG1       -0.2513
      7 H          -1.6583   -1.4263    1.1365 H       1  LIG1        0.0655
      8 H          -2.4916   -3.2199   -0.4316 H       1  LIG1        0.0634
      9 H          -4.6237   -2.8043   -1.6811 H       1  LIG1        0.0830
     10 O          -2.8011    0.8236    1.5401 O.3     1  LIG1       -0.5046
     11 H          -3.4734    1.5061    1.6793 H       1  LIG1        0.2922
     12 C          -6.6535    1.2375   -0.1426 C.ar    1  LIG1        0.0378
     13 C          -5.2479    1.3153   -0.0845 C.ar    1  LIG1        0.0255
     14 C          -4.6875    2.5943   -0.0061 C.ar    1  LIG1       -0.0073
     15 C          -5.5182    3.7177    0.0040 C.ar    1  LIG1        0.1434
     16 C          -6.9143    3.5364   -0.0907 C.ar    1  LIG1        0.1138
     17 N          -7.4482    2.3010   -0.1405 N.ar    1  LIG1       -0.2506
     18 H          -3.6138    2.7555    0.0069 H       1  LIG1        0.0662
     19 H          -7.1300    0.2638   -0.2033 H       1  LIG1        0.0836
     20 O          -4.9083    4.9311    0.1114 O.3     1  LIG1       -0.5046
     21 H          -5.5754    5.6133    0.2770 H       1  LIG1        0.2922
     22 C          -9.1139    4.5466    0.5443 C.ar    1  LIG1        0.0378
     23 C          -7.8709    4.6694   -0.1069 C.ar    1  LIG1        0.0255
     24 C          -7.6268    5.8715   -0.7799 C.ar    1  LIG1       -0.0073
     25 C          -8.5773    6.8950   -0.7460 C.ar    1  LIG1        0.1434
     26 C          -9.7650    6.7002   -0.0079 C.ar    1  LIG1        0.1138
     27 N         -10.0161    5.5194    0.5894 N.ar    1  LIG1       -0.2506
     28 H          -6.7451    6.0195   -1.3963 H       1  LIG1        0.0662
     29 H          -9.3649    3.6135    1.0393 H       1  LIG1        0.0836
     30 O          -8.2945    8.0146   -1.4656 O.3     1  LIG1       -0.5046
     31 H          -9.0831    8.5754   -1.5149 H       1  LIG1        0.2922
     32 C         -10.5459    9.1114    0.1979 C.ar    1  LIG1        0.0371
     33 C         -10.8220    7.7363    0.1118 C.ar    1  LIG1        0.0255
     34 C         -12.1664    7.3417    0.1846 C.ar    1  LIG1       -0.0079
     35 C         -13.1517    8.3140    0.3098 C.ar    1  LIG1        0.1355
     36 C         -12.7654    9.6653    0.3559 C.ar    1  LIG1        0.0690
     37 N         -11.4940   10.0521    0.3119 N.ar    1  LIG1       -0.2590
     38 H         -12.4086    6.2830    0.1564 H       1  LIG1        0.0661
     39 H         -13.5292   10.4347    0.4416 H       1  LIG1        0.0867
     40 H          -9.5204    9.4731    0.2328 H       1  LIG1        0.0836
     41 O         -14.4819    8.0391    0.3857 O.3     1  LIG1       -0.5052
     42 H         -14.6146    7.0817    0.3621 H       1  LIG1        0.2922
@<TRIPOS>BOND
     1     9     1    1
     2    31    30    1
     3    30    25    1
     4    28    24    1
     5     1     6   ar
     6     1     2   ar
     7     6     5   ar
     8    24    25   ar
     9    24    23   ar
    10    25    26   ar
    11     8     2    1
    12     2     3   ar
    13    19    12    1
    14    12    17   ar
    15    12    13   ar
    16    17    16   ar
    17     5    13    1
    18     5     4   ar
    19    23    16    1
    20    23    22   ar
    21    16    15   ar
    22    13    14   ar
    23    26    33    1
    24    26    27   ar
    25    14    15   ar
    26    14    18    1
    27    15    20    1
    28    20    21    1
    29    33    34   ar
    30    33    32   ar
    31    38    34    1
    32    34    35   ar
    33    32    40    1
    34    32    37   ar
    35    35    36   ar
    36    35    41    1
    37    37    36   ar
    38    36    39    1
    39    42    41    1
    40     3     4   ar
    41     3     7    1
    42    22    27   ar
    43    22    29    1
    44     4    10    1
    45    10    11    1
