@<TRIPOS>MOLECULE
mol_data/opt/b3lyp/geoms/mol2/6af6af6af.out
 32 34 0 0 0
SMALL
GASTEIGER

@<TRIPOS>ATOM
      1 C          -4.3856   -2.0179   -0.9692 C.ar    1  LIG1        0.0285
      2 C          -3.1126   -2.2124   -0.4272 C.ar    1  LIG1       -0.0401
      3 C          -2.5435   -1.1851    0.3143 C.ar    1  LIG1       -0.0166
      4 C          -3.2521    0.0078    0.4732 C.ar    1  LIG1        0.1428
      5 C          -4.5151    0.1378   -0.1478 C.ar    1  LIG1        0.1138
      6 N          -5.0660   -0.8799   -0.8326 N.ar    1  LIG1       -0.2513
      7 H          -1.5714   -1.2827    0.7863 H       1  LIG1        0.0655
      8 H          -2.5880   -3.1514   -0.5720 H       1  LIG1        0.0634
      9 H          -4.8744   -2.8057   -1.5379 H       1  LIG1        0.0830
     10 O          -2.6763    0.9770    1.2402 O.3     1  LIG1       -0.5046
     11 H          -3.3311    1.6632    1.4342 H       1  LIG1        0.2922
     12 C          -6.7250    1.2881    0.1013 C.ar    1  LIG1        0.0378
     13 C          -5.3276    1.3776   -0.0509 C.ar    1  LIG1        0.0255
     14 C          -4.7785    2.6625   -0.1156 C.ar    1  LIG1       -0.0073
     15 C          -5.6141    3.7793   -0.0361 C.ar    1  LIG1        0.1434
     16 C          -7.0060    3.5846    0.0850 C.ar    1  LIG1        0.1138
     17 N          -7.5253    2.3457    0.1711 N.ar    1  LIG1       -0.2506
     18 H          -3.7167    2.8308   -0.2677 H       1  LIG1        0.0662
     19 H          -7.1924    0.3098    0.1568 H       1  LIG1        0.0836
     20 O          -5.0132    5.0016   -0.0764 O.3     1  LIG1       -0.5046
     21 H          -5.6624    5.6849    0.1462 H       1  LIG1        0.2922
     22 C          -9.0662    4.6321    1.0397 C.ar    1  LIG1        0.0371
     23 C          -7.9685    4.7132    0.1612 C.ar    1  LIG1        0.0255
     24 C          -7.8504    5.8664   -0.6258 C.ar    1  LIG1       -0.0079
     25 C          -8.8065    6.8767   -0.4930 C.ar    1  LIG1        0.1355
     26 C          -9.8474    6.6966    0.4232 C.ar    1  LIG1        0.0690
     27 N          -9.9779    5.5957    1.1694 N.ar    1  LIG1       -0.2590
     28 H          -7.0741    5.9772   -1.3771 H       1  LIG1        0.0661
     29 H         -10.6068    7.4700    0.5489 H       1  LIG1        0.0867
     30 H          -9.1957    3.7414    1.6469 H       1  LIG1        0.0836
     31 O          -8.6799    7.9862   -1.2726 O.3     1  LIG1       -0.5052
     32 H          -9.4211    8.5834   -1.1020 H       1  LIG1        0.2922
@<TRIPOS>BOND
     1     9     1    1
     2    28    24    1
     3    31    32    1
     4    31    25    1
     5     1     6   ar
     6     1     2   ar
     7     6     5   ar
     8    24    25   ar
     9    24    23   ar
    10     8     2    1
    11    25    26   ar
    12     2     3   ar
    13    18    14    1
    14     5    13    1
    15     5     4   ar
    16    14    13   ar
    17    14    15   ar
    18    20    15    1
    19    20    21    1
    20    13    12   ar
    21    15    16   ar
    22    16    23    1
    23    16    17   ar
    24    12    19    1
    25    12    17   ar
    26    23    22   ar
    27     3     4   ar
    28     3     7    1
    29    26    29    1
    30    26    27   ar
    31     4    10    1
    32    22    27   ar
    33    22    30    1
    34    10    11    1
