@<TRIPOS>MOLECULE
mol_data/opt/b3lyp/geoms/mol2/6af6af-.out
 22 23 0 0 0
SMALL
GASTEIGER

@<TRIPOS>ATOM
      1 C          -4.4883   -2.0695    0.4323 C.ar    1  LIG1        0.0285
      2 C          -3.1284   -2.1246    0.1173 C.ar    1  LIG1       -0.0401
      3 C          -2.4861   -0.9497   -0.2493 C.ar    1  LIG1       -0.0166
      4 C          -3.2112    0.2448   -0.2673 C.ar    1  LIG1        0.1428
      5 C          -4.5729    0.2195    0.1120 C.ar    1  LIG1        0.1138
      6 N          -5.1875   -0.9350    0.4266 N.ar    1  LIG1       -0.2513
      7 H          -1.4398   -0.9281   -0.5360 H       1  LIG1        0.0655
      8 H          -2.5921   -3.0678    0.1446 H       1  LIG1        0.0634
      9 H          -5.0340   -2.9708    0.7023 H       1  LIG1        0.0830
     10 O          -2.5494    1.3631   -0.6746 O.3     1  LIG1       -0.5046
     11 H          -3.1829    2.0848   -0.8020 H       1  LIG1        0.2922
     12 C          -4.9464    2.6976    0.5548 C.ar    1  LIG1        0.0371
     13 C          -5.4210    1.4409    0.1433 C.ar    1  LIG1        0.0255
     14 C          -6.7744    1.3479   -0.2125 C.ar    1  LIG1       -0.0079
     15 C          -7.5672    2.4889   -0.1690 C.ar    1  LIG1        0.1355
     16 C          -6.9816    3.7032    0.2291 C.ar    1  LIG1        0.0690
     17 N          -5.7061    3.8018    0.5920 N.ar    1  LIG1       -0.2590
     18 H          -7.1799    0.3819   -0.5002 H       1  LIG1        0.0661
     19 H          -7.5899    4.6045    0.2558 H       1  LIG1        0.0867
     20 H          -3.9291    2.8155    0.9223 H       1  LIG1        0.0836
     21 O          -8.8882    2.5056   -0.4970 O.3     1  LIG1       -0.5052
     22 H          -9.1717    1.6113   -0.7303 H       1  LIG1        0.2922
@<TRIPOS>BOND
     1    11    10    1
     2    22    21    1
     3    10     4    1
     4     7     3    1
     5    18    14    1
     6    21    15    1
     7     4     3   ar
     8     4     5   ar
     9     3     2   ar
    10    14    15   ar
    11    14    13   ar
    12    15    16   ar
    13     5    13    1
    14     5     6   ar
    15     2     8    1
    16     2     1   ar
    17    13    12   ar
    18    16    19    1
    19    16    17   ar
    20     6     1   ar
    21     1     9    1
    22    12    17   ar
    23    12    20    1
