@<TRIPOS>MOLECULE
mol_data/opt/b3lyp/geoms/mol2/6af6af6af-6af.out
 42 45 0 0 0
SMALL
GASTEIGER

@<TRIPOS>ATOM
      1 C          -4.4137   -2.2585   -0.0362 C.ar    1  LIG1        0.0285
      2 C          -3.0338   -2.3034    0.1793 C.ar    1  LIG1       -0.0401
      3 C          -2.3530   -1.1081    0.3692 C.ar    1  LIG1       -0.0166
      4 C          -3.0649    0.0925    0.3172 C.ar    1  LIG1        0.1428
      5 C          -4.4522    0.0503    0.0490 C.ar    1  LIG1        0.1138
      6 N          -5.1010   -1.1186   -0.0979 N.ar    1  LIG1       -0.2513
      7 H          -1.2871   -1.0753    0.5693 H       1  LIG1        0.0655
      8 H          -2.5103   -3.2536    0.2111 H       1  LIG1        0.0634
      9 H          -4.9859   -3.1739   -0.1685 H       1  LIG1        0.0830
     10 O          -2.3658    1.2402    0.5450 O.3     1  LIG1       -0.5046
     11 H          -2.9843    1.9740    0.6735 H       1  LIG1        0.2922
     12 C          -6.6018    1.2728    0.4461 C.ar    1  LIG1        0.0378
     13 C          -5.2826    1.2775   -0.0481 C.ar    1  LIG1        0.0255
     14 C          -4.8408    2.4578   -0.6550 C.ar    1  LIG1       -0.0073
     15 C          -5.6829    3.5714   -0.7099 C.ar    1  LIG1        0.1434
     16 C          -6.9643    3.4892   -0.1236 C.ar    1  LIG1        0.1138
     17 N          -7.4021    2.3310    0.4086 N.ar    1  LIG1       -0.2506
     18 H          -3.8779    2.5250   -1.1522 H       1  LIG1        0.0662
     19 H          -7.0020    0.3630    0.8830 H       1  LIG1        0.0836
     20 O          -5.2043    4.6666   -1.3621 O.3     1  LIG1       -0.5046
     21 H          -5.9251    5.2961   -1.5114 H       1  LIG1        0.2922
     22 C          -7.5313    5.9691    0.0315 C.ar    1  LIG1        0.0378
     23 C          -7.9176    4.6243   -0.0970 C.ar    1  LIG1        0.0255
     24 C          -9.2944    4.3780   -0.1483 C.ar    1  LIG1       -0.0073
     25 C         -10.2004    5.4314   -0.1130 C.ar    1  LIG1        0.1434
     26 C          -9.7156    6.7645   -0.0398 C.ar    1  LIG1        0.1138
     27 N          -8.3950    6.9829    0.0531 N.ar    1  LIG1       -0.2506
     28 H          -9.6410    3.3490   -0.1941 H       1  LIG1        0.0662
     29 H          -6.4873    6.2407    0.1744 H       1  LIG1        0.0836
     30 O         -11.5442    5.2096   -0.1347 O.3     1  LIG1       -0.5046
     31 H         -11.7084    4.2565   -0.1264 H       1  LIG1        0.2922
     32 C         -11.8839    8.0181   -0.5471 C.ar    1  LIG1        0.0371
     33 C         -10.5786    7.9748   -0.0191 C.ar    1  LIG1        0.0255
     34 C         -10.0558    9.1601    0.5149 C.ar    1  LIG1       -0.0079
     35 C         -10.8419   10.3079    0.5181 C.ar    1  LIG1        0.1355
     36 C         -12.1297   10.2382   -0.0266 C.ar    1  LIG1        0.0690
     37 N         -12.6367    9.1225   -0.5531 N.ar    1  LIG1       -0.2590
     38 H          -9.0495    9.1831    0.9149 H       1  LIG1        0.0661
     39 H         -12.7696   11.1228   -0.0371 H       1  LIG1        0.0867
     40 H         -12.3319    7.1365   -0.9873 H       1  LIG1        0.0836
     41 O         -10.3220   11.4514    1.0517 O.3     1  LIG1       -0.5052
     42 H         -10.9776   12.1586    0.9826 H       1  LIG1        0.2922
@<TRIPOS>BOND
     1    21    20    1
     2    20    15    1
     3    18    14    1
     4    40    32    1
     5    15    14   ar
     6    15    16   ar
     7    14    13   ar
     8    37    32   ar
     9    37    36   ar
    10    32    33   ar
    11    28    24    1
    12     9     1    1
    13    24    25   ar
    14    24    23   ar
    15    30    31    1
    16    30    25    1
    17    16    23    1
    18    16    17   ar
    19    25    26   ar
    20     6     1   ar
    21     6     5   ar
    22    23    22   ar
    23    13     5    1
    24    13    12   ar
    25    26    33    1
    26    26    27   ar
    27    39    36    1
    28     1     2   ar
    29    36    35   ar
    30    33    34   ar
    31    22    27   ar
    32    22    29    1
    33     5     4   ar
    34     2     8    1
    35     2     3   ar
    36     4     3   ar
    37     4    10    1
    38     3     7    1
    39    17    12   ar
    40    12    19    1
    41    34    35   ar
    42    34    38    1
    43    35    41    1
    44    10    11    1
    45    42    41    1
