@<TRIPOS>MOLECULE
mol_data/opt/b3lyp/geoms/mol2/6af6af-6af6af-.out
 42 45 0 0 0
SMALL
GASTEIGER

@<TRIPOS>ATOM
      1 C          -4.0490   -2.0638    0.8847 C.ar    1  LIG1        0.0285
      2 C          -2.8769   -2.2246    0.1409 C.ar    1  LIG1       -0.0401
      3 C          -2.4879   -1.1991   -0.7101 C.ar    1  LIG1       -0.0166
      4 C          -3.2633   -0.0385   -0.7755 C.ar    1  LIG1        0.1428
      5 C          -4.4067    0.0635    0.0495 C.ar    1  LIG1        0.1138
      6 N          -4.7900   -0.9578    0.8379 N.ar    1  LIG1       -0.2513
      7 H          -1.6069   -1.2729   -1.3391 H       1  LIG1        0.0655
      8 H          -2.2945   -3.1371    0.2171 H       1  LIG1        0.0634
      9 H          -4.4014   -2.8529    1.5450 H       1  LIG1        0.0830
     10 O          -2.8652    0.9204   -1.6573 O.3     1  LIG1       -0.5046
     11 H          -3.5642    1.5833   -1.7541 H       1  LIG1        0.2922
     12 C          -4.8028    2.5815   -0.0630 C.ar    1  LIG1        0.0378
     13 C          -5.2774    1.2660    0.0751 C.ar    1  LIG1        0.0255
     14 C          -6.6508    1.1250    0.3012 C.ar    1  LIG1       -0.0073
     15 C          -7.4776    2.2416    0.3416 C.ar    1  LIG1        0.1434
     16 C          -6.9168    3.5302    0.1388 C.ar    1  LIG1        0.1138
     17 N          -5.5918    3.6542   -0.0355 N.ar    1  LIG1       -0.2506
     18 H          -7.0548    0.1298    0.4668 H       1  LIG1        0.0662
     19 H          -3.7374    2.7860   -0.1490 H       1  LIG1        0.0836
     20 O          -8.8136    2.1240    0.5840 O.3     1  LIG1       -0.5046
     21 H          -9.0221    1.1970    0.7645 H       1  LIG1        0.2922
     22 C          -9.0765    4.8789   -0.1148 C.ar    1  LIG1        0.0378
     23 C          -7.6936    4.7960    0.1427 C.ar    1  LIG1        0.0255
     24 C          -7.0191    6.0024    0.3572 C.ar    1  LIG1       -0.0073
     25 C          -7.7188    7.2053    0.3578 C.ar    1  LIG1        0.1434
     26 C          -9.1166    7.1816    0.1508 C.ar    1  LIG1        0.1138
     27 N          -9.7508    6.0263   -0.1153 N.ar    1  LIG1       -0.2506
     28 H          -5.9466    6.0084    0.5081 H       1  LIG1        0.0662
     29 H          -9.6539    3.9893   -0.3316 H       1  LIG1        0.0836
     30 O          -6.9907    8.3433    0.5439 O.3     1  LIG1       -0.5046
     31 H          -7.5431    9.1143    0.3488 H       1  LIG1        0.2922
     32 C          -9.7274    9.4958    1.0152 C.ar    1  LIG1        0.0371
     33 C          -9.9608    8.4037    0.1619 C.ar    1  LIG1        0.0255
     34 C         -11.0773    8.4757   -0.6847 C.ar    1  LIG1       -0.0079
     35 C         -11.8728    9.6149   -0.6635 C.ar    1  LIG1        0.1355
     36 C         -11.5298   10.6624    0.2085 C.ar    1  LIG1        0.0690
     37 N         -10.4895   10.5986    1.0346 N.ar    1  LIG1       -0.2590
     38 H         -11.3053    7.6311   -1.3290 H       1  LIG1        0.0661
     39 H         -12.1392   11.5631    0.2252 H       1  LIG1        0.0867
     40 H          -8.9286    9.4646    1.7531 H       1  LIG1        0.0836
     41 O         -12.9735    9.7838   -1.4473 O.3     1  LIG1       -0.5052
     42 H         -13.1099    8.9894   -1.9811 H       1  LIG1        0.2922
@<TRIPOS>BOND
     1    42    41    1
     2    11    10    1
     3    10     4    1
     4    41    35    1
     5     7     3    1
     6    38    34    1
     7     4     3   ar
     8     4     5   ar
     9     3     2   ar
    10    34    35   ar
    11    34    33   ar
    12    35    36   ar
    13    29    22    1
    14    19    12    1
    15    27    22   ar
    16    27    26   ar
    17    22    23   ar
    18    12    17   ar
    19    12    13   ar
    20    17    16   ar
    21     5    13    1
    22     5     6   ar
    23    13    14   ar
    24    16    23    1
    25    16    15   ar
    26     2     8    1
    27     2     1   ar
    28    23    24   ar
    29    26    33    1
    30    26    25   ar
    31    33    32   ar
    32    36    39    1
    33    36    37   ar
    34    14    15   ar
    35    14    18    1
    36    15    20    1
    37    31    30    1
    38    24    25   ar
    39    24    28    1
    40    25    30    1
    41    20    21    1
    42     6     1   ar
    43     1     9    1
    44    32    37   ar
    45    32    40    1
