@<TRIPOS>MOLECULE
mol_data/opt/b3lyp/geoms/mol2/6af6af6af6af.out
 42 45 0 0 0
SMALL
GASTEIGER

@<TRIPOS>ATOM
      1 C          -4.1933   -1.9270   -1.4086 C.ar    1  LIG1        0.0285
      2 C          -3.0813   -2.2871   -0.6432 C.ar    1  LIG1       -0.0401
      3 C          -2.6769   -1.4384    0.3791 C.ar    1  LIG1       -0.0166
      4 C          -3.3800   -0.2503    0.5905 C.ar    1  LIG1        0.1428
      5 C          -4.4648    0.0599   -0.2607 C.ar    1  LIG1        0.1138
      6 N          -4.8646   -0.7907   -1.2226 N.ar    1  LIG1       -0.2513
      7 H          -1.8402   -1.6734    1.0288 H       1  LIG1        0.0655
      8 H          -2.5557   -3.2169   -0.8357 H       1  LIG1        0.0634
      9 H          -4.5546   -2.5749   -2.2040 H       1  LIG1        0.0830
     10 O          -2.9758    0.5364    1.6284 O.3     1  LIG1       -0.5046
     11 H          -3.6457    1.2149    1.7963 H       1  LIG1        0.2922
     12 C          -6.6487    1.2828   -0.3133 C.ar    1  LIG1        0.0378
     13 C          -5.2528    1.3118   -0.1264 C.ar    1  LIG1        0.0255
     14 C          -4.6789    2.5530    0.1679 C.ar    1  LIG1       -0.0073
     15 C          -5.4875    3.6889    0.2545 C.ar    1  LIG1        0.1434
     16 C          -6.8723    3.5622    0.0159 C.ar    1  LIG1        0.1138
     17 N          -7.4219    2.3599   -0.2398 N.ar    1  LIG1       -0.2506
     18 H          -3.6080    2.6796    0.2947 H       1  LIG1        0.0662
     19 H          -7.1353    0.3393   -0.5410 H       1  LIG1        0.0836
     20 O          -4.8697    4.8608    0.5741 O.3     1  LIG1       -0.5046
     21 H          -5.5385    5.5321    0.7734 H       1  LIG1        0.2922
     22 C          -9.0877    4.5552    0.6208 C.ar    1  LIG1        0.0378
     23 C          -7.8043    4.7156    0.0630 C.ar    1  LIG1        0.0255
     24 C          -7.4835    5.9828   -0.4358 C.ar    1  LIG1       -0.0073
     25 C          -8.4244    7.0131   -0.3692 C.ar    1  LIG1        0.1434
     26 C          -9.6953    6.7439    0.1812 C.ar    1  LIG1        0.1138
     27 N          -9.9887    5.5292    0.6809 N.ar    1  LIG1       -0.2506
     28 H          -6.5345    6.1913   -0.9207 H       1  LIG1        0.0662
     29 H          -9.3778    3.5879    1.0197 H       1  LIG1        0.0836
     30 O          -8.0396    8.2300   -0.8454 O.3     1  LIG1       -0.5046
     31 H          -8.7054    8.8919   -0.6075 H       1  LIG1        0.2922
     32 C         -11.5698    7.8364    1.4255 C.ar    1  LIG1        0.0371
     33 C         -10.7603    7.7747    0.2748 C.ar    1  LIG1        0.0255
     34 C         -11.0197    8.6920   -0.7522 C.ar    1  LIG1       -0.0079
     35 C         -12.0470    9.6239   -0.5829 C.ar    1  LIG1        0.1355
     36 C         -12.7783    9.6043    0.6089 C.ar    1  LIG1        0.0690
     37 N         -12.5485    8.7263    1.5896 N.ar    1  LIG1       -0.2590
     38 H         -10.4880    8.6664   -1.6988 H       1  LIG1        0.0661
     39 H         -13.5849   10.3217    0.7688 H       1  LIG1        0.0867
     40 H         -11.4061    7.1252    2.2292 H       1  LIG1        0.0836
     41 O         -12.2903   10.5017   -1.5951 O.3     1  LIG1       -0.5052
     42 H         -13.0418   11.0626   -1.3588 H       1  LIG1        0.2922
@<TRIPOS>BOND
     1     9     1    1
     2    38    34    1
     3    41    42    1
     4    41    35    1
     5     1     6   ar
     6     1     2   ar
     7     6     5   ar
     8    28    24    1
     9    30    31    1
    10    30    25    1
    11     8     2    1
    12    34    35   ar
    13    34    33   ar
    14     2     3   ar
    15    35    36   ar
    16    19    12    1
    17    24    25   ar
    18    24    23   ar
    19    25    26   ar
    20    12    17   ar
    21    12    13   ar
    22     5    13    1
    23     5     4   ar
    24    17    16   ar
    25    13    14   ar
    26    16    23    1
    27    16    15   ar
    28    23    22   ar
    29    14    15   ar
    30    14    18    1
    31    26    33    1
    32    26    27   ar
    33    15    20    1
    34    33    32   ar
    35     3     4   ar
    36     3     7    1
    37    20    21    1
    38     4    10    1
    39    36    39    1
    40    36    37   ar
    41    22    27   ar
    42    22    29    1
    43    32    37   ar
    44    32    40    1
    45    10    11    1
