@<TRIPOS>MOLECULE
mol_data/opt/b3lyp/geoms/mol2/6af6af-6af-6af.out
 42 45 0 0 0
SMALL
GASTEIGER

@<TRIPOS>ATOM
      1 C          -4.0643   -2.0404    0.9506 C.ar    1  LIG1        0.0285
      2 C          -2.8402   -2.1793    0.2909 C.ar    1  LIG1       -0.0401
      3 C          -2.4074   -1.1430   -0.5251 C.ar    1  LIG1       -0.0166
      4 C          -3.1933    0.0068   -0.6393 C.ar    1  LIG1        0.1428
      5 C          -4.3935    0.0868    0.1035 C.ar    1  LIG1        0.1138
      6 N          -4.8167   -0.9451    0.8571 N.ar    1  LIG1       -0.2513
      7 H          -1.4831   -1.2000   -1.0904 H       1  LIG1        0.0655
      8 H          -2.2510   -3.0836    0.4034 H       1  LIG1        0.0634
      9 H          -4.4508   -2.8389    1.5799 H       1  LIG1        0.0830
     10 O          -2.7478    0.9766   -1.4855 O.3     1  LIG1       -0.5046
     11 H          -3.4475    1.6300   -1.6294 H       1  LIG1        0.2922
     12 C          -4.8170    2.5997   -0.0215 C.ar    1  LIG1        0.0378
     13 C          -5.2810    1.2766    0.0751 C.ar    1  LIG1        0.0255
     14 C          -6.6650    1.1156    0.2025 C.ar    1  LIG1       -0.0073
     15 C          -7.5069    2.2206    0.1915 C.ar    1  LIG1        0.1434
     16 C          -6.9529    3.5196    0.0397 C.ar    1  LIG1        0.1138
     17 N          -5.6201    3.6613   -0.0437 N.ar    1  LIG1       -0.2506
     18 H          -7.0655    0.1133    0.3303 H       1  LIG1        0.0662
     19 H          -3.7512    2.8192   -0.0324 H       1  LIG1        0.0836
     20 O          -8.8583    2.0782    0.3310 O.3     1  LIG1       -0.5046
     21 H          -9.0598    1.1458    0.4908 H       1  LIG1        0.2922
     22 C          -7.0986    6.0006    0.2537 C.ar    1  LIG1        0.0378
     23 C          -7.7415    4.7736   -0.0029 C.ar    1  LIG1        0.0255
     24 C          -9.1057    4.8466   -0.3038 C.ar    1  LIG1       -0.0073
     25 C          -9.7531    6.0807   -0.3469 C.ar    1  LIG1        0.1434
     26 C          -9.0227    7.2627   -0.0894 C.ar    1  LIG1        0.1138
     27 N          -7.7131    7.1752    0.2153 N.ar    1  LIG1       -0.2506
     28 H          -9.6743    3.9460   -0.5052 H       1  LIG1        0.0662
     29 H          -6.0416    6.0058    0.4980 H       1  LIG1        0.0836
     30 O         -11.0891    6.1560   -0.6236 O.3     1  LIG1       -0.5046
     31 H         -11.4387    5.2605   -0.7264 H       1  LIG1        0.2922
     32 C         -10.7847    8.9929   -0.7613 C.ar    1  LIG1        0.0371
     33 C          -9.5938    8.6353   -0.0977 C.ar    1  LIG1        0.0255
     34 C          -8.8916    9.6531    0.5622 C.ar    1  LIG1       -0.0079
     35 C          -9.3995   10.9479    0.5499 C.ar    1  LIG1        0.1355
     36 C         -10.5956   11.1915   -0.1351 C.ar    1  LIG1        0.0690
     37 N         -11.2693   10.2387   -0.7813 N.ar    1  LIG1       -0.2590
     38 H          -7.9605    9.4319    1.0693 H       1  LIG1        0.0661
     39 H         -11.0181   12.1982   -0.1611 H       1  LIG1        0.0867
     40 H         -11.3598    8.2518   -1.3007 H       1  LIG1        0.0836
     41 O          -8.7085   11.9257    1.2070 O.3     1  LIG1       -0.5052
     42 H          -9.1777   12.7647    1.1049 H       1  LIG1        0.2922
@<TRIPOS>BOND
     1    11    10    1
     2    10     4    1
     3    40    32    1
     4     7     3    1
     5    37    32   ar
     6    37    36   ar
     7    32    33   ar
     8    31    30    1
     9     4     3   ar
    10     4     5   ar
    11    30    25    1
    12     3     2   ar
    13    28    24    1
    14    25    24   ar
    15    25    26   ar
    16    24    23   ar
    17    39    36    1
    18    36    35   ar
    19    33    26    1
    20    33    34   ar
    21    26    27   ar
    22    17    12   ar
    23    17    16   ar
    24    19    12    1
    25    12    13   ar
    26    23    16    1
    27    23    22   ar
    28    16    15   ar
    29    13     5    1
    30    13    14   ar
    31     5     6   ar
    32    15    14   ar
    33    15    20    1
    34    14    18    1
    35    27    22   ar
    36    22    29    1
    37     2     8    1
    38     2     1   ar
    39    20    21    1
    40    35    34   ar
    41    35    41    1
    42    34    38    1
    43     6     1   ar
    44     1     9    1
    45    42    41    1
