@<TRIPOS>MOLECULE
mol_data/opt/b3lyp/geoms/mol2/6ag.out
 12 12 0 0 0
SMALL
GASTEIGER

@<TRIPOS>ATOM
      1 C          -4.6039   -2.0999    0.0001 C.ar    1  LIG1        0.0276
      2 C          -3.2091   -2.0890    0.0000 C.ar    1  LIG1       -0.0426
      3 C          -2.5458   -0.8653   -0.0002 C.ar    1  LIG1       -0.0457
      4 C          -3.3042    0.3106   -0.0003 C.ar    1  LIG1        0.0229
      5 C          -4.7020    0.1880   -0.0002 C.ar    1  LIG1        0.0407
      6 N          -5.3416   -0.9830   -0.0000 N.ar    1  LIG1       -0.2622
      7 H          -1.4605   -0.8241   -0.0002 H       1  LIG1        0.0629
      8 H          -2.6516   -3.0205    0.0001 H       1  LIG1        0.0633
      9 H          -5.3298    1.0779   -0.0002 H       1  LIG1        0.0841
     10 H          -5.1517   -3.0397    0.0002 H       1  LIG1        0.0829
     11 S          -2.4671    1.8862   -0.0005 S.3     1  LIG1       -0.1412
     12 H          -3.5776    2.6494   -0.0004 H       1  LIG1        0.1072
@<TRIPOS>BOND
     1    11    12    1
     2    11     4    1
     3     4     5   ar
     4     4     3   ar
     5     9     5    1
     6     7     3    1
     7     5     6   ar
     8     3     2   ar
     9     6     1   ar
    10     2     1   ar
    11     2     8    1
    12     1    10    1
