@<TRIPOS>MOLECULE
mol_data/opt/b3lyp/geoms/mol2/6ah13eh-6fa-13df12hl-6af12di-13he-.out
 91 98 0 0 0
SMALL
GASTEIGER

@<TRIPOS>ATOM
      1 C          -4.9797   -1.6826    2.4199 C.ar    1  LIG1        0.0284
      2 C          -3.6654   -1.7993    2.8786 C.ar    1  LIG1       -0.0418
      3 C          -2.7875   -0.7581    2.6269 C.ar    1  LIG1       -0.0375
      4 C          -3.2073    0.3862    1.9210 C.ar    1  LIG1        0.0524
      5 C          -4.5494    0.3854    1.4431 C.ar    1  LIG1        0.1089
      6 N          -5.3966   -0.6289    1.7254 N.ar    1  LIG1       -0.2516
      7 H          -1.7645   -0.7998    2.9932 H       1  LIG1        0.0637
      8 H          -3.3439   -2.6797    3.4256 H       1  LIG1        0.0633
      9 H          -5.7149   -2.4602    2.6129 H       1  LIG1        0.0830
     10 N          -2.3543    1.4633    1.8105 N.pl3   1  LIG1       -0.3563
     11 H          -1.3858    1.2732    2.0239 H       1  LIG1        0.1424
     12 H          -2.4729    2.1070    1.0401 H       1  LIG1        0.1424
     13 C          -5.1940    1.4709    0.6901 C.ar    1  LIG1        0.0846
     14 C          -4.7862    2.5318   -0.1472 C.ar    1  LIG1        0.0727
     15 C          -5.9681    3.2329   -0.5623 C.ar    1  LIG1        0.0666
     16 C          -7.0664    2.5884    0.0013 C.ar    1  LIG1        0.0742
     17 N          -6.5561    1.5202    0.7332 N.ar    1  LIG1       -0.3503
     18 H          -7.0681    0.8959    1.3420 H       1  LIG1        0.1660
     19 C          -3.5112    2.8466   -0.6714 C.1     1  LIG1       -0.0656
     20 C          -2.4557    3.1799   -1.1716 C.1     1  LIG1       -0.1138
     21 H          -1.5247    3.4391   -1.6204 H       1  LIG1        0.1232
     22 N          -5.9745    4.3641   -1.3730 N.pl3   1  LIG1       -0.3554
     23 H          -5.1137    4.4791   -1.8951 H       1  LIG1        0.1424
     24 H          -6.7855    4.4410   -1.9749 H       1  LIG1        0.1424
     25 C          -9.4794    1.8593   -0.1485 C.ar    1  LIG1        0.2223
     26 C          -8.4890    2.8828   -0.1000 C.ar    1  LIG1        0.0615
     27 C          -8.9705    4.1991   -0.1660 C.ar    1  LIG1       -0.0454
     28 C         -10.3340    4.4604   -0.2432 C.ar    1  LIG1       -0.0334
     29 C         -11.2152    3.3726   -0.2374 C.ar    1  LIG1        0.0923
     30 N         -10.7754    2.0933   -0.1975 N.ar    1  LIG1       -0.2110
     31 H          -8.2623    5.0208   -0.1259 H       1  LIG1        0.0626
     32 O          -9.1447    0.5392   -0.1371 O.3     1  LIG1       -0.4919
     33 H          -8.2071    0.4456   -0.3638 H       1  LIG1        0.2937
     34 H         -10.7014    5.4782   -0.2834 H       1  LIG1        0.0640
     35 C         -12.6654    3.5052   -0.2841 C.ar    1  LIG1        0.0868
     36 C         -13.5431    4.6086   -0.3487 C.ar    1  LIG1        0.1205
     37 C         -14.8717    4.0949   -0.3743 C.ar    1  LIG1        0.1632
     38 C         -14.7782    2.6951   -0.3188 C.ar    1  LIG1        0.1278
     39 N         -13.4314    2.3859   -0.2676 N.ar    1  LIG1       -0.3465
     40 H         -13.0152    1.4648   -0.2326 H       1  LIG1        0.1662
     41 N         -12.9009    7.1068   -0.4243 N.1     1  LIG1       -0.1907
     42 C         -13.1980    5.9802   -0.3904 C.1     1  LIG1        0.1050
     43 O         -15.9650    4.8609   -0.4482 O.3     1  LIG1       -0.5034
     44 H         -16.7723    4.2796   -0.4282 H       1  LIG1        0.2923
     45 C         -15.7993    1.6956   -0.3182 C.ar    1  LIG1        0.1796
     46 C         -17.1783    1.7513   -0.2931 C.ar    1  LIG1        0.1155
     47 C         -17.6332    0.3988   -0.3413 C.ar    1  LIG1        0.1871
     48 C         -16.5237   -0.4185   -0.3833 C.ar    1  LIG1        0.1806
     49 O         -15.4015    0.3891   -0.3602 O.2     1  LIG1       -0.4475
     50 N         -17.9559    2.9516   -0.2552 N.pl3   1  LIG1       -0.3521
     51 H         -18.6876    2.9251   -0.9632 H       1  LIG1        0.1425
     52 H         -18.4207    3.0671    0.6442 H       1  LIG1        0.1425
     53 O         -18.9440    0.0126   -0.3848 O.3     1  LIG1       -0.4896
     54 C         -19.5599   -0.1444    0.9022 C.3     1  LIG1        0.0791
     55 H         -20.5939   -0.4368    0.7138 H       1  LIG1        0.0660
     56 H         -19.0574   -0.9229    1.4865 H       1  LIG1        0.0660
     57 H         -19.5450    0.7946    1.4691 H       1  LIG1        0.0660
     58 C         -15.0400   -2.4212   -0.3129 C.ar    1  LIG1        0.0394
     59 C         -16.3256   -1.8474   -0.4462 C.ar    1  LIG1        0.0426
     60 C         -17.3926   -2.7326   -0.6369 C.ar    1  LIG1       -0.0057
     61 C         -17.1755   -4.1099   -0.6749 C.ar    1  LIG1        0.1465
     62 C         -15.8462   -4.5862   -0.5212 C.ar    1  LIG1        0.1485
     63 N         -14.8181   -3.7230   -0.3511 N.ar    1  LIG1       -0.2475
     64 H         -18.4032   -2.3714   -0.7840 H       1  LIG1        0.0662
     65 H         -14.1710   -1.7852   -0.1704 H       1  LIG1        0.0837
     66 O         -18.2733   -4.8616   -0.9415 O.3     1  LIG1       -0.5045
     67 H         -18.2203   -5.7625   -0.5891 H       1  LIG1        0.2922
     68 C         -15.4385   -5.9881   -0.5898 C.ar    1  LIG1        0.1750
     69 C         -16.0020   -7.2227   -0.2995 C.ar    1  LIG1        0.1026
     70 C         -15.0048   -8.2423   -0.5235 C.ar    1  LIG1        0.0149
     71 C         -13.8954   -7.5606   -0.9609 C.ar    1  LIG1        0.1578
     72 O         -14.1629   -6.2067   -0.9982 O.2     1  LIG1       -0.4500
     73 N         -18.3771   -7.6164    0.6314 N.1     1  LIG1       -0.1907
     74 C         -17.2974   -7.4518    0.2191 C.1     1  LIG1        0.1033
     75 C         -15.1743   -9.6980   -0.2126 C.3     1  LIG1       -0.0348
     76 H         -14.2922  -10.2734   -0.4980 H       1  LIG1        0.0279
     77 H         -16.0463  -10.1156   -0.7289 H       1  LIG1        0.0279
     78 H         -15.3407   -9.8453    0.8609 H       1  LIG1        0.0279
     79 C         -12.5472   -7.8960   -1.3417 C.ar    1  LIG1        0.1045
     80 C         -11.9515   -9.0394   -1.8684 C.ar    1  LIG1        0.0688
     81 C         -10.5537   -8.7552   -2.0334 C.ar    1  LIG1        0.0633
     82 C         -10.3518   -7.4411   -1.6200 C.ar    1  LIG1        0.0195
     83 N         -11.5432   -6.9374   -1.2186 N.ar    1  LIG1       -0.3556
     84 H         -11.7178   -5.9981   -0.8959 H       1  LIG1        0.1655
     85 H          -9.4456   -6.8560   -1.6017 H       1  LIG1        0.0820
     86 N         -12.5555  -10.2633   -2.1728 N.pl3   1  LIG1       -0.3553
     87 H         -13.4345  -10.1672   -2.6691 H       1  LIG1        0.1424
     88 H         -11.9257  -10.8669   -2.6909 H       1  LIG1        0.1424
     89 C          -9.5982   -9.6611   -2.5553 C.1     1  LIG1       -0.0663
     90 C          -8.8247  -10.4732   -3.0149 C.1     1  LIG1       -0.1138
     91 H          -8.1236  -11.1718   -3.4084 H       1  LIG1        0.1232
@<TRIPOS>BOND
     1    91    90    1
     2    90    89    3
     3    88    86    1
     4    87    86    1
     5    89    81    1
     6    86    80    1
     7    81    80   ar
     8    81    82   ar
     9    24    22    1
    10    23    22    1
    11    80    79   ar
    12    21    20    1
    13    82    85    1
    14    82    83   ar
    15    22    15    1
    16    79    83   ar
    17    79    71    1
    18    83    84    1
    19    20    19    3
    20    72    71   ar
    21    72    68   ar
    22    51    50    1
    23    71    70   ar
    24    66    61    1
    25    66    67    1
    26    64    60    1
    27    77    75    1
    28    61    60   ar
    29    61    62   ar
    30    19    14    1
    31    60    59   ar
    32    68    62    1
    33    68    69   ar
    34    15    14   ar
    35    15    16   ar
    36    70    69   ar
    37    70    75    1
    38    62    63   ar
    39    76    75    1
    40    43    44    1
    41    43    37    1
    42    59    48    1
    43    59    58   ar
    44    41    42    3
    45    42    36    1
    46    53    47    1
    47    53    54    1
    48    48    49   ar
    49    48    47   ar
    50    37    36   ar
    51    37    38   ar
    52    33    32    1
    53    49    45   ar
    54    63    58   ar
    55    36    35   ar
    56    47    46   ar
    57    38    45    1
    58    38    39   ar
    59    45    46   ar
    60    58    65    1
    61    69    74    1
    62    46    50    1
    63    35    39   ar
    64    35    29    1
    65    34    28    1
    66    39    40    1
    67    50    52    1
    68    28    29   ar
    69    28    27   ar
    70    29    30   ar
    71    75    78    1
    72    30    25   ar
    73    27    31    1
    74    27    26   ar
    75    25    32    1
    76    25    26   ar
    77    14    13   ar
    78    26    16    1
    79    16    17   ar
    80    74    73    3
    81    13    17   ar
    82    13     5    1
    83    55    54    1
    84    17    18    1
    85    54    57    1
    86    54    56    1
    87    12    10    1
    88     5     6   ar
    89     5     4   ar
    90     6     1   ar
    91    10     4    1
    92    10    11    1
    93     4     3   ar
    94     1     9    1
    95     1     2   ar
    96     3     2   ar
    97     3     7    1
    98     2     8    1
