@<TRIPOS>MOLECULE
mol_data/opt/b3lyp/geoms/mol2/6ah6ah-6ah-6ah-.out
 46 49 0 0 0
SMALL
GASTEIGER

@<TRIPOS>ATOM
      1 C          -4.4346   -2.2327    0.4556 C.ar    1  LIG1        0.0284
      2 C          -3.0421   -2.2905    0.5246 C.ar    1  LIG1       -0.0418
      3 C          -2.3271   -1.1085    0.3986 C.ar    1  LIG1       -0.0375
      4 C          -3.0027    0.1104    0.2262 C.ar    1  LIG1        0.0509
      5 C          -4.4249    0.0736    0.2148 C.ar    1  LIG1        0.0930
      6 N          -5.0973   -1.0870    0.3034 N.ar    1  LIG1       -0.2531
      7 H          -1.2400   -1.1133    0.4235 H       1  LIG1        0.0637
      8 H          -2.5311   -3.2385    0.6601 H       1  LIG1        0.0633
      9 H          -5.0370   -3.1356    0.5278 H       1  LIG1        0.0830
     10 N          -2.2741    1.2897    0.1000 N.pl3   1  LIG1       -0.3563
     11 H          -1.3180    1.1636   -0.2042 H       1  LIG1        0.1424
     12 H          -2.7377    2.0425   -0.3904 H       1  LIG1        0.1424
     13 C          -4.9523    2.5443    0.6004 C.ar    1  LIG1        0.0376
     14 C          -5.2746    1.2855    0.0631 C.ar    1  LIG1        0.0220
     15 C          -6.4933    1.1868   -0.6149 C.ar    1  LIG1       -0.0283
     16 C          -7.3328    2.2944   -0.7516 C.ar    1  LIG1        0.0516
     17 C          -6.9182    3.5160   -0.1520 C.ar    1  LIG1        0.0931
     18 N          -5.7451    3.6108    0.4909 N.ar    1  LIG1       -0.2524
     19 H          -6.7816    0.2275   -1.0339 H       1  LIG1        0.0644
     20 H          -4.0434    2.6890    1.1773 H       1  LIG1        0.0836
     21 N          -8.5444    2.1731   -1.4374 N.pl3   1  LIG1       -0.3563
     22 H          -8.8577    3.0211   -1.8923 H       1  LIG1        0.1424
     23 H          -8.5810    1.3778   -2.0619 H       1  LIG1        0.1424
     24 C          -7.0673    6.0031   -0.3669 C.ar    1  LIG1        0.0376
     25 C          -7.7188    4.7662   -0.2102 C.ar    1  LIG1        0.0220
     26 C          -9.1106    4.7993   -0.0867 C.ar    1  LIG1       -0.0283
     27 C          -9.8023    6.0187   -0.1054 C.ar    1  LIG1        0.0516
     28 C          -9.0426    7.2079   -0.2486 C.ar    1  LIG1        0.0931
     29 N          -7.7064    7.1674   -0.3956 N.ar    1  LIG1       -0.2524
     30 H          -9.6699    3.8782    0.0518 H       1  LIG1        0.0644
     31 H          -5.9863    6.0295   -0.4667 H       1  LIG1        0.0836
     32 N         -11.1916    6.0287    0.0492 N.pl3   1  LIG1       -0.3563
     33 H         -11.6581    6.8175   -0.3797 H       1  LIG1        0.1424
     34 H         -11.6385    5.1525   -0.1878 H       1  LIG1        0.1424
     35 C          -9.1383    9.5281   -1.1703 C.ar    1  LIG1        0.0369
     36 C          -9.6517    8.5642   -0.2834 C.ar    1  LIG1        0.0220
     37 C         -10.7022    8.9520    0.5575 C.ar    1  LIG1       -0.0289
     38 C         -11.2032   10.2599    0.4882 C.ar    1  LIG1        0.0435
     39 C         -10.6207   11.1233   -0.4556 C.ar    1  LIG1        0.0482
     40 N          -9.6164   10.7709   -1.2597 N.ar    1  LIG1       -0.2608
     41 H         -11.1048    8.2584    1.2904 H       1  LIG1        0.0643
     42 H         -10.9860   12.1466   -0.5491 H       1  LIG1        0.0848
     43 H          -8.3099    9.2661   -1.8213 H       1  LIG1        0.0836
     44 N         -12.1914   10.7098    1.3608 N.pl3   1  LIG1       -0.3568
     45 H         -12.7073   11.5213    1.0500 H       1  LIG1        0.1424
     46 H         -12.7950    9.9963    1.7449 H       1  LIG1        0.1424
@<TRIPOS>BOND
     1    23    21    1
     2    22    21    1
     3    43    35    1
     4    21    16    1
     5    40    35   ar
     6    40    39   ar
     7    35    36   ar
     8    19    15    1
     9    16    15   ar
    10    16    17   ar
    11    15    14   ar
    12    42    39    1
    13    31    24    1
    14    39    38   ar
    15    29    24   ar
    16    29    28   ar
    17    12    10    1
    18    33    32    1
    19    24    25   ar
    20    36    28    1
    21    36    37   ar
    22    28    27   ar
    23    25    17    1
    24    25    26   ar
    25    11    10    1
    26    34    32    1
    27    17    18   ar
    28    27    26   ar
    29    27    32    1
    30    26    30    1
    31    14     5    1
    32    14    13   ar
    33    10     4    1
    34     5     4   ar
    35     5     6   ar
    36     4     3   ar
    37     6     1   ar
    38     3     7    1
    39     3     2   ar
    40     1     2   ar
    41     1     9    1
    42    38    37   ar
    43    38    44    1
    44    18    13   ar
    45     2     8    1
    46    37    41    1
    47    13    20    1
    48    45    44    1
    49    44    46    1
