@<TRIPOS>MOLECULE
mol_data/opt/b3lyp/geoms/mol2/6ah6ah-.out
 24 25 0 0 0
SMALL
GASTEIGER

@<TRIPOS>ATOM
      1 C          -4.5076   -2.0522    0.4626 C.ar    1  LIG1        0.0284
      2 C          -3.1441   -2.1269    0.1764 C.ar    1  LIG1       -0.0418
      3 C          -2.4794   -0.9596   -0.1707 C.ar    1  LIG1       -0.0375
      4 C          -3.1711    0.2617   -0.2100 C.ar    1  LIG1        0.0509
      5 C          -4.5507    0.2432    0.1372 C.ar    1  LIG1        0.0930
      6 N          -5.1828   -0.9035    0.4389 N.ar    1  LIG1       -0.2531
      7 H          -1.4215   -0.9784   -0.4218 H       1  LIG1        0.0637
      8 H          -2.6195   -3.0765    0.2127 H       1  LIG1        0.0633
      9 H          -5.0756   -2.9433    0.7207 H       1  LIG1        0.0830
     10 N          -2.4925    1.4266   -0.5565 N.pl3   1  LIG1       -0.3563
     11 H          -1.6538    1.2795   -1.1018 H       1  LIG1        0.1424
     12 H          -3.0654    2.1751   -0.9221 H       1  LIG1        0.1424
     13 C          -4.9517    2.7255    0.5664 C.ar    1  LIG1        0.0369
     14 C          -5.4071    1.4622    0.1495 C.ar    1  LIG1        0.0220
     15 C          -6.7519    1.3512   -0.2243 C.ar    1  LIG1       -0.0289
     16 C          -7.5802    2.4764   -0.1986 C.ar    1  LIG1        0.0435
     17 C          -7.0006    3.6932    0.2137 C.ar    1  LIG1        0.0482
     18 N          -5.7319    3.8141    0.5944 N.ar    1  LIG1       -0.2608
     19 H          -7.1384    0.3789   -0.5139 H       1  LIG1        0.0643
     20 H          -7.6082    4.5984    0.2413 H       1  LIG1        0.0848
     21 H          -3.9357    2.8597    0.9261 H       1  LIG1        0.0836
     22 N          -8.9339    2.4001   -0.5119 N.pl3   1  LIG1       -0.3568
     23 H          -9.3638    3.2679   -0.8005 H       1  LIG1        0.1424
     24 H          -9.2023    1.6238   -1.1003 H       1  LIG1        0.1424
@<TRIPOS>BOND
     1    11    10    1
     2    24    22    1
     3    12    10    1
     4    23    22    1
     5    10     4    1
     6    19    15    1
     7    22    16    1
     8     7     3    1
     9    15    16   ar
    10    15    14   ar
    11     4     3   ar
    12     4     5   ar
    13    16    17   ar
    14     3     2   ar
    15     5    14    1
    16     5     6   ar
    17    14    13   ar
    18     2     8    1
    19     2     1   ar
    20    17    20    1
    21    17    18   ar
    22     6     1   ar
    23     1     9    1
    24    13    18   ar
    25    13    21    1
