@<TRIPOS>MOLECULE
mol_data/opt/b3lyp/geoms/mol2/6ah6ah-4ah6ah.out
 47 50 0 0 0
SMALL
GASTEIGER

@<TRIPOS>ATOM
      1 C          -4.5039   -2.2965    0.0764 C.ar    1  LIG1        0.0284
      2 C          -3.1146   -2.3846    0.1699 C.ar    1  LIG1       -0.0418
      3 C          -2.3802   -1.2075    0.1846 C.ar    1  LIG1       -0.0375
      4 C          -3.0344    0.0332    0.1261 C.ar    1  LIG1        0.0509
      5 C          -4.4563    0.0221    0.0787 C.ar    1  LIG1        0.0930
      6 N          -5.1468   -1.1302    0.0303 N.ar    1  LIG1       -0.2531
      7 H          -1.2941   -1.2328    0.2330 H       1  LIG1        0.0637
      8 H          -2.6205   -3.3499    0.2168 H       1  LIG1        0.0633
      9 H          -5.1208   -3.1918    0.0400 H       1  LIG1        0.0830
     10 N          -2.2868    1.2079    0.1398 N.pl3   1  LIG1       -0.3563
     11 H          -1.3284    1.0995   -0.1640 H       1  LIG1        0.1424
     12 H          -2.7334    2.0141   -0.2760 H       1  LIG1        0.1424
     13 C          -4.9605    2.4460    0.7133 C.ar    1  LIG1        0.0376
     14 C          -5.2834    1.2582    0.0343 C.ar    1  LIG1        0.0220
     15 C          -6.4818    1.2555   -0.6850 C.ar    1  LIG1       -0.0283
     16 C          -7.3028    2.3852   -0.7240 C.ar    1  LIG1        0.0515
     17 C          -6.8914    3.5295    0.0167 C.ar    1  LIG1        0.0916
     18 N          -5.7354    3.5308    0.6970 N.ar    1  LIG1       -0.2525
     19 H          -6.7712    0.3527   -1.2144 H       1  LIG1        0.0644
     20 H          -4.0673    2.5130    1.3280 H       1  LIG1        0.0836
     21 N          -8.4901    2.3533   -1.4579 N.pl3   1  LIG1       -0.3563
     22 H          -8.8048    3.2546   -1.7931 H       1  LIG1        0.1424
     23 H          -8.5052    1.6488   -2.1837 H       1  LIG1        0.1424
     24 C          -6.9839    6.0222    0.1041 C.ar    1  LIG1       -0.0518
     25 C          -7.6956    7.2106    0.1771 C.ar    1  LIG1       -0.0516
     26 C          -7.6713    4.7972    0.0711 C.ar    1  LIG1        0.0039
     27 C          -9.0988    7.2493    0.2408 C.ar    1  LIG1        0.0043
     28 H          -7.1558    8.1528    0.2109 H       1  LIG1        0.0624
     29 C          -9.0703    4.8161    0.1352 C.ar    1  LIG1       -0.0312
     30 C          -9.7972    6.0161    0.2287 C.ar    1  LIG1        0.0330
     31 H          -9.6208    3.8801    0.1590 H       1  LIG1        0.0643
     32 H          -5.9007    6.0204    0.0899 H       1  LIG1        0.0624
     33 N         -11.1857    5.9549    0.3432 N.pl3   1  LIG1       -0.3575
     34 H         -11.6886    6.7867    0.0667 H       1  LIG1        0.1423
     35 H         -11.6068    5.1066   -0.0083 H       1  LIG1        0.1423
     36 C         -10.8100    8.8359    1.2351 C.ar    1  LIG1        0.0354
     37 C          -9.7896    8.5637    0.3045 C.ar    1  LIG1        0.0037
     38 C          -9.4090    9.6071   -0.5500 C.ar    1  LIG1       -0.0303
     39 C         -10.0312   10.8573   -0.4570 C.ar    1  LIG1        0.0435
     40 C         -11.0452   10.9992    0.5094 C.ar    1  LIG1        0.0482
     41 N         -11.4225   10.0218    1.3306 N.ar    1  LIG1       -0.2608
     42 H          -8.6324    9.4406   -1.2925 H       1  LIG1        0.0643
     43 H         -11.5631   11.9533    0.6126 H       1  LIG1        0.0848
     44 H         -11.1259    8.0715    1.9396 H       1  LIG1        0.0836
     45 N          -9.6401   11.9335   -1.2487 N.pl3   1  LIG1       -0.3568
     46 H          -9.1945   11.6930   -2.1232 H       1  LIG1        0.1424
     47 H         -10.3317   12.6619   -1.3609 H       1  LIG1        0.1424
@<TRIPOS>BOND
     1    23    21    1
     2    46    45    1
     3    22    21    1
     4    21    16    1
     5    47    45    1
     6    42    38    1
     7    45    39    1
     8    19    15    1
     9    16    15   ar
    10    16    17   ar
    11    15    14   ar
    12    38    39   ar
    13    38    37   ar
    14    39    40   ar
    15    12    10    1
    16    11    10    1
    17    35    33    1
    18    17    26    1
    19    17    18   ar
    20     6     1   ar
    21     6     5   ar
    22    14     5    1
    23    14    13   ar
    24     9     1    1
    25    34    33    1
    26    26    24   ar
    27    26    29   ar
    28     1     2   ar
    29     5     4   ar
    30    32    24    1
    31    24    25   ar
    32     4    10    1
    33     4     3   ar
    34    29    31    1
    35    29    30   ar
    36     2     3   ar
    37     2     8    1
    38    25    28    1
    39    25    27   ar
    40     3     7    1
    41    30    27   ar
    42    30    33    1
    43    27    37    1
    44    37    36   ar
    45    40    43    1
    46    40    41   ar
    47    18    13   ar
    48    13    20    1
    49    36    41   ar
    50    36    44    1
