@<TRIPOS>MOLECULE
mol_data/opt/b3lyp/geoms/mol2/6ah6ah6ah6ah.out
 46 49 0 0 0
SMALL
GASTEIGER

@<TRIPOS>ATOM
      1 C          -4.2056   -1.8083    1.6533 C.ar    1  LIG1        0.0284
      2 C          -3.1005   -2.2460    0.9231 C.ar    1  LIG1       -0.0418
      3 C          -2.6695   -1.4747   -0.1480 C.ar    1  LIG1       -0.0375
      4 C          -3.3308   -0.2787   -0.4615 C.ar    1  LIG1        0.0509
      5 C          -4.4182    0.1063    0.3687 C.ar    1  LIG1        0.0930
      6 N          -4.8414   -0.6684    1.3811 N.ar    1  LIG1       -0.2531
      7 H          -1.8264   -1.7933   -0.7567 H       1  LIG1        0.0637
      8 H          -2.5986   -3.1740    1.1780 H       1  LIG1        0.0633
      9 H          -4.5920   -2.3904    2.4869 H       1  LIG1        0.0830
     10 N          -2.8983    0.4994   -1.5390 N.pl3   1  LIG1       -0.3563
     11 H          -2.3728   -0.0185   -2.2319 H       1  LIG1        0.1424
     12 H          -3.6233    1.0608   -1.9676 H       1  LIG1        0.1424
     13 C          -6.5818    1.3623    0.3586 C.ar    1  LIG1        0.0376
     14 C          -5.1885    1.3618    0.1645 C.ar    1  LIG1        0.0220
     15 C          -4.6017    2.5802   -0.1876 C.ar    1  LIG1       -0.0283
     16 C          -5.3802    3.7387   -0.3197 C.ar    1  LIG1        0.0516
     17 C          -6.7730    3.6303   -0.0754 C.ar    1  LIG1        0.0931
     18 N          -7.3363    2.4482    0.2326 N.ar    1  LIG1       -0.2524
     19 H          -3.5278    2.6474   -0.3396 H       1  LIG1        0.0644
     20 H          -7.0845    0.4392    0.6312 H       1  LIG1        0.0836
     21 N          -4.7673    4.9521   -0.6483 N.pl3   1  LIG1       -0.3563
     22 H          -3.8689    4.8478   -1.1023 H       1  LIG1        0.1424
     23 H          -5.3630    5.6027   -1.1444 H       1  LIG1        0.1424
     24 C          -8.9960    4.5844   -0.7084 C.ar    1  LIG1        0.0376
     25 C          -7.7106    4.7785   -0.1700 C.ar    1  LIG1        0.0220
     26 C          -7.4042    6.0666    0.2774 C.ar    1  LIG1       -0.0283
     27 C          -8.3514    7.0972    0.1972 C.ar    1  LIG1        0.0516
     28 C          -9.6238    6.7851   -0.3457 C.ar    1  LIG1        0.0931
     29 N          -9.9031    5.5505   -0.8003 N.ar    1  LIG1       -0.2524
     30 H          -6.4345    6.2766    0.7205 H       1  LIG1        0.0644
     31 H          -9.2820    3.6006   -1.0682 H       1  LIG1        0.0836
     32 N          -8.0313    8.3705    0.6777 N.pl3   1  LIG1       -0.3563
     33 H          -7.0377    8.5553    0.7243 H       1  LIG1        0.1424
     34 H          -8.5348    9.1275    0.2335 H       1  LIG1        0.1424
     35 C         -11.5274    7.7618   -1.6361 C.ar    1  LIG1        0.0369
     36 C         -10.7163    7.7843   -0.4869 C.ar    1  LIG1        0.0220
     37 C         -11.0089    8.7400    0.4941 C.ar    1  LIG1       -0.0289
     38 C         -12.0759    9.6297    0.3031 C.ar    1  LIG1        0.0435
     39 C         -12.7973    9.5215   -0.8982 C.ar    1  LIG1        0.0482
     40 N         -12.5344    8.6136   -1.8397 N.ar    1  LIG1       -0.2608
     41 H         -10.4401    8.7707    1.4193 H       1  LIG1        0.0643
     42 H         -13.6290   10.1997   -1.0918 H       1  LIG1        0.0848
     43 H         -11.3405    7.0200   -2.4064 H       1  LIG1        0.0836
     44 N         -12.4507   10.5414    1.2873 N.pl3   1  LIG1       -0.3568
     45 H         -11.7222   10.8144    1.9320 H       1  LIG1        0.1424
     46 H         -12.9911   11.3313    0.9631 H       1  LIG1        0.1424
@<TRIPOS>BOND
     1    43    35    1
     2    11    10    1
     3    12    10    1
     4    40    35   ar
     5    40    39   ar
     6    35    36   ar
     7    10     4    1
     8    23    21    1
     9    22    21    1
    10    42    39    1
    11    31    24    1
    12    39    38   ar
    13    29    24   ar
    14    29    28   ar
    15     7     3    1
    16    24    25   ar
    17    21    16    1
    18    36    28    1
    19    36    37   ar
    20     4     3   ar
    21     4     5   ar
    22    28    27   ar
    23    19    15    1
    24    16    15   ar
    25    16    17   ar
    26    15    14   ar
    27    25    17    1
    28    25    26   ar
    29     3     2   ar
    30    17    18   ar
    31    14    13   ar
    32    14     5    1
    33    27    26   ar
    34    27    32    1
    35    18    13   ar
    36    34    32    1
    37    26    30    1
    38    38    37   ar
    39    38    44    1
    40    13    20    1
    41     5     6   ar
    42    37    41    1
    43    32    33    1
    44     2     8    1
    45     2     1   ar
    46    46    44    1
    47    44    45    1
    48     6     1   ar
    49     1     9    1
