@<TRIPOS>MOLECULE
mol_data/opt/b3lyp/geoms/mol2/6ah6ah-6ah6ah-.out
 46 49 0 0 0
SMALL
GASTEIGER

@<TRIPOS>ATOM
      1 C          -4.4175   -2.2012    0.6317 C.ar    1  LIG1        0.0284
      2 C          -3.0464   -2.3060    0.3942 C.ar    1  LIG1       -0.0418
      3 C          -2.3602   -1.1706   -0.0112 C.ar    1  LIG1       -0.0375
      4 C          -3.0383    0.0503   -0.1550 C.ar    1  LIG1        0.0509
      5 C          -4.4263    0.0683    0.1555 C.ar    1  LIG1        0.0930
      6 N          -5.0793   -1.0511    0.5125 N.ar    1  LIG1       -0.2531
      7 H          -1.2957   -1.2153   -0.2295 H       1  LIG1        0.0637
      8 H          -2.5328   -3.2550    0.5110 H       1  LIG1        0.0633
      9 H          -5.0022   -3.0685    0.9303 H       1  LIG1        0.0830
     10 N          -2.3390    1.1829   -0.5652 N.pl3   1  LIG1       -0.3563
     11 H          -1.4811    0.9883   -1.0639 H       1  LIG1        0.1424
     12 H          -2.8927    1.8972   -1.0186 H       1  LIG1        0.1424
     13 C          -4.8148    2.5839    0.3942 C.ar    1  LIG1        0.0376
     14 C          -5.2691    1.2918    0.0735 C.ar    1  LIG1        0.0220
     15 C          -6.6100    1.1760   -0.2999 C.ar    1  LIG1       -0.0283
     16 C          -7.4468    2.2950   -0.3541 C.ar    1  LIG1        0.0516
     17 C          -6.8910    3.5528    0.0151 C.ar    1  LIG1        0.0931
     18 N          -5.5984    3.6608    0.3605 N.ar    1  LIG1       -0.2524
     19 H          -7.0006    0.1930   -0.5449 H       1  LIG1        0.0644
     20 H          -3.7962    2.7501    0.7330 H       1  LIG1        0.0836
     21 N          -8.7763    2.1415   -0.7383 N.pl3   1  LIG1       -0.3563
     22 H          -9.2086    2.9540   -1.1565 H       1  LIG1        0.1424
     23 H          -8.9679    1.2925   -1.2528 H       1  LIG1        0.1424
     24 C          -9.0226    4.9221    0.3535 C.ar    1  LIG1        0.0376
     25 C          -7.6589    4.8259    0.0210 C.ar    1  LIG1        0.0220
     26 C          -7.0031    6.0231   -0.2760 C.ar    1  LIG1       -0.0283
     27 C          -7.6785    7.2473   -0.2484 C.ar    1  LIG1        0.0516
     28 C          -9.0539    7.2328    0.1196 C.ar    1  LIG1        0.0931
     29 N          -9.6820    6.0791    0.3948 N.ar    1  LIG1       -0.2524
     30 H          -5.9467    5.9913   -0.5250 H       1  LIG1        0.0644
     31 H          -9.5914    4.0426    0.6403 H       1  LIG1        0.0836
     32 N          -6.9907    8.4181   -0.5542 N.pl3   1  LIG1       -0.3563
     33 H          -6.1433    8.2807   -1.0879 H       1  LIG1        0.1424
     34 H          -7.5533    9.1812   -0.9051 H       1  LIG1        0.1424
     35 C          -9.4241    9.7054    0.6266 C.ar    1  LIG1        0.0369
     36 C          -9.9013    8.4540    0.1962 C.ar    1  LIG1        0.0220
     37 C         -11.2609    8.3587   -0.1266 C.ar    1  LIG1       -0.0289
     38 C         -12.0821    9.4857   -0.0398 C.ar    1  LIG1        0.0435
     39 C         -11.4808   10.6896    0.3787 C.ar    1  LIG1        0.0482
     40 N         -10.1975   10.7957    0.7121 N.ar    1  LIG1       -0.2608
     41 H         -11.6635    7.3954   -0.4241 H       1  LIG1        0.0643
     42 H         -12.0824   11.5963    0.4527 H       1  LIG1        0.0848
     43 H          -8.3953    9.8265    0.9518 H       1  LIG1        0.0836
     44 N         -13.4480    9.4229   -0.3003 N.pl3   1  LIG1       -0.3568
     45 H         -13.8834   10.2991   -0.5533 H       1  LIG1        0.1424
     46 H         -13.7439    8.6613   -0.8944 H       1  LIG1        0.1424
@<TRIPOS>BOND
     1    23    21    1
     2    22    21    1
     3    33    32    1
     4    11    10    1
     5    12    10    1
     6    34    32    1
     7    46    44    1
     8    21    16    1
     9    10     4    1
    10    32    27    1
    11    45    44    1
    12    19    15    1
    13    30    26    1
    14    41    37    1
    15    16    15   ar
    16    16    17   ar
    17    44    38    1
    18    15    14   ar
    19    26    27   ar
    20    26    25   ar
    21    27    28   ar
    22     7     3    1
    23     4     3   ar
    24     4     5   ar
    25    37    38   ar
    26    37    36   ar
    27    38    39   ar
    28     3     2   ar
    29    17    25    1
    30    17    18   ar
    31    25    24   ar
    32    14     5    1
    33    14    13   ar
    34    28    36    1
    35    28    29   ar
    36     5     6   ar
    37    36    35   ar
    38    24    29   ar
    39    24    31    1
    40    18    13   ar
    41    39    42    1
    42    39    40   ar
    43    13    20    1
    44     2     8    1
    45     2     1   ar
    46     6     1   ar
    47    35    40   ar
    48    35    43    1
    49     1     9    1
