@<TRIPOS>MOLECULE
mol_data/opt/b3lyp/geoms/mol2/6ah6ah-6ah.out
 35 37 0 0 0
SMALL
GASTEIGER

@<TRIPOS>ATOM
      1 C          -4.4925   -2.1452    0.4551 C.ar    1  LIG1        0.0284
      2 C          -3.1152   -2.2318    0.2488 C.ar    1  LIG1       -0.0418
      3 C          -2.4234   -1.0724   -0.0705 C.ar    1  LIG1       -0.0375
      4 C          -3.1031    0.1527   -0.1605 C.ar    1  LIG1        0.0509
      5 C          -4.4994    0.1481    0.1120 C.ar    1  LIG1        0.0930
      6 N          -5.1564   -0.9922    0.3853 N.ar    1  LIG1       -0.2531
      7 H          -1.3533   -1.1007   -0.2618 H       1  LIG1        0.0637
      8 H          -2.6006   -3.1846    0.3235 H       1  LIG1        0.0633
      9 H          -5.0809   -3.0303    0.6867 H       1  LIG1        0.0830
     10 N          -2.3985    1.3102   -0.4829 N.pl3   1  LIG1       -0.3563
     11 H          -1.5282    1.1486   -0.9719 H       1  LIG1        0.1424
     12 H          -2.9446    2.0489   -0.9053 H       1  LIG1        0.1424
     13 C          -4.9059    2.6442    0.4846 C.ar    1  LIG1        0.0376
     14 C          -5.3451    1.3720    0.0764 C.ar    1  LIG1        0.0220
     15 C          -6.6738    1.2744   -0.3428 C.ar    1  LIG1       -0.0283
     16 C          -7.5134    2.3929   -0.3588 C.ar    1  LIG1        0.0516
     17 C          -6.9721    3.6296    0.0940 C.ar    1  LIG1        0.0931
     18 N          -5.6920    3.7202    0.4862 N.ar    1  LIG1       -0.2524
     19 H          -7.0530    0.3059   -0.6545 H       1  LIG1        0.0644
     20 H          -3.8992    2.7928    0.8647 H       1  LIG1        0.0836
     21 N          -8.8300    2.2568   -0.7881 N.pl3   1  LIG1       -0.3563
     22 H          -9.2637    3.0931   -1.1544 H       1  LIG1        0.1424
     23 H          -9.0037    1.4429   -1.3619 H       1  LIG1        0.1424
     24 C          -9.1124    4.9696    0.4554 C.ar    1  LIG1        0.0369
     25 C          -7.7440    4.9017    0.1371 C.ar    1  LIG1        0.0220
     26 C          -7.0762    6.1097   -0.1005 C.ar    1  LIG1       -0.0289
     27 C          -7.7739    7.3187   -0.0423 C.ar    1  LIG1        0.0435
     28 C          -9.1487    7.2546    0.2610 C.ar    1  LIG1        0.0482
     29 N          -9.7960    6.1201    0.5129 N.ar    1  LIG1       -0.2608
     30 H          -6.0112    6.0885   -0.3097 H       1  LIG1        0.0643
     31 H          -9.7343    8.1733    0.3091 H       1  LIG1        0.0848
     32 H          -9.6691    4.0732    0.7115 H       1  LIG1        0.0836
     33 N          -7.1384    8.5443   -0.2206 N.pl3   1  LIG1       -0.3568
     34 H          -6.2779    8.5158   -0.7493 H       1  LIG1        0.1424
     35 H          -7.7374    9.3076   -0.5035 H       1  LIG1        0.1424
@<TRIPOS>BOND
     1    23    21    1
     2    22    21    1
     3    11    10    1
     4    12    10    1
     5    21    16    1
     6    34    33    1
     7    19    15    1
     8    35    33    1
     9    10     4    1
    10    16    15   ar
    11    16    17   ar
    12    15    14   ar
    13    30    26    1
    14     7     3    1
    15    33    27    1
    16     4     3   ar
    17     4     5   ar
    18    26    27   ar
    19    26    25   ar
    20     3     2   ar
    21    27    28   ar
    22    14     5    1
    23    14    13   ar
    24    17    25    1
    25    17    18   ar
    26     5     6   ar
    27    25    24   ar
    28     2     8    1
    29     2     1   ar
    30    28    31    1
    31    28    29   ar
    32     6     1   ar
    33     1     9    1
    34    24    29   ar
    35    24    32    1
    36    13    18   ar
    37    13    20    1
