@<TRIPOS>MOLECULE
mol_data/opt/b3lyp/geoms/mol2/6ah6ah6ah-6ah-.out
 46 49 0 0 0
SMALL
GASTEIGER

@<TRIPOS>ATOM
      1 C          -4.3949   -2.0641    1.0999 C.ar    1  LIG1        0.0284
      2 C          -3.1399   -2.3233    0.5487 C.ar    1  LIG1       -0.0418
      3 C          -2.5390   -1.3341   -0.2181 C.ar    1  LIG1       -0.0375
      4 C          -3.1850   -0.1039   -0.4074 C.ar    1  LIG1        0.0509
      5 C          -4.4403    0.0829    0.2327 C.ar    1  LIG1        0.0930
      6 N          -5.0214   -0.8977    0.9437 N.ar    1  LIG1       -0.2531
      7 H          -1.5715   -1.5056   -0.6844 H       1  LIG1        0.0637
      8 H          -2.6515   -3.2800    0.7048 H       1  LIG1        0.0633
      9 H          -4.9136   -2.8166    1.6896 H       1  LIG1        0.0830
     10 N          -2.5800    0.8915   -1.1793 N.pl3   1  LIG1       -0.3563
     11 H          -1.8945    0.5401   -1.8357 H       1  LIG1        0.1424
     12 H          -3.2264    1.5312   -1.6232 H       1  LIG1        0.1424
     13 C          -6.6218    1.2927    0.0450 C.ar    1  LIG1        0.0376
     14 C          -5.2188    1.3462    0.1407 C.ar    1  LIG1        0.0220
     15 C          -4.6412    2.6167    0.1751 C.ar    1  LIG1       -0.0283
     16 C          -5.4362    3.7734    0.1325 C.ar    1  LIG1        0.0516
     17 C          -6.8441    3.6033    0.0649 C.ar    1  LIG1        0.0931
     18 N          -7.3897    2.3740   -0.0017 N.ar    1  LIG1       -0.2524
     19 H          -3.5638    2.7262    0.2636 H       1  LIG1        0.0644
     20 H          -7.1197    0.3283    0.0126 H       1  LIG1        0.0836
     21 N          -4.8240    5.0230    0.1897 N.pl3   1  LIG1       -0.3563
     22 H          -3.8477    5.0275   -0.0730 H       1  LIG1        0.1424
     23 H          -5.3404    5.7852   -0.2278 H       1  LIG1        0.1424
     24 C          -7.6320    5.9547    0.6863 C.ar    1  LIG1        0.0376
     25 C          -7.8137    4.7288    0.0212 C.ar    1  LIG1        0.0220
     26 C          -9.0104    4.5719   -0.6855 C.ar    1  LIG1       -0.0283
     27 C          -9.9611    5.5938   -0.7287 C.ar    1  LIG1        0.0516
     28 C          -9.6810    6.7883   -0.0089 C.ar    1  LIG1        0.0931
     29 N          -8.5313    6.9391    0.6643 N.ar    1  LIG1       -0.2524
     30 H          -9.1930    3.6328   -1.1990 H       1  LIG1        0.0644
     31 H          -6.7530    6.1338    1.2985 H       1  LIG1        0.0836
     32 N         -11.1489    5.4123   -1.4415 N.pl3   1  LIG1       -0.3563
     33 H         -11.5580    6.2627   -1.8066 H       1  LIG1        0.1424
     34 H         -11.0970    4.6864   -2.1443 H       1  LIG1        0.1424
     35 C         -10.0817    9.2548   -0.0062 C.ar    1  LIG1        0.0369
     36 C         -10.6080    7.9508    0.0326 C.ar    1  LIG1        0.0220
     37 C         -11.9970    7.8160    0.1488 C.ar    1  LIG1       -0.0289
     38 C         -12.8038    8.9607    0.2187 C.ar    1  LIG1        0.0435
     39 C         -12.1598   10.2082    0.1490 C.ar    1  LIG1        0.0482
     40 N         -10.8380   10.3533    0.0422 N.ar    1  LIG1       -0.2608
     41 H         -12.4496    6.8313    0.2235 H       1  LIG1        0.0643
     42 H         -12.7503   11.1240    0.1912 H       1  LIG1        0.0848
     43 H          -9.0074    9.3944   -0.0769 H       1  LIG1        0.0836
     44 N         -14.1800    8.8723    0.4151 N.pl3   1  LIG1       -0.3568
     45 H         -14.7104    9.6867    0.1382 H       1  LIG1        0.1424
     46 H         -14.6119    8.0118    0.1085 H       1  LIG1        0.1424
@<TRIPOS>BOND
     1    34    32    1
     2    11    10    1
     3    33    32    1
     4    12    10    1
     5    32    27    1
     6    30    26    1
     7    10     4    1
     8    27    26   ar
     9    27    28   ar
    10    26    25   ar
    11     7     3    1
    12     4     3   ar
    13     4     5   ar
    14    23    21    1
    15     3     2   ar
    16    43    35    1
    17    22    21    1
    18    28    36    1
    19    28    29   ar
    20    35    36   ar
    21    35    40   ar
    22    18    13   ar
    23    18    17   ar
    24    20    13    1
    25    25    17    1
    26    25    24   ar
    27    36    37   ar
    28    40    39   ar
    29    13    14   ar
    30    17    16   ar
    31    46    44    1
    32    16    15   ar
    33    16    21    1
    34    45    44    1
    35    14    15   ar
    36    14     5    1
    37    37    38   ar
    38    37    41    1
    39    39    42    1
    40    39    38   ar
    41    15    19    1
    42    38    44    1
    43     5     6   ar
    44     2     8    1
    45     2     1   ar
    46    29    24   ar
    47    24    31    1
    48     6     1   ar
    49     1     9    1
