@<TRIPOS>MOLECULE
mol_data/opt/b3lyp/geoms/mol2/6ah6ah6ah6ah-.out
 46 49 0 0 0
SMALL
GASTEIGER

@<TRIPOS>ATOM
      1 C          -3.9483   -1.7633    1.5185 C.ar    1  LIG1        0.0284
      2 C          -2.9092   -2.1611    0.6771 C.ar    1  LIG1       -0.0418
      3 C          -2.6144   -1.3718   -0.4266 C.ar    1  LIG1       -0.0375
      4 C          -3.3428   -0.1971   -0.6627 C.ar    1  LIG1        0.0509
      5 C          -4.3518    0.1488    0.2765 C.ar    1  LIG1        0.0930
      6 N          -4.6449   -0.6438    1.3206 N.ar    1  LIG1       -0.2531
      7 H          -1.8274   -1.6597   -1.1197 H       1  LIG1        0.0637
      8 H          -2.3538   -3.0728    0.8734 H       1  LIG1        0.0633
      9 H          -4.2291   -2.3613    2.3826 H       1  LIG1        0.0830
     10 N          -3.0476    0.5985   -1.7736 N.pl3   1  LIG1       -0.3563
     11 H          -2.5789    0.0998   -2.5194 H       1  LIG1        0.1424
     12 H          -3.8304    1.1367   -2.1229 H       1  LIG1        0.1424
     13 C          -6.5410    1.3384    0.5059 C.ar    1  LIG1        0.0376
     14 C          -5.1771    1.3805    0.1634 C.ar    1  LIG1        0.0220
     15 C          -4.6682    2.6176   -0.2403 C.ar    1  LIG1       -0.0283
     16 C          -5.4899    3.7531   -0.2785 C.ar    1  LIG1        0.0516
     17 C          -6.8440    3.6029    0.1160 C.ar    1  LIG1        0.0931
     18 N          -7.3355    2.4021    0.4722 N.ar    1  LIG1       -0.2524
     19 H          -3.6193    2.7185   -0.5059 H       1  LIG1        0.0644
     20 H          -6.9842    0.3992    0.8231 H       1  LIG1        0.0836
     21 N          -4.9509    4.9842   -0.6646 N.pl3   1  LIG1       -0.3563
     22 H          -4.1040    4.9075   -1.2130 H       1  LIG1        0.1424
     23 H          -5.6146    5.6203   -1.0875 H       1  LIG1        0.1424
     24 C          -9.1562    4.4872   -0.2351 C.ar    1  LIG1        0.0376
     25 C          -7.8196    4.7225    0.1384 C.ar    1  LIG1        0.0220
     26 C          -7.5020    6.0208    0.5433 C.ar    1  LIG1       -0.0283
     27 C          -8.4827    7.0249    0.5846 C.ar    1  LIG1        0.0516
     28 C          -9.8048    6.6716    0.2073 C.ar    1  LIG1        0.0931
     29 N         -10.0948    5.4252   -0.2110 N.ar    1  LIG1       -0.2524
     30 H          -6.4927    6.2633    0.8641 H       1  LIG1        0.0644
     31 H          -9.4548    3.4941   -0.5569 H       1  LIG1        0.0836
     32 N          -8.1314    8.3012    1.0180 N.pl3   1  LIG1       -0.3563
     33 H          -7.1460    8.5154    0.9467 H       1  LIG1        0.1424
     34 H          -8.7184    9.0547    0.6868 H       1  LIG1        0.1424
     35 C         -11.1044    8.6584    1.1419 C.ar    1  LIG1        0.0369
     36 C         -10.9461    7.6264    0.1991 C.ar    1  LIG1        0.0220
     37 C         -11.9511    7.4740   -0.7649 C.ar    1  LIG1       -0.0289
     38 C         -13.0428    8.3456   -0.7817 C.ar    1  LIG1        0.0435
     39 C         -13.0735    9.3587    0.1977 C.ar    1  LIG1        0.0482
     40 N         -12.1427    9.5048    1.1365 N.ar    1  LIG1       -0.2608
     41 H         -11.8737    6.6599   -1.4788 H       1  LIG1        0.0643
     42 H         -13.9026   10.0670    0.2159 H       1  LIG1        0.0848
     43 H         -10.3954    8.7833    1.9547 H       1  LIG1        0.0836
     44 N         -14.0890    8.1970   -1.6875 N.pl3   1  LIG1       -0.3568
     45 H         -14.6339    9.0294   -1.8644 H       1  LIG1        0.1424
     46 H         -13.8640    7.6968   -2.5359 H       1  LIG1        0.1424
@<TRIPOS>BOND
     1    46    44    1
     2    11    10    1
     3    12    10    1
     4    45    44    1
     5    10     4    1
     6    44    38    1
     7    41    37    1
     8    22    21    1
     9     7     3    1
    10    23    21    1
    11    38    37   ar
    12    38    39   ar
    13    37    36   ar
    14    21    16    1
    15     4     3   ar
    16     4     5   ar
    17    31    24    1
    18    19    15    1
    19     3     2   ar
    20    16    15   ar
    21    16    17   ar
    22    15    14   ar
    23    24    29   ar
    24    24    25   ar
    25    29    28   ar
    26    17    25    1
    27    17    18   ar
    28    25    26   ar
    29    14     5    1
    30    14    13   ar
    31    39    42    1
    32    39    40   ar
    33    36    28    1
    34    36    35   ar
    35    28    27   ar
    36     5     6   ar
    37    18    13   ar
    38    13    20    1
    39    26    27   ar
    40    26    30    1
    41    27    32    1
    42     2     8    1
    43     2     1   ar
    44    34    32    1
    45    33    32    1
    46    40    35   ar
    47    35    43    1
    48     6     1   ar
    49     1     9    1
