@<TRIPOS>MOLECULE
mol_data/opt/b3lyp/geoms/mol2/6ah6ah.out
 24 25 0 0 0
SMALL
GASTEIGER

@<TRIPOS>ATOM
      1 C          -4.5286   -2.0388    0.5915 C.ar    1  LIG1        0.0284
      2 C          -3.1553   -2.1313    0.3655 C.ar    1  LIG1       -0.0418
      3 C          -2.4817   -1.0011   -0.0784 C.ar    1  LIG1       -0.0375
      4 C          -3.1798    0.1995   -0.2725 C.ar    1  LIG1        0.0509
      5 C          -4.5697    0.2055    0.0243 C.ar    1  LIG1        0.0930
      6 N          -5.2101   -0.9048    0.4242 N.ar    1  LIG1       -0.2531
      7 H          -1.4149   -1.0374   -0.2868 H       1  LIG1        0.0637
      8 H          -2.6287   -3.0676    0.5210 H       1  LIG1        0.0633
      9 H          -5.1011   -2.9032    0.9204 H       1  LIG1        0.0830
     10 N          -2.5026    1.3384   -0.7158 N.pl3   1  LIG1       -0.3563
     11 H          -1.6464    1.1374   -1.2164 H       1  LIG1        0.1424
     12 H          -3.0801    2.0029   -1.2149 H       1  LIG1        0.1424
     13 C          -6.7247    1.2875   -0.6333 C.ar    1  LIG1        0.0369
     14 C          -5.4214    1.4178   -0.1211 C.ar    1  LIG1        0.0220
     15 C          -5.0019    2.6960    0.2666 C.ar    1  LIG1       -0.0289
     16 C          -5.8741    3.7859    0.1317 C.ar    1  LIG1        0.0435
     17 C          -7.1444    3.5298   -0.4125 C.ar    1  LIG1        0.0482
     18 N          -7.5603    2.3175   -0.7822 N.ar    1  LIG1       -0.2608
     19 H          -4.0188    2.8433    0.7052 H       1  LIG1        0.0643
     20 H          -7.8516    4.3498   -0.5422 H       1  LIG1        0.0848
     21 H          -7.0875    0.3069   -0.9257 H       1  LIG1        0.0836
     22 N          -5.5256    5.0588    0.5776 N.pl3   1  LIG1       -0.3568
     23 H          -4.5349    5.2544    0.6123 H       1  LIG1        0.1424
     24 H          -6.0513    5.8192    0.1693 H       1  LIG1        0.1424
@<TRIPOS>BOND
     1    11    10    1
     2    12    10    1
     3    21    13    1
     4    18    13   ar
     5    18    17   ar
     6    10     4    1
     7    13    14   ar
     8    20    17    1
     9    17    16   ar
    10     7     3    1
    11     4     3   ar
    12     4     5   ar
    13    14     5    1
    14    14    15   ar
    15     3     2   ar
    16     5     6   ar
    17    16    15   ar
    18    16    22    1
    19    24    22    1
    20    15    19    1
    21     2     8    1
    22     2     1   ar
    23     6     1   ar
    24    22    23    1
    25     1     9    1
