@<TRIPOS>MOLECULE
mol_data/opt/b3lyp/geoms/mol2/6ah6ed12ha13fh-.out
 45 48 0 0 0
SMALL
GASTEIGER

@<TRIPOS>ATOM
      1 C          -3.9625   -1.7055    1.5073 C.ar    1  LIG1        0.0284
      2 C          -2.8707   -2.0523    0.7107 C.ar    1  LIG1       -0.0418
      3 C          -2.5523   -1.2421   -0.3714 C.ar    1  LIG1       -0.0375
      4 C          -3.3211   -0.0991   -0.6350 C.ar    1  LIG1        0.0510
      5 C          -4.3985    0.1783    0.2464 C.ar    1  LIG1        0.0942
      6 N          -4.7028   -0.6193    1.2791 N.ar    1  LIG1       -0.2530
      7 H          -1.7158   -1.4870   -1.0215 H       1  LIG1        0.0637
      8 H          -2.2864   -2.9409    0.9288 H       1  LIG1        0.0633
      9 H          -4.2507   -2.3171    2.3593 H       1  LIG1        0.0830
     10 N          -3.0014    0.7440   -1.6983 N.pl3   1  LIG1       -0.3563
     11 H          -2.4509    0.3127   -2.4288 H       1  LIG1        0.1424
     12 H          -3.7752    1.2780   -2.0715 H       1  LIG1        0.1424
     13 C          -6.6727    1.3240    0.0128 C.ar    1  LIG1        0.1232
     14 C          -5.2503    1.3884    0.0815 C.ar    1  LIG1        0.0372
     15 C          -4.6987    2.6624    0.0062 C.ar    1  LIG1       -0.0302
     16 C          -5.5127    3.8030   -0.0644 C.ar    1  LIG1        0.0815
     17 C          -6.9321    3.6454    0.0243 C.ar    1  LIG1        0.1265
     18 N          -7.4609    2.3994   -0.0006 N.ar    1  LIG1       -0.2333
     19 H          -3.6207    2.7843   -0.0181 H       1  LIG1        0.0638
     20 C          -7.3502    0.0616   -0.0888 C.1     1  LIG1       -0.0491
     21 C          -7.9437   -0.9839   -0.2146 C.1     1  LIG1       -0.1124
     22 H          -8.4586   -1.9121   -0.3058 H       1  LIG1        0.1232
     23 N          -4.3875    6.0859   -0.5372 N.1     1  LIG1       -0.1908
     24 C          -4.8913    5.0568   -0.3153 C.1     1  LIG1        0.1014
     25 C          -7.8807    4.7197    0.1266 C.ar    1  LIG1        0.1757
     26 C          -7.9044    6.0333    0.6263 C.ar    1  LIG1        0.0732
     27 C          -9.2617    6.4646    0.5773 C.ar    1  LIG1        0.0072
     28 C          -9.9932    5.4181    0.0709 C.ar    1  LIG1        0.1573
     29 O          -9.1882    4.3663   -0.2035 O.2     1  LIG1       -0.4497
     30 N          -6.8969    6.7786    1.1955 N.pl3   1  LIG1       -0.3550
     31 H          -5.9625    6.6851    0.8184 H       1  LIG1        0.1424
     32 H          -7.1478    7.7418    1.3671 H       1  LIG1        0.1424
     33 H          -9.6521    7.4211    0.8919 H       1  LIG1        0.0675
     34 C         -11.3812    5.2396   -0.2147 C.ar    1  LIG1        0.1260
     35 C         -12.4703    6.0976   -0.1048 C.ar    1  LIG1        0.1659
     36 C         -13.6344    5.3992   -0.5140 C.ar    1  LIG1        0.0849
     37 C         -13.2341    4.1166   -0.8684 C.ar    1  LIG1        0.0268
     38 N         -11.8851    4.0337   -0.6877 N.ar    1  LIG1       -0.3537
     39 H         -11.3053    3.2229   -0.8379 H       1  LIG1        0.1656
     40 H         -13.8079    3.2757   -1.2292 H       1  LIG1        0.0827
     41 O         -12.4531    7.3848    0.3157 O.3     1  LIG1       -0.5030
     42 H         -13.3828    7.6726    0.2637 H       1  LIG1        0.2923
     43 N         -14.9038    6.0517   -0.5018 N.pl3   1  LIG1       -0.3540
     44 H         -15.3248    6.0955   -1.4254 H       1  LIG1        0.1425
     45 H         -15.5664    5.5956    0.1189 H       1  LIG1        0.1425
@<TRIPOS>BOND
     1    11    10    1
     2    12    10    1
     3    10     4    1
     4    44    43    1
     5    40    37    1
     6     7     3    1
     7    37    38   ar
     8    37    36   ar
     9    39    38    1
    10    38    34   ar
    11     4     3   ar
    12     4     5   ar
    13    23    24    3
    14    36    43    1
    15    36    35   ar
    16    43    45    1
    17     3     2   ar
    18    24    16    1
    19    22    21    1
    20    34    35   ar
    21    34    28    1
    22    21    20    3
    23    29    28   ar
    24    29    25   ar
    25    35    41    1
    26    20    13    1
    27    16    15   ar
    28    16    17   ar
    29    19    15    1
    30    18    13   ar
    31    18    17   ar
    32    15    14   ar
    33    13    14   ar
    34    17    25    1
    35    28    27   ar
    36    14     5    1
    37    25    26   ar
    38     5     6   ar
    39    42    41    1
    40    27    26   ar
    41    27    33    1
    42    26    30    1
    43     2     8    1
    44     2     1   ar
    45    31    30    1
    46    30    32    1
    47     6     1   ar
    48     1     9    1
