@<TRIPOS>MOLECULE
mol_data/opt/b3lyp/geoms/mol2/6ah6ah6ah.out
 35 37 0 0 0
SMALL
GASTEIGER

@<TRIPOS>ATOM
      1 C          -4.3807   -1.9348    1.1749 C.ar    1  LIG1        0.0284
      2 C          -3.1184   -2.1924    0.6399 C.ar    1  LIG1       -0.0418
      3 C          -2.5362   -1.2284   -0.1723 C.ar    1  LIG1       -0.0375
      4 C          -3.2089   -0.0239   -0.4226 C.ar    1  LIG1        0.0509
      5 C          -4.4714    0.1644    0.2024 C.ar    1  LIG1        0.0930
      6 N          -5.0332   -0.7919    0.9597 N.ar    1  LIG1       -0.2531
      7 H          -1.5635   -1.4005   -0.6273 H       1  LIG1        0.0637
      8 H          -2.6099   -3.1296    0.8431 H       1  LIG1        0.0633
      9 H          -4.8845   -2.6692    1.7993 H       1  LIG1        0.0830
     10 N          -2.6242    0.9483   -1.2390 N.pl3   1  LIG1       -0.3563
     11 H          -1.9311    0.5815   -1.8788 H       1  LIG1        0.1424
     12 H          -3.2855    1.5500   -1.7135 H       1  LIG1        0.1424
     13 C          -6.6761    1.3099   -0.0899 C.ar    1  LIG1        0.0376
     14 C          -5.2787    1.4026    0.0386 C.ar    1  LIG1        0.0220
     15 C          -4.7296    2.6876    0.0334 C.ar    1  LIG1       -0.0283
     16 C          -5.5521    3.8175   -0.0800 C.ar    1  LIG1        0.0516
     17 C          -6.9510    3.6085   -0.1835 C.ar    1  LIG1        0.0931
     18 N          -7.4706    2.3684   -0.2068 N.ar    1  LIG1       -0.2524
     19 H          -3.6572    2.8258    0.1430 H       1  LIG1        0.0644
     20 H          -7.1500    0.3328   -0.0916 H       1  LIG1        0.0836
     21 N          -4.9832    5.0941   -0.0530 N.pl3   1  LIG1       -0.3563
     22 H          -4.0049    5.1149   -0.3102 H       1  LIG1        0.1424
     23 H          -5.5158    5.8033   -0.5402 H       1  LIG1        0.1424
     24 C          -9.0332    4.5701   -1.1735 C.ar    1  LIG1        0.0369
     25 C          -7.9330    4.7185   -0.3095 C.ar    1  LIG1        0.0220
     26 C          -7.8403    5.9080    0.4236 C.ar    1  LIG1       -0.0289
     27 C          -8.8238    6.8964    0.2740 C.ar    1  LIG1        0.0435
     28 C          -9.8619    6.6388   -0.6380 C.ar    1  LIG1        0.0482
     29 N          -9.9669    5.5091   -1.3395 N.ar    1  LIG1       -0.2608
     30 H          -7.0337    6.0532    1.1368 H       1  LIG1        0.0643
     31 H         -10.6427    7.3844   -0.7920 H       1  LIG1        0.0848
     32 H          -9.1459    3.6513   -1.7406 H       1  LIG1        0.0836
     33 N          -8.8137    8.0582    1.0424 N.pl3   1  LIG1       -0.3568
     34 H          -7.9100    8.3463    1.3903 H       1  LIG1        0.1424
     35 H          -9.3434    8.8318    0.6652 H       1  LIG1        0.1424
@<TRIPOS>BOND
     1    11    10    1
     2    32    24    1
     3    12    10    1
     4    29    24   ar
     5    29    28   ar
     6    10     4    1
     7    24    25   ar
     8    31    28    1
     9    28    27   ar
    10     7     3    1
    11    23    21    1
    12     4     3   ar
    13     4     5   ar
    14    22    21    1
    15    25    17    1
    16    25    26   ar
    17    18    17   ar
    18    18    13   ar
    19    17    16   ar
    20     3     2   ar
    21    20    13    1
    22    13    14   ar
    23    16    21    1
    24    16    15   ar
    25    15    14   ar
    26    15    19    1
    27    14     5    1
    28     5     6   ar
    29    27    26   ar
    30    27    33    1
    31    26    30    1
    32     2     8    1
    33     2     1   ar
    34    35    33    1
    35     6     1   ar
    36    33    34    1
    37     1     9    1
