@<TRIPOS>MOLECULE
mol_data/opt/b3lyp/geoms/mol2/6ah6ah-6ah-6ah.out
 46 49 0 0 0
SMALL
GASTEIGER

@<TRIPOS>ATOM
      1 C          -4.4991   -2.2661    0.1823 C.ar    1  LIG1        0.0284
      2 C          -3.1072   -2.3489    0.2382 C.ar    1  LIG1       -0.0418
      3 C          -2.3753   -1.1715    0.1887 C.ar    1  LIG1       -0.0375
      4 C          -3.0335    0.0660    0.1043 C.ar    1  LIG1        0.0509
      5 C          -4.4561    0.0510    0.0999 C.ar    1  LIG1        0.0930
      6 N          -5.1452   -1.1031    0.1131 N.ar    1  LIG1       -0.2531
      7 H          -1.2882   -1.1939    0.2061 H       1  LIG1        0.0637
      8 H          -2.6098   -3.3113    0.3055 H       1  LIG1        0.0633
      9 H          -5.1146   -3.1628    0.1964 H       1  LIG1        0.0830
     10 N          -2.2880    1.2403    0.0534 N.pl3   1  LIG1       -0.3563
     11 H          -1.3360    1.1212   -0.2658 H       1  LIG1        0.1424
     12 H          -2.7437    2.0307   -0.3822 H       1  LIG1        0.1424
     13 C          -4.9455    2.4969    0.6586 C.ar    1  LIG1        0.0376
     14 C          -5.2888    1.2826    0.0381 C.ar    1  LIG1        0.0220
     15 C          -6.5132    1.2478   -0.6358 C.ar    1  LIG1       -0.0283
     16 C          -7.3394    2.3726   -0.6877 C.ar    1  LIG1        0.0516
     17 C          -6.9051    3.5436   -0.0065 C.ar    1  LIG1        0.0931
     18 N          -5.7254    3.5779    0.6309 N.ar    1  LIG1       -0.2524
     19 H          -6.8175    0.3238   -1.1181 H       1  LIG1        0.0644
     20 H          -4.0306    2.5901    1.2367 H       1  LIG1        0.0836
     21 N          -8.5565    2.3142   -1.3708 N.pl3   1  LIG1       -0.3563
     22 H          -8.8654    3.1959   -1.7597 H       1  LIG1        0.1424
     23 H          -8.6088    1.5652   -2.0491 H       1  LIG1        0.1424
     24 C          -7.0195    6.0414   -0.0217 C.ar    1  LIG1        0.0376
     25 C          -7.6892    4.8049    0.0335 C.ar    1  LIG1        0.0220
     26 C          -9.0797    4.8503    0.1552 C.ar    1  LIG1       -0.0283
     27 C          -9.7576    6.0773    0.2351 C.ar    1  LIG1        0.0516
     28 C          -8.9801    7.2644    0.1907 C.ar    1  LIG1        0.0931
     29 N          -7.6433    7.2111    0.0415 N.ar    1  LIG1       -0.2524
     30 H          -9.6538    3.9302    0.2198 H       1  LIG1        0.0644
     31 H          -5.9379    6.0604   -0.1164 H       1  LIG1        0.0836
     32 N         -11.1422    6.0817    0.3841 N.pl3   1  LIG1       -0.3563
     33 H         -11.6164    6.9156    0.0652 H       1  LIG1        0.1424
     34 H         -11.6029    5.2330    0.0850 H       1  LIG1        0.1424
     35 C         -10.6761    8.9684    1.0446 C.ar    1  LIG1        0.0369
     36 C          -9.5581    8.6339    0.2592 C.ar    1  LIG1        0.0220
     37 C          -8.9388    9.6681   -0.4543 C.ar    1  LIG1       -0.0289
     38 C          -9.4507   10.9665   -0.3912 C.ar    1  LIG1        0.0435
     39 C         -10.5931   11.1703    0.4085 C.ar    1  LIG1        0.0482
     40 N         -11.1810   10.2073    1.1130 N.ar    1  LIG1       -0.2608
     41 H          -8.0500    9.4448   -1.0363 H       1  LIG1        0.0643
     42 H         -11.0314   12.1665    0.4802 H       1  LIG1        0.0848
     43 H         -11.1572    8.2249    1.6729 H       1  LIG1        0.0836
     44 N          -8.8358   12.0319   -1.0425 N.pl3   1  LIG1       -0.3568
     45 H          -8.2564   11.7837   -1.8321 H       1  LIG1        0.1424
     46 H          -9.4307   12.8254   -1.2366 H       1  LIG1        0.1424
@<TRIPOS>BOND
     1    23    21    1
     2    45    44    1
     3    22    21    1
     4    21    16    1
     5    46    44    1
     6    19    15    1
     7    44    38    1
     8    41    37    1
     9    16    15   ar
    10    16    17   ar
    11    15    14   ar
    12    37    38   ar
    13    37    36   ar
    14    38    39   ar
    15    12    10    1
    16    11    10    1
    17    31    24    1
    18    24    25   ar
    19    24    29   ar
    20    17    25    1
    21    17    18   ar
    22    25    26   ar
    23    14     5    1
    24    14    13   ar
    25    29    28   ar
    26    10     4    1
    27    33    32    1
    28    34    32    1
    29     5     4   ar
    30     5     6   ar
    31     4     3   ar
    32     6     1   ar
    33    26    30    1
    34    26    27   ar
    35     1     9    1
    36     1     2   ar
    37     3     7    1
    38     3     2   ar
    39    28    27   ar
    40    28    36    1
    41    27    32    1
    42     2     8    1
    43    36    35   ar
    44    39    42    1
    45    39    40   ar
    46    18    13   ar
    47    13    20    1
    48    35    40   ar
    49    35    43    1
