@<TRIPOS>MOLECULE
mol_data/opt/b3lyp/geoms/mol2/6ah6ah6ah-6ah.out
 46 49 0 0 0
SMALL
GASTEIGER

@<TRIPOS>ATOM
      1 C          -4.3121   -2.0240    1.2046 C.ar    1  LIG1        0.0284
      2 C          -3.0873   -2.2978    0.5954 C.ar    1  LIG1       -0.0418
      3 C          -2.5383   -1.3375   -0.2437 C.ar    1  LIG1       -0.0375
      4 C          -3.2044   -0.1204   -0.4468 C.ar    1  LIG1        0.0509
      5 C          -4.4239    0.0846    0.2539 C.ar    1  LIG1        0.0930
      6 N          -4.9565   -0.8690    1.0357 N.ar    1  LIG1       -0.2531
      7 H          -1.5969   -1.5221   -0.7560 H       1  LIG1        0.0637
      8 H          -2.5830   -3.2442    0.7630 H       1  LIG1        0.0633
      9 H          -4.7909   -2.7548    1.8525 H       1  LIG1        0.0830
     10 N          -2.6525    0.8465   -1.2917 N.pl3   1  LIG1       -0.3563
     11 H          -2.0033    0.4719   -1.9718 H       1  LIG1        0.1424
     12 H          -3.3298    1.4616   -1.7244 H       1  LIG1        0.1424
     13 C          -6.6229    1.2711    0.1253 C.ar    1  LIG1        0.0376
     14 C          -5.2175    1.3377    0.1514 C.ar    1  LIG1        0.0220
     15 C          -4.6495    2.6124    0.1083 C.ar    1  LIG1       -0.0283
     16 C          -5.4559    3.7605    0.0592 C.ar    1  LIG1        0.0516
     17 C          -6.8637    3.5786    0.0655 C.ar    1  LIG1        0.0931
     18 N          -7.4017    2.3444    0.0729 N.ar    1  LIG1       -0.2524
     19 H          -3.5700    2.7323    0.1392 H       1  LIG1        0.0644
     20 H          -7.1135    0.3027    0.1544 H       1  LIG1        0.0836
     21 N          -4.8533    5.0169    0.0381 N.pl3   1  LIG1       -0.3563
     22 H          -3.8926    5.0173   -0.2773 H       1  LIG1        0.1424
     23 H          -5.3988    5.7556   -0.3846 H       1  LIG1        0.1424
     24 C          -7.6428    5.9433    0.6454 C.ar    1  LIG1        0.0376
     25 C          -7.8427    4.6963    0.0253 C.ar    1  LIG1        0.0220
     26 C          -9.0647    4.5123   -0.6264 C.ar    1  LIG1       -0.0283
     27 C         -10.0285    5.5249   -0.6615 C.ar    1  LIG1        0.0516
     28 C          -9.7306    6.7422    0.0151 C.ar    1  LIG1        0.0931
     29 N          -8.5518    6.9174    0.6318 N.ar    1  LIG1       -0.2524
     30 H          -9.2617    3.5579   -1.1053 H       1  LIG1        0.0644
     31 H          -6.7396    6.1475    1.2131 H       1  LIG1        0.0836
     32 N         -11.2320    5.3045   -1.3245 N.pl3   1  LIG1       -0.3563
     33 H         -11.7060    6.1296   -1.6654 H       1  LIG1        0.1424
     34 H         -11.2066    4.5582   -2.0058 H       1  LIG1        0.1424
     35 C         -12.0566    7.7842    0.1374 C.ar    1  LIG1        0.0369
     36 C         -10.6569    7.9061    0.0683 C.ar    1  LIG1        0.0220
     37 C         -10.1202    9.1996    0.1020 C.ar    1  LIG1       -0.0289
     38 C         -10.9675   10.3079    0.1755 C.ar    1  LIG1        0.0435
     39 C         -12.3538   10.0573    0.2113 C.ar    1  LIG1        0.0482
     40 N         -12.8825    8.8368    0.2043 N.ar    1  LIG1       -0.2608
     41 H          -9.0414    9.3203    0.0898 H       1  LIG1        0.0643
     42 H         -13.0526   10.8932    0.2595 H       1  LIG1        0.0848
     43 H         -12.5284    6.8073    0.1811 H       1  LIG1        0.0836
     44 N         -10.4742   11.6066    0.2651 N.pl3   1  LIG1       -0.3568
     45 H          -9.5396   11.7432   -0.0935 H       1  LIG1        0.1424
     46 H         -11.1094   12.3344   -0.0320 H       1  LIG1        0.1424
@<TRIPOS>BOND
     1    34    32    1
     2    11    10    1
     3    12    10    1
     4    33    32    1
     5    32    27    1
     6    10     4    1
     7    30    26    1
     8     7     3    1
     9    27    26   ar
    10    27    28   ar
    11    26    25   ar
    12     4     3   ar
    13     4     5   ar
    14    23    21    1
    15    22    21    1
    16     3     2   ar
    17    45    44    1
    18    46    44    1
    19    28    36    1
    20    28    29   ar
    21    25    17    1
    22    25    24   ar
    23    21    16    1
    24    16    17   ar
    25    16    15   ar
    26    17    18   ar
    27    36    37   ar
    28    36    35   ar
    29    18    13   ar
    30    41    37    1
    31    37    38   ar
    32    15    19    1
    33    15    14   ar
    34    13    14   ar
    35    13    20    1
    36    35    43    1
    37    35    40   ar
    38    14     5    1
    39    38    39   ar
    40    38    44    1
    41    40    39   ar
    42    39    42    1
    43     5     6   ar
    44     2     8    1
    45     2     1   ar
    46    29    24   ar
    47    24    31    1
    48     6     1   ar
    49     1     9    1
