@<TRIPOS>MOLECULE
mol_data/opt/b3lyp/geoms/mol2/6ai4ad6hd-6fh.out
 49 52 0 0 0
SMALL
GASTEIGER

@<TRIPOS>ATOM
      1 C          -4.4588   -2.2933    0.1951 C.ar    1  LIG1        0.0283
      2 C          -3.0719   -2.3779    0.0818 C.ar    1  LIG1       -0.0433
      3 C          -2.3585   -1.1920   -0.0453 C.ar    1  LIG1       -0.0554
      4 C          -3.0189    0.0424   -0.0856 C.ar    1  LIG1       -0.0245
      5 C          -4.4307    0.0099   -0.0010 C.ar    1  LIG1        0.0739
      6 N          -5.1196   -1.1368    0.1580 N.ar    1  LIG1       -0.2547
      7 H          -1.2730   -1.2121   -0.0999 H       1  LIG1        0.0621
      8 H          -2.5691   -3.3390    0.1121 H       1  LIG1        0.0633
      9 H          -5.0639   -3.1886    0.3231 H       1  LIG1        0.0830
     10 C          -2.1976    1.3091   -0.1667 C.3     1  LIG1       -0.0377
     11 H          -2.6557    2.1330    0.3855 H       1  LIG1        0.0278
     12 H          -2.0588    1.6445   -1.2015 H       1  LIG1        0.0278
     13 H          -1.2004    1.1373    0.2480 H       1  LIG1        0.0278
     14 C          -5.0628    2.3120   -0.8980 C.ar    1  LIG1       -0.0519
     15 C          -5.9261    3.4059   -0.9266 C.ar    1  LIG1       -0.0521
     16 C          -5.2938    1.2276   -0.0393 C.ar    1  LIG1        0.0018
     17 C          -7.0530    3.4747   -0.0996 C.ar    1  LIG1        0.0028
     18 H          -5.7375    4.2188   -1.6207 H       1  LIG1        0.0624
     19 C          -6.4271    1.2735    0.7822 C.ar    1  LIG1       -0.0346
     20 C          -7.2881    2.3784    0.7695 C.ar    1  LIG1        0.0602
     21 H          -6.6348    0.4377    1.4393 H       1  LIG1        0.0637
     22 H          -4.2232    2.2935   -1.5829 H       1  LIG1        0.0624
     23 N          -9.3028    2.3743    2.4121 N.1     1  LIG1       -0.1908
     24 C          -8.3993    2.3867    1.6791 C.1     1  LIG1        0.0998
     25 C          -9.2971    4.6423   -0.5177 C.ar    1  LIG1        0.1247
     26 C          -7.9264    4.6774   -0.1313 C.ar    1  LIG1        0.0241
     27 C          -7.4080    5.9305    0.1505 C.ar    1  LIG1       -0.0312
     28 C          -8.1966    7.0952    0.1192 C.ar    1  LIG1        0.0785
     29 C          -9.5774    6.9631   -0.1950 C.ar    1  LIG1        0.0956
     30 N         -10.0571    5.7462   -0.5249 N.ar    1  LIG1       -0.2304
     31 H          -6.3589    6.0222    0.4130 H       1  LIG1        0.0638
     32 N          -9.8982    3.5022   -0.9596 N.pl3   1  LIG1       -0.3426
     33 H         -10.9065    3.5054   -0.9961 H       1  LIG1        0.1437
     34 H          -9.4577    2.6120   -0.7948 H       1  LIG1        0.1437
     35 N          -6.9041    9.3006    0.5447 N.1     1  LIG1       -0.1908
     36 C          -7.5220    8.3312    0.3550 C.1     1  LIG1        0.1013
     37 C         -11.7631    7.9867   -0.9775 C.ar    1  LIG1        0.2219
     38 C         -10.5498    8.0726   -0.2227 C.ar    1  LIG1        0.0647
     39 C         -10.3306    9.2666    0.4835 C.ar    1  LIG1       -0.0252
     40 C         -11.2215   10.3344    0.3891 C.ar    1  LIG1        0.0438
     41 C         -12.3375   10.1445   -0.4421 C.ar    1  LIG1        0.0520
     42 N         -12.6031    9.0147   -1.0898 N.ar    1  LIG1       -0.2191
     43 H          -9.4654    9.3686    1.1261 H       1  LIG1        0.0645
     44 H         -13.0590   10.9526   -0.5709 H       1  LIG1        0.0849
     45 O         -12.1346    6.8786   -1.6351 O.3     1  LIG1       -0.4919
     46 H         -11.5009    6.1716   -1.3584 H       1  LIG1        0.2937
     47 N         -11.0507   11.5091    1.1335 N.pl3   1  LIG1       -0.3568
     48 H         -10.0843   11.7373    1.3295 H       1  LIG1        0.1424
     49 H         -11.5365   12.3108    0.7522 H       1  LIG1        0.1424
@<TRIPOS>BOND
     1    45    46    1
     2    45    37    1
     3    18    15    1
     4    22    14    1
     5    12    10    1
     6    42    37   ar
     7    42    41   ar
     8    33    32    1
     9    37    38   ar
    10    32    34    1
    11    32    25    1
    12    15    14   ar
    13    15    17   ar
    14    14    16   ar
    15    44    41    1
    16    30    25   ar
    17    30    29   ar
    18    25    26   ar
    19    41    40   ar
    20    38    29    1
    21    38    39   ar
    22    29    28   ar
    23    10     4    1
    24    10    13    1
    25    10    11    1
    26    26    17    1
    27    26    27   ar
    28     7     3    1
    29    17    20   ar
    30     4     3   ar
    31     4     5   ar
    32     3     2   ar
    33    16     5    1
    34    16    19   ar
    35     5     6   ar
    36     2     8    1
    37     2     1   ar
    38    28    27   ar
    39    28    36    1
    40    27    31    1
    41     6     1   ar
    42     1     9    1
    43    36    35    3
    44    40    39   ar
    45    40    47    1
    46    39    43    1
    47    49    47    1
    48    20    19   ar
    49    20    24    1
    50    19    21    1
    51    47    48    1
    52    24    23    3
