@<TRIPOS>MOLECULE
mol_data/opt/b3lyp/geoms/mol2/6ai6ai-6ai-6ai.out
 50 53 0 0 0
SMALL
GASTEIGER

@<TRIPOS>ATOM
      1 C          -4.5041   -2.2503   -0.3176 C.ar    1  LIG1        0.0283
      2 C          -3.1138   -2.3401   -0.3543 C.ar    1  LIG1       -0.0433
      3 C          -2.3877   -1.1571   -0.2764 C.ar    1  LIG1       -0.0554
      4 C          -3.0378    0.0799   -0.1926 C.ar    1  LIG1       -0.0244
      5 C          -4.4536    0.0597   -0.2039 C.ar    1  LIG1        0.0753
      6 N          -5.1562   -1.0906   -0.2424 N.ar    1  LIG1       -0.2547
      7 H          -1.3009   -1.1842   -0.2647 H       1  LIG1        0.0621
      8 H          -2.6194   -3.3037   -0.4218 H       1  LIG1        0.0633
      9 H          -5.1210   -3.1467   -0.3484 H       1  LIG1        0.0830
     10 C          -2.2066    1.3346   -0.0506 C.3     1  LIG1       -0.0377
     11 H          -2.6983    2.0837    0.5745 H       1  LIG1        0.0278
     12 H          -2.0008    1.8041   -1.0196 H       1  LIG1        0.0278
     13 H          -1.2392    1.0960    0.4009 H       1  LIG1        0.0278
     14 C          -5.0130    2.4734   -0.8168 C.ar    1  LIG1        0.0374
     15 C          -5.3022    1.2820   -0.1383 C.ar    1  LIG1        0.0190
     16 C          -6.4941    1.2641    0.5952 C.ar    1  LIG1       -0.0462
     17 C          -7.3363    2.3745    0.6526 C.ar    1  LIG1       -0.0238
     18 C          -6.9453    3.5171   -0.0880 C.ar    1  LIG1        0.0753
     19 N          -5.7986    3.5484   -0.7936 N.ar    1  LIG1       -0.2540
     20 H          -6.7563    0.3591    1.1343 H       1  LIG1        0.0628
     21 H          -4.1229    2.5592   -1.4337 H       1  LIG1        0.0836
     22 C          -8.5742    2.3096    1.5184 C.3     1  LIG1       -0.0377
     23 H          -8.4431    1.5632    2.3067 H       1  LIG1        0.0278
     24 H          -9.4615    2.0164    0.9448 H       1  LIG1        0.0278
     25 H          -8.7937    3.2704    1.9906 H       1  LIG1        0.0278
     26 C          -7.0440    6.0142   -0.1178 C.ar    1  LIG1        0.0374
     27 C          -7.7231    4.7841   -0.1398 C.ar    1  LIG1        0.0190
     28 C          -9.1139    4.8523   -0.2426 C.ar    1  LIG1       -0.0462
     29 C          -9.7846    6.0773   -0.3329 C.ar    1  LIG1       -0.0238
     30 C          -8.9917    7.2469   -0.3192 C.ar    1  LIG1        0.0753
     31 N          -7.6490    7.1940   -0.1910 N.ar    1  LIG1       -0.2540
     32 H          -9.7016    3.9405   -0.2718 H       1  LIG1        0.0628
     33 H          -5.9604    6.0228   -0.0355 H       1  LIG1        0.0836
     34 C         -11.2952    6.0741   -0.4029 C.3     1  LIG1       -0.0377
     35 H         -11.6929    5.1660    0.0598 H       1  LIG1        0.0278
     36 H         -11.6592    6.0933   -1.4367 H       1  LIG1        0.0278
     37 H         -11.7305    6.9356    0.1090 H       1  LIG1        0.0278
     38 C         -10.5904    8.9899   -1.2679 C.ar    1  LIG1        0.0367
     39 C          -9.5404    8.6288   -0.4084 C.ar    1  LIG1        0.0189
     40 C          -8.9567    9.6549    0.3458 C.ar    1  LIG1       -0.0468
     41 C          -9.4419   10.9605    0.2582 C.ar    1  LIG1       -0.0317
     42 C         -10.5111   11.1803   -0.6195 C.ar    1  LIG1        0.0305
     43 N         -11.0712   10.2317   -1.3772 N.ar    1  LIG1       -0.2623
     44 H          -8.1171    9.4153    0.9914 H       1  LIG1        0.0628
     45 H         -10.9305   12.1813   -0.7196 H       1  LIG1        0.0832
     46 H         -11.0446    8.2510   -1.9220 H       1  LIG1        0.0836
     47 C          -8.8418   12.0862    1.0632 C.3     1  LIG1       -0.0383
     48 H          -9.3780   13.0241    0.8941 H       1  LIG1        0.0278
     49 H          -7.7914   12.2488    0.7971 H       1  LIG1        0.0278
     50 H          -8.8732   11.8706    2.1368 H       1  LIG1        0.0278
@<TRIPOS>BOND
     1    46    38    1
     2    36    34    1
     3    21    14    1
     4    43    38   ar
     5    43    42   ar
     6    38    39   ar
     7    12    10    1
     8    14    19   ar
     9    14    15   ar
    10    19    18   ar
    11    45    42    1
    12    42    41   ar
    13     8     2    1
    14    39    30    1
    15    39    40   ar
    16    34    29    1
    17    34    35    1
    18    34    37    1
    19     2     1   ar
    20     2     3   ar
    21     9     1    1
    22    29    30   ar
    23    29    28   ar
    24    30    31   ar
    25     1     6   ar
    26     3     7    1
    27     3     4   ar
    28    32    28    1
    29    28    27   ar
    30     6     5   ar
    31     5     4   ar
    32     5    15    1
    33     4    10    1
    34    31    26   ar
    35    27    26   ar
    36    27    18    1
    37    15    16   ar
    38    26    33    1
    39    18    17   ar
    40    10    13    1
    41    10    11    1
    42    41    40   ar
    43    41    47    1
    44    40    44    1
    45    16    17   ar
    46    16    20    1
    47    17    22    1
    48    49    47    1
    49    48    47    1
    50    24    22    1
    51    47    50    1
    52    22    25    1
    53    22    23    1
