@<TRIPOS>MOLECULE
mol_data/opt/b3lyp/geoms/mol2/6ai6ai.out
 26 27 0 0 0
SMALL
GASTEIGER

@<TRIPOS>ATOM
      1 C          -4.5994   -2.0413   -0.6279 C.ar    1  LIG1        0.0283
      2 C          -3.2239   -2.1715   -0.4459 C.ar    1  LIG1       -0.0433
      3 C          -2.5185   -1.0512   -0.0203 C.ar    1  LIG1       -0.0554
      4 C          -3.1723    0.1680    0.1912 C.ar    1  LIG1       -0.0244
      5 C          -4.5655    0.1990   -0.0585 C.ar    1  LIG1        0.0753
      6 N          -5.2537   -0.8951   -0.4395 N.ar    1  LIG1       -0.2547
      7 H          -1.4494   -1.1179    0.1666 H       1  LIG1        0.0621
      8 H          -2.7274   -3.1217   -0.6144 H       1  LIG1        0.0633
      9 H          -5.2032   -2.8929   -0.9363 H       1  LIG1        0.0830
     10 C          -2.3797    1.3486    0.7047 C.3     1  LIG1       -0.0377
     11 H          -2.9748    1.9849    1.3638 H       1  LIG1        0.0278
     12 H          -2.0086    1.9808   -0.1108 H       1  LIG1        0.0278
     13 H          -1.5052    1.0021    1.2631 H       1  LIG1        0.0278
     14 C          -6.6787    1.2989    0.6997 C.ar    1  LIG1        0.0367
     15 C          -5.4058    1.4181    0.1117 C.ar    1  LIG1        0.0189
     16 C          -5.0256    2.6900   -0.3258 C.ar    1  LIG1       -0.0468
     17 C          -5.8862    3.7812   -0.1606 C.ar    1  LIG1       -0.0317
     18 C          -7.1149    3.5289    0.4561 C.ar    1  LIG1        0.0305
     19 N          -7.5139    2.3220    0.8793 N.ar    1  LIG1       -0.2623
     20 H          -4.0712    2.8348   -0.8236 H       1  LIG1        0.0628
     21 H          -7.8188    4.3463    0.6111 H       1  LIG1        0.0832
     22 H          -7.0183    0.3216    1.0318 H       1  LIG1        0.0836
     23 C          -5.5122    5.1631   -0.6357 C.3     1  LIG1       -0.0383
     24 H          -6.3061    5.8833   -0.4200 H       1  LIG1        0.0278
     25 H          -5.3324    5.1788   -1.7166 H       1  LIG1        0.0278
     26 H          -4.5968    5.5203   -0.1505 H       1  LIG1        0.0278
@<TRIPOS>BOND
     1    25    23    1
     2     9     1    1
     3    20    16    1
     4    23    24    1
     5    23    17    1
     6    23    26    1
     7     1     2   ar
     8     1     6   ar
     9     8     2    1
    10     2     3   ar
    11     6     5   ar
    12    16    17   ar
    13    16    15   ar
    14    17    18   ar
    15    12    10    1
    16     5    15    1
    17     5     4   ar
    18     3     7    1
    19     3     4   ar
    20    15    14   ar
    21     4    10    1
    22    18    21    1
    23    18    19   ar
    24    14    19   ar
    25    14    22    1
    26    10    13    1
    27    10    11    1
