@<TRIPOS>MOLECULE
mol_data/opt/b3lyp/geoms/mol2/6ai6ai-.out
 26 27 0 0 0
SMALL
GASTEIGER

@<TRIPOS>ATOM
      1 C          -4.5068   -2.0495   -0.5813 C.ar    1  LIG1        0.0283
      2 C          -3.1566   -2.1405   -0.2485 C.ar    1  LIG1       -0.0433
      3 C          -2.5063   -0.9740    0.1378 C.ar    1  LIG1       -0.0554
      4 C          -3.1841    0.2506    0.1619 C.ar    1  LIG1       -0.0244
      5 C          -4.5437    0.2367   -0.2332 C.ar    1  LIG1        0.0753
      6 N          -5.1826   -0.9007   -0.5726 N.ar    1  LIG1       -0.2547
      7 H          -1.4626   -1.0061    0.4407 H       1  LIG1        0.0621
      8 H          -2.6398   -3.0945   -0.2729 H       1  LIG1        0.0633
      9 H          -5.0710   -2.9361   -0.8654 H       1  LIG1        0.0830
     10 C          -2.4530    1.4834    0.6430 C.3     1  LIG1       -0.0377
     11 H          -3.1159    2.1742    1.1690 H       1  LIG1        0.0278
     12 H          -1.9958    2.0393   -0.1838 H       1  LIG1        0.0278
     13 H          -1.6449    1.2002    1.3239 H       1  LIG1        0.0278
     14 C          -4.9638    2.6900   -0.7740 C.ar    1  LIG1        0.0367
     15 C          -5.4045    1.4532   -0.2779 C.ar    1  LIG1        0.0189
     16 C          -6.7426    1.3717    0.1273 C.ar    1  LIG1       -0.0468
     17 C          -7.5690    2.4948    0.0660 C.ar    1  LIG1       -0.0317
     18 C          -6.9976    3.6740   -0.4286 C.ar    1  LIG1        0.0305
     19 N          -5.7335    3.7794   -0.8515 N.ar    1  LIG1       -0.2623
     20 H          -7.1244    0.4187    0.4812 H       1  LIG1        0.0628
     21 H          -7.6000    4.5799   -0.4931 H       1  LIG1        0.0832
     22 H          -3.9523    2.8003   -1.1554 H       1  LIG1        0.0836
     23 C          -9.0106    2.4445    0.5072 C.3     1  LIG1       -0.0383
     24 H          -9.0947    2.1799    1.5672 H       1  LIG1        0.0278
     25 H          -9.5736    1.6940   -0.0586 H       1  LIG1        0.0278
     26 H          -9.5028    3.4104    0.3642 H       1  LIG1        0.0278
@<TRIPOS>BOND
     1    22    14    1
     2     9     1    1
     3    19    14   ar
     4    19    18   ar
     5    14    15   ar
     6     1     6   ar
     7     1     2   ar
     8     6     5   ar
     9    21    18    1
    10    18    17   ar
    11    15     5    1
    12    15    16   ar
    13     8     2    1
    14     2     3   ar
    15     5     4   ar
    16    12    10    1
    17    25    23    1
    18    17    16   ar
    19    17    23    1
    20    16    20    1
    21     3     4   ar
    22     3     7    1
    23     4    10    1
    24    26    23    1
    25    23    24    1
    26    10    11    1
    27    10    13    1
