@<TRIPOS>MOLECULE
mol_data/opt/b3lyp/geoms/mol2/6ai6ai6ai-6ai.out
 50 53 0 0 0
SMALL
GASTEIGER

@<TRIPOS>ATOM
      1 C          -4.3417   -1.9754   -1.4318 C.ar    1  LIG1        0.0283
      2 C          -3.1490   -2.3092   -0.7929 C.ar    1  LIG1       -0.0433
      3 C          -2.6106   -1.3856    0.0962 C.ar    1  LIG1       -0.0554
      4 C          -3.2375   -0.1538    0.3161 C.ar    1  LIG1       -0.0244
      5 C          -4.4245    0.0989   -0.4133 C.ar    1  LIG1        0.0753
      6 N          -4.9639   -0.8108   -1.2491 N.ar    1  LIG1       -0.2547
      7 H          -1.6998   -1.6203    0.6418 H       1  LIG1        0.0621
      8 H          -2.6701   -3.2664   -0.9724 H       1  LIG1        0.0633
      9 H          -4.8196   -2.6718   -2.1183 H       1  LIG1        0.0830
     10 C          -2.6487    0.7999    1.3303 C.3     1  LIG1       -0.0377
     11 H          -3.4211    1.3683    1.8536 H       1  LIG1        0.0278
     12 H          -1.9673    1.5236    0.8672 H       1  LIG1        0.0278
     13 H          -2.0683    0.2480    2.0755 H       1  LIG1        0.0278
     14 C          -6.6149    1.2982   -0.2896 C.ar    1  LIG1        0.0374
     15 C          -5.2111    1.3583   -0.3050 C.ar    1  LIG1        0.0190
     16 C          -4.6505    2.6356   -0.2466 C.ar    1  LIG1       -0.0462
     17 C          -5.4460    3.7858   -0.1899 C.ar    1  LIG1       -0.0238
     18 C          -6.8470    3.5994   -0.2002 C.ar    1  LIG1        0.0753
     19 N          -7.3991    2.3677   -0.2274 N.ar    1  LIG1       -0.2540
     20 H          -3.5719    2.7569   -0.2603 H       1  LIG1        0.0628
     21 H          -7.1072    0.3302   -0.3293 H       1  LIG1        0.0836
     22 C          -4.7656    5.1321   -0.0857 C.3     1  LIG1       -0.0377
     23 H          -5.3339    5.8309    0.5328 H       1  LIG1        0.0278
     24 H          -4.6297    5.6024   -1.0666 H       1  LIG1        0.0278
     25 H          -3.7709    5.0192    0.3553 H       1  LIG1        0.0278
     26 C          -7.6929    5.9279   -0.8192 C.ar    1  LIG1        0.0374
     27 C          -7.8406    4.7059   -0.1488 C.ar    1  LIG1        0.0190
     28 C          -9.0321    4.5374    0.5665 C.ar    1  LIG1       -0.0462
     29 C         -10.0067    5.5343    0.6161 C.ar    1  LIG1       -0.0238
     30 C          -9.7497    6.7213   -0.1130 C.ar    1  LIG1        0.0753
     31 N          -8.6057    6.8971   -0.8018 N.ar    1  LIG1       -0.2540
     32 H          -9.1876    3.6039    1.0983 H       1  LIG1        0.0628
     33 H          -6.8137    6.1266   -1.4253 H       1  LIG1        0.0836
     34 C         -11.2376    5.3088    1.4649 C.3     1  LIG1       -0.0377
     35 H         -11.0201    4.5879    2.2579 H       1  LIG1        0.0278
     36 H         -12.0695    4.9004    0.8797 H       1  LIG1        0.0278
     37 H         -11.5904    6.2329    1.9291 H       1  LIG1        0.0278
     38 C         -12.0726    7.7568   -0.2830 C.ar    1  LIG1        0.0367
     39 C         -10.6789    7.8845   -0.1690 C.ar    1  LIG1        0.0189
     40 C         -10.1593    9.1855   -0.1725 C.ar    1  LIG1       -0.0468
     41 C         -11.0118   10.2877   -0.2477 C.ar    1  LIG1       -0.0317
     42 C         -12.3841   10.0209   -0.3328 C.ar    1  LIG1        0.0305
     43 N         -12.9123    8.7930   -0.3632 N.ar    1  LIG1       -0.2623
     44 H          -9.0826    9.3176   -0.1234 H       1  LIG1        0.0628
     45 H         -13.0925   10.8473   -0.3877 H       1  LIG1        0.0832
     46 H         -12.5316    6.7742   -0.3439 H       1  LIG1        0.0836
     47 C         -10.4850   11.7012   -0.2424 C.3     1  LIG1       -0.0383
     48 H         -11.3002   12.4281   -0.2944 H       1  LIG1        0.0278
     49 H          -9.8210   11.8813   -1.0952 H       1  LIG1        0.0278
     50 H          -9.9081   11.9091    0.6656 H       1  LIG1        0.0278
@<TRIPOS>BOND
     1     9     1    1
     2     1     6   ar
     3     1     2   ar
     4    33    26    1
     5     6     5   ar
     6    49    47    1
     7    24    22    1
     8     8     2    1
     9    26    31   ar
    10    26    27   ar
    11    31    30   ar
    12     2     3   ar
    13     5    15    1
    14     5     4   ar
    15    45    42    1
    16    43    42   ar
    17    43    38   ar
    18    46    38    1
    19    42    41   ar
    20    21    14    1
    21    15    14   ar
    22    15    16   ar
    23    48    47    1
    24    14    19   ar
    25    38    39   ar
    26    20    16    1
    27    41    47    1
    28    41    40   ar
    29    16    17   ar
    30    47    50    1
    31    19    18   ar
    32    18    17   ar
    33    18    27    1
    34    17    22    1
    35    40    39   ar
    36    40    44    1
    37    39    30    1
    38    27    28   ar
    39    30    29   ar
    40    22    25    1
    41    22    23    1
    42     3     4   ar
    43     3     7    1
    44     4    10    1
    45    28    29   ar
    46    28    32    1
    47    29    34    1
    48    12    10    1
    49    36    34    1
    50    10    11    1
    51    10    13    1
    52    34    37    1
    53    34    35    1
