@<TRIPOS>MOLECULE
mol_data/opt/b3lyp/geoms/mol2/6ai6ai6ai6ai.out
 50 53 0 0 0
SMALL
GASTEIGER

@<TRIPOS>ATOM
      1 C          -4.3477   -1.7854   -1.8475 C.ar    1  LIG1        0.0283
      2 C          -3.2710   -2.3033   -1.1300 C.ar    1  LIG1       -0.0433
      3 C          -2.8089   -1.5742   -0.0399 C.ar    1  LIG1       -0.0554
      4 C          -3.3940   -0.3498    0.3024 C.ar    1  LIG1       -0.0244
      5 C          -4.4567    0.1021   -0.5169 C.ar    1  LIG1        0.0753
      6 N          -4.9262   -0.6212   -1.5528 N.ar    1  LIG1       -0.2547
      7 H          -1.9938   -1.9592    0.5680 H       1  LIG1        0.0621
      8 H          -2.8239   -3.2531   -1.4051 H       1  LIG1        0.0633
      9 H          -4.7654   -2.3277   -2.6938 H       1  LIG1        0.0830
     10 C          -2.8994    0.3843    1.5279 C.3     1  LIG1       -0.0377
     11 H          -3.7063    0.9119    2.0421 H       1  LIG1        0.0278
     12 H          -2.1297    1.1257    1.2817 H       1  LIG1        0.0278
     13 H          -2.4495   -0.3201    2.2334 H       1  LIG1        0.0278
     14 C          -6.5771    1.4260   -0.4545 C.ar    1  LIG1        0.0374
     15 C          -5.1815    1.3841   -0.2983 C.ar    1  LIG1        0.0190
     16 C          -4.5614    2.5917    0.0284 C.ar    1  LIG1       -0.0462
     17 C          -5.2937    3.7744    0.1783 C.ar    1  LIG1       -0.0238
     18 C          -6.6907    3.6949   -0.0193 C.ar    1  LIG1        0.0753
     19 N          -7.3039    2.5283   -0.3098 N.ar    1  LIG1       -0.2540
     20 H          -3.4842    2.6315    0.1563 H       1  LIG1        0.0628
     21 H          -7.1131    0.5151   -0.7070 H       1  LIG1        0.0836
     22 C          -4.5640    5.0398    0.5690 C.3     1  LIG1       -0.0377
     23 H          -5.1690    5.6749    1.2206 H       1  LIG1        0.0278
     24 H          -4.2845    5.6405   -0.3048 H       1  LIG1        0.0278
     25 H          -3.6378    4.7954    1.0971 H       1  LIG1        0.0278
     26 C          -8.8675    4.6715    0.7222 C.ar    1  LIG1        0.0374
     27 C          -7.6177    4.8515    0.1051 C.ar    1  LIG1        0.0190
     28 C          -7.3514    6.1324   -0.3835 C.ar    1  LIG1       -0.0462
     29 C          -8.2850    7.1683   -0.2703 C.ar    1  LIG1       -0.0238
     30 C          -9.5124    6.8627    0.3593 C.ar    1  LIG1        0.0753
     31 N          -9.7714    5.6355    0.8568 N.ar    1  LIG1       -0.2540
     32 H          -6.4094    6.3394   -0.8813 H       1  LIG1        0.0628
     33 H          -9.1291    3.6949    1.1205 H       1  LIG1        0.0836
     34 C          -7.9192    8.5398   -0.7915 C.3     1  LIG1       -0.0377
     35 H          -8.3449    9.3368   -0.1770 H       1  LIG1        0.0278
     36 H          -8.2706    8.6973   -1.8182 H       1  LIG1        0.0278
     37 H          -6.8323    8.6633   -0.8038 H       1  LIG1        0.0278
     38 C         -11.3111    7.8476    1.7863 C.ar    1  LIG1        0.0367
     39 C         -10.6076    7.8496    0.5670 C.ar    1  LIG1        0.0189
     40 C         -11.0230    8.7671   -0.4027 C.ar    1  LIG1       -0.0468
     41 C         -12.0828    9.6426   -0.1402 C.ar    1  LIG1       -0.0317
     42 C         -12.6821    9.5500    1.1190 C.ar    1  LIG1        0.0305
     43 N         -12.3157    8.6774    2.0673 N.ar    1  LIG1       -0.2623
     44 H         -10.5461    8.7865   -1.3781 H       1  LIG1        0.0628
     45 H         -13.5086   10.2131    1.3734 H       1  LIG1        0.0832
     46 H         -11.0331    7.1323    2.5556 H       1  LIG1        0.0836
     47 C         -12.5648   10.6330   -1.1710 C.3     1  LIG1       -0.0383
     48 H         -13.4003   11.2258   -0.7889 H       1  LIG1        0.0278
     49 H         -12.9038   10.1278   -2.0825 H       1  LIG1        0.0278
     50 H         -11.7690   11.3275   -1.4632 H       1  LIG1        0.0278
@<TRIPOS>BOND
     1     9     1    1
     2    49    47    1
     3     1     6   ar
     4     1     2   ar
     5    36    34    1
     6     6     5   ar
     7    50    47    1
     8     8     2    1
     9    44    40    1
    10    47    48    1
    11    47    41    1
    12     2     3   ar
    13    32    28    1
    14    37    34    1
    15    34    29    1
    16    34    35    1
    17    21    14    1
    18     5    15    1
    19     5     4   ar
    20    14    19   ar
    21    14    15   ar
    22    40    41   ar
    23    40    39   ar
    24    28    29   ar
    25    28    27   ar
    26    19    18   ar
    27    24    22    1
    28    15    16   ar
    29    29    30   ar
    30    41    42   ar
    31     3     4   ar
    32     3     7    1
    33    18    27    1
    34    18    17   ar
    35    16    20    1
    36    16    17   ar
    37    27    26   ar
    38    17    22    1
    39     4    10    1
    40    30    39    1
    41    30    31   ar
    42    39    38   ar
    43    22    25    1
    44    22    23    1
    45    26    31   ar
    46    26    33    1
    47    42    45    1
    48    42    43   ar
    49    12    10    1
    50    10    11    1
    51    10    13    1
    52    38    43   ar
    53    38    46    1
