@<TRIPOS>MOLECULE
mol_data/opt/b3lyp/geoms/mol2/6ai6ai-6ai-6ai-.out
 50 53 0 0 0
SMALL
GASTEIGER

@<TRIPOS>ATOM
      1 C          -4.3742   -2.1767   -0.7239 C.ar    1  LIG1        0.0283
      2 C          -2.9815   -2.2285   -0.7282 C.ar    1  LIG1       -0.0433
      3 C          -2.2900   -1.0452   -0.4953 C.ar    1  LIG1       -0.0554
      4 C          -2.9755    0.1585   -0.2922 C.ar    1  LIG1       -0.0244
      5 C          -4.3894    0.1058   -0.3484 C.ar    1  LIG1        0.0753
      6 N          -5.0595   -1.0490   -0.5379 N.ar    1  LIG1       -0.2547
      7 H          -1.2036   -1.0475   -0.4539 H       1  LIG1        0.0621
      8 H          -2.4595   -3.1662   -0.8890 H       1  LIG1        0.0633
      9 H          -4.9653   -3.0783   -0.8744 H       1  LIG1        0.0830
     10 C          -2.1838    1.4090    0.0153 C.3     1  LIG1       -0.0377
     11 H          -2.7143    2.0708    0.7038 H       1  LIG1        0.0278
     12 H          -1.9630    1.9889   -0.8884 H       1  LIG1        0.0278
     13 H          -1.2237    1.1450    0.4682 H       1  LIG1        0.0278
     14 C          -4.9992    2.5587   -0.7034 C.ar    1  LIG1        0.0374
     15 C          -5.2721    1.2921   -0.1695 C.ar    1  LIG1        0.0190
     16 C          -6.4800    1.1632    0.5257 C.ar    1  LIG1       -0.0462
     17 C          -7.3523    2.2399    0.6849 C.ar    1  LIG1       -0.0238
     18 C          -6.9741    3.4676    0.0882 C.ar    1  LIG1        0.0753
     19 N          -5.8131    3.6055   -0.5801 N.ar    1  LIG1       -0.2540
     20 H          -6.7306    0.1974    0.9532 H       1  LIG1        0.0628
     21 H          -4.0976    2.7344   -1.2837 H       1  LIG1        0.0836
     22 C          -8.6088    2.0489    1.5038 C.3     1  LIG1       -0.0377
     23 H          -8.4742    1.2285    2.2141 H       1  LIG1        0.0278
     24 H          -9.4711    1.7906    0.8776 H       1  LIG1        0.0278
     25 H          -8.8710    2.9483    2.0663 H       1  LIG1        0.0278
     26 C          -7.1381    5.9478    0.3503 C.ar    1  LIG1        0.0374
     27 C          -7.7833    4.7138    0.1617 C.ar    1  LIG1        0.0190
     28 C          -9.1723    4.7607    0.0236 C.ar    1  LIG1       -0.0462
     29 C          -9.8717    5.9719    0.0608 C.ar    1  LIG1       -0.0238
     30 C          -9.1113    7.1490    0.2416 C.ar    1  LIG1        0.0753
     31 N          -7.7718    7.1140    0.4012 N.ar    1  LIG1       -0.2540
     32 H          -9.7342    3.8455   -0.1338 H       1  LIG1        0.0628
     33 H          -6.0577    5.9719    0.4649 H       1  LIG1        0.0836
     34 C         -11.3788    5.9469   -0.0609 C.3     1  LIG1       -0.0377
     35 H         -11.7700    4.9819    0.2746 H       1  LIG1        0.0278
     36 H         -11.7101    6.0832   -1.0973 H       1  LIG1        0.0278
     37 H         -11.8498    6.7311    0.5366 H       1  LIG1        0.0278
     38 C          -9.1955    9.4332    1.2508 C.ar    1  LIG1        0.0367
     39 C          -9.6989    8.5154    0.3096 C.ar    1  LIG1        0.0189
     40 C         -10.7066    8.9725   -0.5447 C.ar    1  LIG1       -0.0468
     41 C         -11.1860   10.2828   -0.4360 C.ar    1  LIG1       -0.0317
     42 C         -10.6143   11.0846    0.5558 C.ar    1  LIG1        0.0305
     43 N          -9.6410   10.6823    1.3840 N.ar    1  LIG1       -0.2623
     44 H         -11.1038    8.3230   -1.3192 H       1  LIG1        0.0628
     45 H         -10.9571   12.1111    0.6840 H       1  LIG1        0.0832
     46 H          -8.3947    9.1221    1.9161 H       1  LIG1        0.0836
     47 C         -12.2596   10.8112   -1.3545 C.3     1  LIG1       -0.0383
     48 H         -13.1718   10.2068   -1.2952 H       1  LIG1        0.0278
     49 H         -11.9315   10.7997   -2.4001 H       1  LIG1        0.0278
     50 H         -12.5249   11.8411   -1.1009 H       1  LIG1        0.0278
@<TRIPOS>BOND
     1    49    47    1
     2    47    48    1
     3    47    50    1
     4    47    41    1
     5    44    40    1
     6    21    14    1
     7    36    34    1
     8     8     2    1
     9    12    10    1
    10     9     1    1
    11     2     1   ar
    12     2     3   ar
    13     1     6   ar
    14    14    19   ar
    15    14    15   ar
    16    19    18   ar
    17    40    41   ar
    18    40    39   ar
    19     6     5   ar
    20     3     7    1
    21     3     4   ar
    22    41    42   ar
    23     5     4   ar
    24     5    15    1
    25     4    10    1
    26    15    16   ar
    27    32    28    1
    28    34    29    1
    29    34    35    1
    30    34    37    1
    31    10    13    1
    32    10    11    1
    33    28    29   ar
    34    28    27   ar
    35    29    30   ar
    36    18    27    1
    37    18    17   ar
    38    27    26   ar
    39    30    39    1
    40    30    31   ar
    41    39    38   ar
    42    26    31   ar
    43    26    33    1
    44    16    17   ar
    45    16    20    1
    46    42    45    1
    47    42    43   ar
    48    17    22    1
    49    24    22    1
    50    38    43   ar
    51    38    46    1
    52    22    25    1
    53    22    23    1
