@<TRIPOS>MOLECULE
mol_data/opt/b3lyp/geoms/mol2/6ai6ai6ai-6ai-.out
 50 53 0 0 0
SMALL
GASTEIGER

@<TRIPOS>ATOM
      1 C          -4.3844   -1.9824   -1.3933 C.ar    1  LIG1        0.0283
      2 C          -3.1748   -2.3114   -0.7843 C.ar    1  LIG1       -0.0433
      3 C          -2.6067   -1.3760    0.0736 C.ar    1  LIG1       -0.0554
      4 C          -3.2221   -0.1381    0.2919 C.ar    1  LIG1       -0.0244
      5 C          -4.4287    0.1084   -0.4068 C.ar    1  LIG1        0.0753
      6 N          -4.9962   -0.8122   -1.2115 N.ar    1  LIG1       -0.2547
      7 H          -1.6812   -1.6061    0.5958 H       1  LIG1        0.0621
      8 H          -2.7052   -3.2734   -0.9624 H       1  LIG1        0.0633
      9 H          -4.8851   -2.6876   -2.0542 H       1  LIG1        0.0830
     10 C          -2.6001    0.8290    1.2731 C.3     1  LIG1       -0.0377
     11 H          -3.3545    1.4082    1.8106 H       1  LIG1        0.0278
     12 H          -1.9307    1.5432    0.7788 H       1  LIG1        0.0278
     13 H          -1.9994    0.2864    2.0088 H       1  LIG1        0.0278
     14 C          -6.6085    1.3223   -0.2416 C.ar    1  LIG1        0.0374
     15 C          -5.2053    1.3740   -0.2976 C.ar    1  LIG1        0.0190
     16 C          -4.6364    2.6487   -0.2779 C.ar    1  LIG1       -0.0462
     17 C          -5.4237    3.8045   -0.2199 C.ar    1  LIG1       -0.0238
     18 C          -6.8253    3.6260   -0.1874 C.ar    1  LIG1        0.0753
     19 N          -7.3849    2.3972   -0.1768 N.ar    1  LIG1       -0.2540
     20 H          -3.5580    2.7633   -0.3242 H       1  LIG1        0.0628
     21 H          -7.1067    0.3565   -0.2501 H       1  LIG1        0.0836
     22 C          -4.7339    5.1487   -0.1600 C.3     1  LIG1       -0.0377
     23 H          -5.2833    5.8637    0.4570 H       1  LIG1        0.0278
     24 H          -4.6191    5.5975   -1.1536 H       1  LIG1        0.0278
     25 H          -3.7294    5.0393    0.2593 H       1  LIG1        0.0278
     26 C          -7.6764    5.9465   -0.8277 C.ar    1  LIG1        0.0374
     27 C          -7.8110    4.7393   -0.1284 C.ar    1  LIG1        0.0190
     28 C          -8.9825    4.5908    0.6238 C.ar    1  LIG1       -0.0462
     29 C          -9.9485    5.5952    0.6816 C.ar    1  LIG1       -0.0238
     30 C          -9.7045    6.7674   -0.0751 C.ar    1  LIG1        0.0753
     31 N          -8.5821    6.9227   -0.8023 N.ar    1  LIG1       -0.2540
     32 H          -9.1285    3.6678    1.1761 H       1  LIG1        0.0628
     33 H          -6.8147    6.1268   -1.4640 H       1  LIG1        0.0836
     34 C         -11.1609    5.3943    1.5624 C.3     1  LIG1       -0.0377
     35 H         -10.9323    4.6836    2.3615 H       1  LIG1        0.0278
     36 H         -12.0098    4.9837    1.0029 H       1  LIG1        0.0278
     37 H         -11.4940    6.3288    2.0206 H       1  LIG1        0.0278
     38 C         -10.0893    9.2360   -0.1037 C.ar    1  LIG1        0.0367
     39 C         -10.6274    7.9353   -0.1196 C.ar    1  LIG1        0.0189
     40 C         -12.0172    7.8261   -0.2247 C.ar    1  LIG1       -0.0468
     41 C         -12.8135    8.9749   -0.2948 C.ar    1  LIG1       -0.0317
     42 C         -12.1531   10.2059   -0.2512 C.ar    1  LIG1        0.0305
     43 N         -10.8239   10.3467   -0.1594 N.ar    1  LIG1       -0.2623
     44 H         -12.4869    6.8490   -0.2837 H       1  LIG1        0.0628
     45 H         -12.7294   11.1295   -0.2999 H       1  LIG1        0.0832
     46 H          -9.0116    9.3610   -0.0449 H       1  LIG1        0.0836
     47 C         -14.3141    8.8903   -0.4224 C.3     1  LIG1       -0.0383
     48 H         -14.7609    8.3716    0.4335 H       1  LIG1        0.0278
     49 H         -14.6081    8.3399   -1.3232 H       1  LIG1        0.0278
     50 H         -14.7627    9.8858   -0.4792 H       1  LIG1        0.0278
@<TRIPOS>BOND
     1     9     1    1
     2    33    26    1
     3     1     6   ar
     4     1     2   ar
     5    49    47    1
     6     6     5   ar
     7    24    22    1
     8     8     2    1
     9    26    31   ar
    10    26    27   ar
    11    31    30   ar
    12     2     3   ar
    13    50    47    1
    14    47    41    1
    15    47    48    1
    16     5    15    1
    17     5     4   ar
    18    20    16    1
    19    45    42    1
    20    15    16   ar
    21    15    14   ar
    22    41    42   ar
    23    41    40   ar
    24    44    40    1
    25    16    17   ar
    26    42    43   ar
    27    21    14    1
    28    14    19   ar
    29    40    39   ar
    30    17    18   ar
    31    17    22    1
    32    18    19   ar
    33    18    27    1
    34    22    25    1
    35    22    23    1
    36    43    38   ar
    37    27    28   ar
    38    39    38   ar
    39    39    30    1
    40    38    46    1
    41    30    29   ar
    42     3     4   ar
    43     3     7    1
    44     4    10    1
    45    28    29   ar
    46    28    32    1
    47    29    34    1
    48    12    10    1
    49    36    34    1
    50    10    11    1
    51    10    13    1
    52    34    37    1
    53    34    35    1
