@<TRIPOS>MOLECULE
mol_data/opt/b3lyp/geoms/mol2/6ai6ai-6ai.out
 38 40 0 0 0
SMALL
GASTEIGER

@<TRIPOS>ATOM
      1 C          -4.5128   -2.1313   -0.6077 C.ar    1  LIG1        0.0283
      2 C          -3.1413   -2.2385   -0.3845 C.ar    1  LIG1       -0.0433
      3 C          -2.4519   -1.0835   -0.0330 C.ar    1  LIG1       -0.0554
      4 C          -3.1139    0.1462    0.0638 C.ar    1  LIG1       -0.0244
      5 C          -4.5006    0.1501   -0.2235 C.ar    1  LIG1        0.0753
      6 N          -5.1745   -0.9774   -0.5284 N.ar    1  LIG1       -0.2547
      7 H          -1.3878   -1.1290    0.1856 H       1  LIG1        0.0621
      8 H          -2.6369   -3.1960   -0.4645 H       1  LIG1        0.0633
      9 H          -5.1062   -3.0085   -0.8593 H       1  LIG1        0.0830
     10 C          -2.3341    1.3637    0.5056 C.3     1  LIG1       -0.0377
     11 H          -2.9431    2.0451    1.1042 H       1  LIG1        0.0278
     12 H          -1.9472    1.9357   -0.3457 H       1  LIG1        0.0278
     13 H          -1.4714    1.0606    1.1061 H       1  LIG1        0.0278
     14 C          -4.9465    2.6268   -0.6516 C.ar    1  LIG1        0.0374
     15 C          -5.3541    1.3701   -0.1844 C.ar    1  LIG1        0.0190
     16 C          -6.6661    1.2879    0.2954 C.ar    1  LIG1       -0.0462
     17 C          -7.5119    2.3974    0.3143 C.ar    1  LIG1       -0.0238
     18 C          -6.9922    3.6107   -0.1994 C.ar    1  LIG1        0.0753
     19 N          -5.7292    3.7040   -0.6580 N.ar    1  LIG1       -0.2540
     20 H          -7.0224    0.3321    0.6667 H       1  LIG1        0.0628
     21 H          -3.9535    2.7688   -1.0691 H       1  LIG1        0.0836
     22 C          -8.8936    2.2504    0.9106 C.3     1  LIG1       -0.0377
     23 H          -8.9052    1.4301    1.6338 H       1  LIG1        0.0278
     24 H          -9.6462    2.0170    0.1486 H       1  LIG1        0.0278
     25 H          -9.2196    3.1605    1.4198 H       1  LIG1        0.0278
     26 C          -9.1098    4.9612   -0.6279 C.ar    1  LIG1        0.0367
     27 C          -7.7574    4.8875   -0.2577 C.ar    1  LIG1        0.0189
     28 C          -7.1044    6.0988    0.0033 C.ar    1  LIG1       -0.0468
     29 C          -7.7988    7.3071   -0.0711 C.ar    1  LIG1       -0.0317
     30 C          -9.1512    7.2380   -0.4286 C.ar    1  LIG1        0.0305
     31 N          -9.7981    6.1032   -0.7139 N.ar    1  LIG1       -0.2623
     32 H          -6.0486    6.0790    0.2564 H       1  LIG1        0.0628
     33 H          -9.7394    8.1530   -0.4955 H       1  LIG1        0.0832
     34 H          -9.6557    4.0616   -0.8981 H       1  LIG1        0.0836
     35 C          -7.1276    8.6275    0.2139 C.3     1  LIG1       -0.0383
     36 H          -7.8334    9.4581    0.1263 H       1  LIG1        0.0278
     37 H          -6.3038    8.8135   -0.4844 H       1  LIG1        0.0278
     38 H          -6.7058    8.6514    1.2247 H       1  LIG1        0.0278
@<TRIPOS>BOND
     1    21    14    1
     2    34    26    1
     3     9     1    1
     4    31    26   ar
     5    31    30   ar
     6    19    14   ar
     7    19    18   ar
     8    14    15   ar
     9    26    27   ar
    10     1     6   ar
    11     1     2   ar
    12     6     5   ar
    13    33    30    1
    14    37    35    1
    15     8     2    1
    16    30    29   ar
    17     2     3   ar
    18    12    10    1
    19    27    18    1
    20    27    28   ar
    21     5    15    1
    22     5     4   ar
    23    18    17   ar
    24    15    16   ar
    25    29    28   ar
    26    29    35    1
    27     3     4   ar
    28     3     7    1
    29    28    32    1
    30     4    10    1
    31    36    35    1
    32    24    22    1
    33    35    38    1
    34    16    17   ar
    35    16    20    1
    36    17    22    1
    37    10    11    1
    38    10    13    1
    39    22    25    1
    40    22    23    1
