@<TRIPOS>MOLECULE
mol_data/opt/b3lyp/geoms/mol2/6ai6dh-13di6fi-.out
 51 54 0 0 0
SMALL
GASTEIGER

@<TRIPOS>ATOM
      1 C          -4.2842   -1.6349   -1.9731 C.ar    1  LIG1        0.0283
      2 C          -3.3077   -2.1870   -1.1450 C.ar    1  LIG1       -0.0433
      3 C          -2.9615   -1.4962    0.0113 C.ar    1  LIG1       -0.0554
      4 C          -3.5717   -0.2742    0.3182 C.ar    1  LIG1       -0.0244
      5 C          -4.5337    0.1969   -0.6010 C.ar    1  LIG1        0.0766
      6 N          -4.8852   -0.4736   -1.7106 N.ar    1  LIG1       -0.2546
      7 H          -2.2222   -1.9078    0.6937 H       1  LIG1        0.0621
      8 H          -2.8445   -3.1366   -1.3926 H       1  LIG1        0.0633
      9 H          -4.6012   -2.1449   -2.8801 H       1  LIG1        0.0830
     10 C          -3.2111    0.4521    1.5934 C.3     1  LIG1       -0.0377
     11 H          -4.0719    0.9646    2.0294 H       1  LIG1        0.0278
     12 H          -2.4331    1.2071    1.4281 H       1  LIG1        0.0278
     13 H          -2.8230   -0.2514    2.3352 H       1  LIG1        0.0278
     14 C          -6.6733    1.5490   -0.4055 C.ar    1  LIG1        0.1500
     15 C          -5.2604    1.4876   -0.4140 C.ar    1  LIG1        0.0382
     16 C          -4.5910    2.6950   -0.2864 C.ar    1  LIG1       -0.0270
     17 C          -5.2663    3.9269   -0.1676 C.ar    1  LIG1        0.0531
     18 C          -6.6922    3.8781   -0.2242 C.ar    1  LIG1        0.1104
     19 N          -7.3350    2.7026   -0.3137 N.ar    1  LIG1       -0.2323
     20 H          -3.5047    2.7028   -0.2860 H       1  LIG1        0.0644
     21 N          -8.1771   -0.5746   -0.4581 N.1     1  LIG1       -0.1893
     22 C          -7.4897    0.3630   -0.4554 C.1     1  LIG1        0.1198
     23 N          -4.5359    5.0608    0.0656 N.pl3   1  LIG1       -0.3563
     24 H          -3.5374    4.9844   -0.0606 H       1  LIG1        0.1424
     25 H          -4.9009    5.9728   -0.1674 H       1  LIG1        0.1424
     26 C          -7.6238    5.0160   -0.1261 C.ar    1  LIG1        0.0851
     27 C          -7.6027    6.4030   -0.3590 C.ar    1  LIG1        0.0820
     28 C          -8.9237    6.9254   -0.1430 C.ar    1  LIG1       -0.0070
     29 C          -9.7222    5.8477    0.2035 C.ar    1  LIG1        0.0563
     30 N          -8.9127    4.7242    0.2250 N.ar    1  LIG1       -0.3515
     31 H          -9.2125    3.7562    0.2715 H       1  LIG1        0.1660
     32 N          -5.6365    7.8780   -1.1481 N.1     1  LIG1       -0.1908
     33 C          -6.5219    7.2046   -0.7946 C.1     1  LIG1        0.1016
     34 C          -9.3168    8.3671   -0.2517 C.3     1  LIG1       -0.0365
     35 H         -10.2939    8.5402    0.2049 H       1  LIG1        0.0279
     36 H          -9.3715    8.6953   -1.2965 H       1  LIG1        0.0279
     37 H          -8.5876    9.0134    0.2473 H       1  LIG1        0.0279
     38 C         -11.6156    5.1078    1.7020 C.ar    1  LIG1        0.2217
     39 C         -11.1527    5.7712    0.5350 C.ar    1  LIG1        0.0602
     40 C         -12.1248    6.3542   -0.2823 C.ar    1  LIG1       -0.0432
     41 C         -13.4838    6.2702    0.0396 C.ar    1  LIG1       -0.0315
     42 C         -13.7965    5.5650    1.2040 C.ar    1  LIG1        0.0343
     43 N         -12.8967    5.0018    2.0179 N.ar    1  LIG1       -0.2206
     44 H         -11.8104    6.8574   -1.1928 H       1  LIG1        0.0629
     45 H         -14.8378    5.4476    1.5018 H       1  LIG1        0.0833
     46 O         -10.7652    4.5234    2.5864 O.3     1  LIG1       -0.4919
     47 H          -9.8545    4.7602    2.3599 H       1  LIG1        0.2937
     48 C         -14.5520    6.8873   -0.8278 C.3     1  LIG1       -0.0383
     49 H         -15.5498    6.6606   -0.4424 H       1  LIG1        0.0278
     50 H         -14.5002    6.5142   -1.8566 H       1  LIG1        0.0278
     51 H         -14.4544    7.9781   -0.8734 H       1  LIG1        0.0278
@<TRIPOS>BOND
     1     9     1    1
     2     1     6   ar
     3     1     2   ar
     4    50    48    1
     5     6     5   ar
     6     8     2    1
     7    36    34    1
     8    44    40    1
     9    32    33    3
    10     2     3   ar
    11    51    48    1
    12    48    49    1
    13    48    41    1
    14    33    27    1
    15     5    15    1
    16     5     4   ar
    17    21    22    3
    18    22    14    1
    19    15    14   ar
    20    15    16   ar
    21    14    19   ar
    22    27    28   ar
    23    27    26   ar
    24    19    18   ar
    25    16    20    1
    26    16    17   ar
    27    40    41   ar
    28    40    39   ar
    29    34    28    1
    30    34    35    1
    31    34    37    1
    32    18    17   ar
    33    18    26    1
    34    17    23    1
    35    25    23    1
    36    28    29   ar
    37    26    30   ar
    38    24    23    1
    39     3     4   ar
    40     3     7    1
    41    41    42   ar
    42    29    30   ar
    43    29    39    1
    44    30    31    1
    45     4    10    1
    46    39    38   ar
    47    42    45    1
    48    42    43   ar
    49    12    10    1
    50    10    11    1
    51    10    13    1
    52    38    43   ar
    53    38    46    1
    54    47    46    1
