@<TRIPOS>MOLECULE
mol_data/opt/b3lyp/geoms/mol2/6ai6ai6ai.out
 38 40 0 0 0
SMALL
GASTEIGER

@<TRIPOS>ATOM
      1 C          -4.5280   -1.9331   -1.2822 C.ar    1  LIG1        0.0283
      2 C          -3.2581   -2.2484   -0.8025 C.ar    1  LIG1       -0.0433
      3 C          -2.6125   -1.3050   -0.0107 C.ar    1  LIG1       -0.0554
      4 C          -3.2142   -0.0727    0.2685 C.ar    1  LIG1       -0.0244
      5 C          -4.4902    0.1593   -0.2995 C.ar    1  LIG1        0.0753
      6 N          -5.1295   -0.7684   -1.0392 N.ar    1  LIG1       -0.2547
      7 H          -1.6353   -1.5247    0.4124 H       1  LIG1        0.0621
      8 H          -2.8004   -3.2066   -1.0265 H       1  LIG1        0.0633
      9 H          -5.0879   -2.6452   -1.8857 H       1  LIG1        0.0830
     10 C          -2.5034    0.9036    1.1777 C.3     1  LIG1       -0.0377
     11 H          -3.2034    1.4730    1.7938 H       1  LIG1        0.0278
     12 H          -1.9012    1.6269    0.6148 H       1  LIG1        0.0278
     13 H          -1.8198    0.3697    1.8442 H       1  LIG1        0.0278
     14 C          -6.6490    1.3492    0.1199 C.ar    1  LIG1        0.0374
     15 C          -5.2642    1.4164   -0.1068 C.ar    1  LIG1        0.0190
     16 C          -4.7111    2.6970   -0.1675 C.ar    1  LIG1       -0.0462
     17 C          -5.5004    3.8432   -0.0218 C.ar    1  LIG1       -0.0238
     18 C          -6.8842    3.6488    0.1871 C.ar    1  LIG1        0.0753
     19 N          -7.4256    2.4160    0.2733 N.ar    1  LIG1       -0.2540
     20 H          -3.6478    2.8216   -0.3480 H       1  LIG1        0.0628
     21 H          -7.1333    0.3781    0.1781 H       1  LIG1        0.0836
     22 C          -4.8330    5.1993   -0.0645 C.3     1  LIG1       -0.0377
     23 H          -5.3162    5.9132    0.6070 H       1  LIG1        0.0278
     24 H          -4.8503    5.6350   -1.0706 H       1  LIG1        0.0278
     25 H          -3.7823    5.1140    0.2281 H       1  LIG1        0.0278
     26 C          -8.8728    4.6315    1.3364 C.ar    1  LIG1        0.0367
     27 C          -7.8610    4.7583    0.3661 C.ar    1  LIG1        0.0189
     28 C          -7.8700    5.9203   -0.4110 C.ar    1  LIG1       -0.0468
     29 C          -8.8434    6.9038   -0.2015 C.ar    1  LIG1       -0.0317
     30 C          -9.7786    6.6623    0.8087 C.ar    1  LIG1        0.0305
     31 N          -9.8044    5.5568    1.5652 N.ar    1  LIG1       -0.2623
     32 H          -7.1401    6.0543   -1.2039 H       1  LIG1        0.0628
     33 H         -10.5543    7.3998    1.0135 H       1  LIG1        0.0832
     34 H          -8.9129    3.7313    1.9435 H       1  LIG1        0.0836
     35 C          -8.8904    8.1604   -1.0346 C.3     1  LIG1       -0.0383
     36 H          -9.7178    8.8065   -0.7290 H       1  LIG1        0.0278
     37 H          -9.0227    7.9296   -2.0977 H       1  LIG1        0.0278
     38 H          -7.9639    8.7385   -0.9422 H       1  LIG1        0.0278
@<TRIPOS>BOND
     1    37    35    1
     2     9     1    1
     3     1     6   ar
     4     1     2   ar
     5    32    28    1
     6    24    22    1
     7     6     5   ar
     8    35    38    1
     9    35    36    1
    10    35    29    1
    11     8     2    1
    12     2     3   ar
    13    28    29   ar
    14    28    27   ar
    15    20    16    1
    16     5    15    1
    17     5     4   ar
    18    29    30   ar
    19    16    15   ar
    20    16    17   ar
    21    15    14   ar
    22    22    17    1
    23    22    25    1
    24    22    23    1
    25    17    18   ar
    26     3     4   ar
    27     3     7    1
    28    14    21    1
    29    14    19   ar
    30    18    19   ar
    31    18    27    1
    32     4    10    1
    33    27    26   ar
    34    12    10    1
    35    30    33    1
    36    30    31   ar
    37    10    11    1
    38    10    13    1
    39    26    31   ar
    40    26    34    1
