@<TRIPOS>MOLECULE
mol_data/opt/b3lyp/geoms/mol2/6ai6ai-4ai6ai.out
 51 54 0 0 0
SMALL
GASTEIGER

@<TRIPOS>ATOM
      1 C          -4.5398   -2.2920   -0.1984 C.ar    1  LIG1        0.0283
      2 C          -3.1529   -2.4004   -0.2811 C.ar    1  LIG1       -0.0433
      3 C          -2.4115   -1.2244   -0.2710 C.ar    1  LIG1       -0.0554
      4 C          -3.0446    0.0225   -0.2083 C.ar    1  LIG1       -0.0244
      5 C          -4.4603    0.0201   -0.1692 C.ar    1  LIG1        0.0753
      6 N          -5.1761   -1.1225   -0.1418 N.ar    1  LIG1       -0.2547
      7 H          -1.3253   -1.2644   -0.2966 H       1  LIG1        0.0621
      8 H          -2.6720   -3.3720   -0.3317 H       1  LIG1        0.0633
      9 H          -5.1673   -3.1813   -0.1750 H       1  LIG1        0.0830
     10 C          -2.1951    1.2711   -0.1401 C.3     1  LIG1       -0.0377
     11 H          -2.6577    2.0484    0.4727 H       1  LIG1        0.0278
     12 H          -2.0168    1.7027   -1.1319 H       1  LIG1        0.0278
     13 H          -1.2158    1.0372    0.2877 H       1  LIG1        0.0278
     14 C          -5.0142    2.4166   -0.8496 C.ar    1  LIG1        0.0374
     15 C          -5.2914    1.2546   -0.1175 C.ar    1  LIG1        0.0190
     16 C          -6.4545    1.2811    0.6605 C.ar    1  LIG1       -0.0462
     17 C          -7.2809    2.4039    0.7068 C.ar    1  LIG1       -0.0239
     18 C          -6.9069    3.5137   -0.0916 C.ar    1  LIG1        0.0739
     19 N          -5.7854    3.5020   -0.8374 N.ar    1  LIG1       -0.2541
     20 H          -6.7059    0.4015    1.2451 H       1  LIG1        0.0628
     21 H          -4.1463    2.4677   -1.5014 H       1  LIG1        0.0836
     22 C          -8.4813    2.3860    1.6264 C.3     1  LIG1       -0.0377
     23 H          -8.3141    1.6841    2.4484 H       1  LIG1        0.0278
     24 H          -9.3907    2.0605    1.1077 H       1  LIG1        0.0278
     25 H          -8.6849    3.3715    2.0516 H       1  LIG1        0.0278
     26 C          -6.9819    6.0052   -0.2198 C.ar    1  LIG1       -0.0520
     27 C          -7.6758    7.2036   -0.3113 C.ar    1  LIG1       -0.0531
     28 C          -7.6774    4.7881   -0.1653 C.ar    1  LIG1        0.0009
     29 C          -9.0794    7.2432   -0.3802 C.ar    1  LIG1       -0.0135
     30 H          -7.1246    8.1387   -0.3549 H       1  LIG1        0.0624
     31 C          -9.0760    4.8291   -0.2321 C.ar    1  LIG1       -0.0491
     32 C          -9.7948    6.0258   -0.3442 C.ar    1  LIG1       -0.0421
     33 H          -9.6364    3.9002   -0.2219 H       1  LIG1        0.0627
     34 H          -5.8980    5.9937   -0.1990 H       1  LIG1        0.0624
     35 C         -11.3062    5.9631   -0.4001 C.3     1  LIG1       -0.0391
     36 H         -11.6678    5.0336    0.0485 H       1  LIG1        0.0278
     37 H         -11.6800    5.9902   -1.4303 H       1  LIG1        0.0278
     38 H         -11.7696    6.7996    0.1295 H       1  LIG1        0.0278
     39 C         -10.6498    8.8793   -1.5105 C.ar    1  LIG1        0.0353
     40 C          -9.7454    8.5708   -0.4797 C.ar    1  LIG1        0.0007
     41 C          -9.4561    9.5940    0.4312 C.ar    1  LIG1       -0.0482
     42 C         -10.0607   10.8486    0.3071 C.ar    1  LIG1       -0.0318
     43 C         -10.9509   11.0172   -0.7592 C.ar    1  LIG1        0.0305
     44 N         -11.2428   10.0663   -1.6544 N.ar    1  LIG1       -0.2624
     45 H          -8.7638    9.4018    1.2478 H       1  LIG1        0.0627
     46 H         -11.4528   11.9744   -0.8974 H       1  LIG1        0.0832
     47 H         -10.8860    8.1318   -2.2645 H       1  LIG1        0.0836
     48 C          -9.7739   11.9674    1.2771 C.3     1  LIG1       -0.0383
     49 H         -10.3503   12.8630    1.0296 H       1  LIG1        0.0278
     50 H          -8.7126   12.2404    1.2694 H       1  LIG1        0.0278
     51 H         -10.0259   11.6802    2.3040 H       1  LIG1        0.0278
@<TRIPOS>BOND
     1    47    39    1
     2    44    39   ar
     3    44    43   ar
     4    39    40   ar
     5    21    14    1
     6    37    35    1
     7    12    10    1
     8    46    43    1
     9    14    19   ar
    10    14    15   ar
    11    19    18   ar
    12    43    42   ar
    13    40    29    1
    14    40    41   ar
    15    35    32    1
    16    35    36    1
    17    35    38    1
    18    29    32   ar
    19    29    27   ar
    20    30    27    1
    21    32    31   ar
    22     8     2    1
    23    27    26   ar
    24     7     3    1
    25     2     3   ar
    26     2     1   ar
    27     3     4   ar
    28    31    33    1
    29    31    28   ar
    30    26    34    1
    31    26    28   ar
    32     4     5   ar
    33     4    10    1
    34     1     9    1
    35     1     6   ar
    36     5     6   ar
    37     5    15    1
    38    28    18    1
    39    10    13    1
    40    10    11    1
    41    15    16   ar
    42    18    17   ar
    43    42    41   ar
    44    42    48    1
    45    41    45    1
    46    16    17   ar
    47    16    20    1
    48    17    22    1
    49    49    48    1
    50    24    22    1
    51    50    48    1
    52    48    51    1
    53    22    25    1
    54    22    23    1
