@<TRIPOS>MOLECULE
mol_data/opt/b3lyp/geoms/mol2/6ai6ai6ai6ai-.out
 50 53 0 0 0
SMALL
GASTEIGER

@<TRIPOS>ATOM
      1 C          -3.9030   -1.6495   -1.8075 C.ar    1  LIG1        0.0283
      2 C          -2.9379   -2.1428   -0.9314 C.ar    1  LIG1       -0.0433
      3 C          -2.7023   -1.4306    0.2394 C.ar    1  LIG1       -0.0554
      4 C          -3.3963   -0.2454    0.5087 C.ar    1  LIG1       -0.0244
      5 C          -4.3277    0.1858   -0.4666 C.ar    1  LIG1        0.0753
      6 N          -4.5798   -0.5229   -1.5852 N.ar    1  LIG1       -0.2547
      7 H          -1.9825   -1.7989    0.9664 H       1  LIG1        0.0621
      8 H          -2.4043   -3.0619   -1.1510 H       1  LIG1        0.0633
      9 H          -4.1450   -2.1808   -2.7261 H       1  LIG1        0.0830
     10 C          -3.1493    0.4697    1.8174 C.3     1  LIG1       -0.0377
     11 H          -4.0553    0.9442    2.2019 H       1  LIG1        0.0278
     12 H          -2.3866    1.2519    1.7215 H       1  LIG1        0.0278
     13 H          -2.7886   -0.2362    2.5712 H       1  LIG1        0.0278
     14 C          -6.4889    1.4122   -0.7434 C.ar    1  LIG1        0.0374
     15 C          -5.1421    1.4259   -0.3428 C.ar    1  LIG1        0.0190
     16 C          -4.6508    2.6476    0.1217 C.ar    1  LIG1       -0.0462
     17 C          -5.4557    3.7911    0.1701 C.ar    1  LIG1       -0.0238
     18 C          -6.7899    3.6580   -0.2766 C.ar    1  LIG1        0.0753
     19 N          -7.2830    2.4757   -0.7019 N.ar    1  LIG1       -0.2540
     20 H          -3.6166    2.7316    0.4409 H       1  LIG1        0.0628
     21 H          -6.9259    0.4879   -1.1115 H       1  LIG1        0.0836
     22 C          -4.8681    5.0716    0.7188 C.3     1  LIG1       -0.0377
     23 H          -5.6080    5.6578    1.2692 H       1  LIG1        0.0278
     24 H          -4.4669    5.7138   -0.0744 H       1  LIG1        0.0278
     25 H          -4.0394    4.8478    1.3969 H       1  LIG1        0.0278
     26 C          -9.1156    4.5039    0.0631 C.ar    1  LIG1        0.0374
     27 C          -7.7813    4.7667   -0.2926 C.ar    1  LIG1        0.0190
     28 C          -7.4948    6.0797   -0.6721 C.ar    1  LIG1       -0.0462
     29 C          -8.4857    7.0676   -0.7065 C.ar    1  LIG1       -0.0238
     30 C          -9.7950    6.6782   -0.3450 C.ar    1  LIG1        0.0753
     31 N         -10.0776    5.4188    0.0506 N.ar    1  LIG1       -0.2540
     32 H          -6.4870    6.3532   -0.9675 H       1  LIG1        0.0628
     33 H          -9.3968    3.5001    0.3695 H       1  LIG1        0.0836
     34 C          -8.0917    8.4770   -1.0880 C.3     1  LIG1       -0.0377
     35 H          -8.6787    9.2250   -0.5502 H       1  LIG1        0.0278
     36 H          -8.2271    8.6668   -2.1590 H       1  LIG1        0.0278
     37 H          -7.0344    8.6473   -0.8638 H       1  LIG1        0.0278
     38 C         -11.2030    8.5690   -1.3142 C.ar    1  LIG1        0.0367
     39 C         -10.9667    7.5977   -0.3282 C.ar    1  LIG1        0.0189
     40 C         -11.9333    7.4670    0.6775 C.ar    1  LIG1       -0.0468
     41 C         -13.0505    8.3029    0.6975 C.ar    1  LIG1       -0.0317
     42 C         -13.1525    9.2471   -0.3320 C.ar    1  LIG1        0.0305
     43 N         -12.2659    9.3787   -1.3240 N.ar    1  LIG1       -0.2623
     44 H         -11.7996    6.6985    1.4329 H       1  LIG1        0.0628
     45 H         -14.0038    9.9271   -0.3586 H       1  LIG1        0.0832
     46 H         -10.5212    8.6790   -2.1527 H       1  LIG1        0.0836
     47 C         -14.1034    8.1952    1.7723 C.3     1  LIG1       -0.0383
     48 H         -13.6777    8.3667    2.7673 H       1  LIG1        0.0278
     49 H         -14.5592    7.1990    1.7835 H       1  LIG1        0.0278
     50 H         -14.9018    8.9267    1.6198 H       1  LIG1        0.0278
@<TRIPOS>BOND
     1     9     1    1
     2    36    34    1
     3    46    38    1
     4     1     6   ar
     5     1     2   ar
     6     6     5   ar
     7    43    38   ar
     8    43    42   ar
     9    38    39   ar
    10     8     2    1
    11    21    14    1
    12    34    37    1
    13    34    29    1
    14    34    35    1
    15    32    28    1
    16     2     3   ar
    17    14    19   ar
    18    14    15   ar
    19    29    28   ar
    20    29    30   ar
    21    19    18   ar
    22    28    27   ar
    23     5    15    1
    24     5     4   ar
    25    45    42    1
    26    30    39    1
    27    30    31   ar
    28    15    16   ar
    29    42    41   ar
    30    39    40   ar
    31    27    18    1
    32    27    26   ar
    33    18    17   ar
    34    24    22    1
    35    31    26   ar
    36    26    33    1
    37    16    17   ar
    38    16    20    1
    39    17    22    1
    40     3     4   ar
    41     3     7    1
    42     4    10    1
    43    40    41   ar
    44    40    44    1
    45    41    47    1
    46    22    23    1
    47    22    25    1
    48    50    47    1
    49    12    10    1
    50    47    49    1
    51    47    48    1
    52    10    11    1
    53    10    13    1
