@<TRIPOS>MOLECULE
mol_data/opt/b3lyp/geoms/mol2/6ai6ai-6ai6ai-.out
 50 53 0 0 0
SMALL
GASTEIGER

@<TRIPOS>ATOM
      1 C          -4.4222   -2.1706   -0.8246 C.ar    1  LIG1        0.0283
      2 C          -3.0617   -2.2980   -0.5506 C.ar    1  LIG1       -0.0433
      3 C          -2.3871   -1.1728   -0.0903 C.ar    1  LIG1       -0.0554
      4 C          -3.0518    0.0497    0.0628 C.ar    1  LIG1       -0.0244
      5 C          -4.4244    0.0786   -0.2836 C.ar    1  LIG1        0.0753
      6 N          -5.0858   -1.0224   -0.6942 N.ar    1  LIG1       -0.2547
      7 H          -1.3336   -1.2377    0.1705 H       1  LIG1        0.0621
      8 H          -2.5550   -3.2495   -0.6750 H       1  LIG1        0.0633
      9 H          -5.0049   -3.0262   -1.1615 H       1  LIG1        0.0830
     10 C          -2.2920    1.2305    0.6227 C.3     1  LIG1       -0.0377
     11 H          -2.9267    1.8704    1.2402 H       1  LIG1        0.0278
     12 H          -1.8673    1.8597   -0.1682 H       1  LIG1        0.0278
     13 H          -1.4568    0.8835    1.2381 H       1  LIG1        0.0278
     14 C          -4.8494    2.5799   -0.5635 C.ar    1  LIG1        0.0374
     15 C          -5.2774    1.2966   -0.1979 C.ar    1  LIG1        0.0190
     16 C          -6.6079    1.1878    0.2216 C.ar    1  LIG1       -0.0462
     17 C          -7.4528    2.2966    0.2796 C.ar    1  LIG1       -0.0238
     18 C          -6.9116    3.5394   -0.1322 C.ar    1  LIG1        0.0753
     19 N          -5.6303    3.6576   -0.5311 N.ar    1  LIG1       -0.2540
     20 H          -6.9801    0.2109    0.5140 H       1  LIG1        0.0628
     21 H          -3.8398    2.7455   -0.9291 H       1  LIG1        0.0836
     22 C          -8.8570    2.1144    0.8099 C.3     1  LIG1       -0.0377
     23 H          -8.8999    1.2406    1.4660 H       1  LIG1        0.0278
     24 H          -9.5813    1.9463    0.0045 H       1  LIG1        0.0278
     25 H          -9.1973    2.9844    1.3768 H       1  LIG1        0.0278
     26 C          -9.0133    4.9352   -0.5218 C.ar    1  LIG1        0.0374
     27 C          -7.6691    4.8204   -0.1413 C.ar    1  LIG1        0.0190
     28 C          -7.0228    6.0142    0.1997 C.ar    1  LIG1       -0.0462
     29 C          -7.6844    7.2422    0.1712 C.ar    1  LIG1       -0.0238
     30 C          -9.0383    7.2333   -0.2446 C.ar    1  LIG1        0.0753
     31 N          -9.6729    6.0908   -0.5702 N.ar    1  LIG1       -0.2540
     32 H          -5.9805    5.9702    0.4998 H       1  LIG1        0.0628
     33 H          -9.5791    4.0615   -0.8324 H       1  LIG1        0.0836
     34 C          -6.9416    8.4807    0.6192 C.3     1  LIG1       -0.0377
     35 H          -7.5978    9.1908    1.1280 H       1  LIG1        0.0278
     36 H          -6.4811    9.0096   -0.2232 H       1  LIG1        0.0278
     37 H          -6.1348    8.2073    1.3051 H       1  LIG1        0.0278
     38 C          -9.4328    9.6815   -0.8316 C.ar    1  LIG1        0.0367
     39 C          -9.8917    8.4511   -0.3347 C.ar    1  LIG1        0.0189
     40 C         -11.2427    8.3780    0.0283 C.ar    1  LIG1       -0.0468
     41 C         -12.0642    9.5016   -0.0731 C.ar    1  LIG1       -0.0317
     42 C         -11.4743   10.6740   -0.5619 C.ar    1  LIG1        0.0305
     43 N         -10.1972   10.7714   -0.9458 N.ar    1  LIG1       -0.2623
     44 H         -11.6378    7.4303    0.3815 H       1  LIG1        0.0628
     45 H         -12.0717   11.5808   -0.6549 H       1  LIG1        0.0832
     46 H          -8.4102    9.7857   -1.1833 H       1  LIG1        0.0836
     47 C         -13.5202    9.4586    0.3190 C.3     1  LIG1       -0.0383
     48 H         -13.6428    9.1700    1.3688 H       1  LIG1        0.0278
     49 H         -14.0726    8.7288   -0.2832 H       1  LIG1        0.0278
     50 H         -13.9963   10.4335    0.1823 H       1  LIG1        0.0278
@<TRIPOS>BOND
     1    46    38    1
     2     9     1    1
     3    43    38   ar
     4    43    42   ar
     5    21    14    1
     6    33    26    1
     7    38    39   ar
     8     1     6   ar
     9     1     2   ar
    10     6     5   ar
    11     8     2    1
    12    45    42    1
    13    31    26   ar
    14    31    30   ar
    15    14    19   ar
    16    14    15   ar
    17    42    41   ar
    18     2     3   ar
    19    19    18   ar
    20    26    27   ar
    21    39    30    1
    22    39    40   ar
    23     5    15    1
    24     5     4   ar
    25    49    47    1
    26    30    29   ar
    27    36    34    1
    28    15    16   ar
    29    12    10    1
    30    27    18    1
    31    27    28   ar
    32    18    17   ar
    33     3     4   ar
    34     3     7    1
    35    41    40   ar
    36    41    47    1
    37    24    22    1
    38    40    44    1
    39     4    10    1
    40    29    28   ar
    41    29    34    1
    42    50    47    1
    43    28    32    1
    44    16    17   ar
    45    16    20    1
    46    17    22    1
    47    47    48    1
    48    34    35    1
    49    34    37    1
    50    10    13    1
    51    10    11    1
    52    22    25    1
    53    22    23    1
