@<TRIPOS>MOLECULE
mol_data/opt/b3lyp/geoms/mol2/6al13ff-6af-12hl.out
 48 51 0 0 0
SMALL
GASTEIGER

@<TRIPOS>ATOM
      1 C          -4.7628   -1.9189    1.1024 C.ar    1  LIG1        0.0286
      2 C          -3.4171   -2.2489    1.0030 C.ar    1  LIG1       -0.0401
      3 C          -2.5344   -1.2868    0.5048 C.ar    1  LIG1       -0.0163
      4 C          -3.0249   -0.0369    0.1318 C.ar    1  LIG1        0.1475
      5 C          -4.4124    0.2306    0.2874 C.ar    1  LIG1        0.1322
      6 N          -5.2430   -0.7204    0.7584 N.ar    1  LIG1       -0.2497
      7 H          -1.4803   -1.5162    0.4026 H       1  LIG1        0.0655
      8 H          -3.0603   -3.2297    1.2995 H       1  LIG1        0.0634
      9 H          -5.4891   -2.6379    1.4749 H       1  LIG1        0.0830
     10 O          -2.2726    0.9603   -0.3903 O.3     1  LIG1       -0.4929
     11 C          -0.8769    0.7663   -0.5363 C.3     1  LIG1        0.0789
     12 H          -0.4915    1.6994   -0.9481 H       1  LIG1        0.0660
     13 H          -0.3925    0.5678    0.4286 H       1  LIG1        0.0660
     14 H          -0.6518   -0.0568   -1.2272 H       1  LIG1        0.0660
     15 C          -5.0661    1.4943   -0.0454 C.ar    1  LIG1        0.1148
     16 C          -4.7044    2.8022   -0.4065 C.ar    1  LIG1        0.1864
     17 C          -5.8931    3.5573   -0.4970 C.ar    1  LIG1        0.1849
     18 C          -6.9813    2.7376   -0.1973 C.ar    1  LIG1        0.0943
     19 N          -6.4487    1.4985    0.0452 N.ar    1  LIG1       -0.3469
     20 H          -6.9165    0.6834    0.4169 H       1  LIG1        0.1662
     21 O          -3.4787    3.3407   -0.6440 O.3     1  LIG1       -0.5019
     22 H          -3.6505    4.2680   -0.8740 H       1  LIG1        0.2924
     23 O          -5.8566    4.8970   -0.8322 O.3     1  LIG1       -0.5019
     24 H          -6.4983    5.0638   -1.5367 H       1  LIG1        0.2924
     25 C          -9.3712    1.9958   -0.2968 C.ar    1  LIG1        0.0378
     26 C          -8.4063    3.0213   -0.1844 C.ar    1  LIG1        0.0236
     27 C          -8.8954    4.3276   -0.0649 C.ar    1  LIG1       -0.0073
     28 C         -10.2705    4.5807   -0.0680 C.ar    1  LIG1        0.1464
     29 C         -11.1514    3.4690   -0.1750 C.ar    1  LIG1        0.1491
     30 N         -10.6768    2.2116   -0.2839 N.ar    1  LIG1       -0.2475
     31 H          -8.2254    5.1716    0.0546 H       1  LIG1        0.0662
     32 H          -9.0617    0.9600   -0.4224 H       1  LIG1        0.0836
     33 O         -10.6503    5.8699    0.0045 O.3     1  LIG1       -0.5045
     34 H         -11.6071    5.9652    0.2742 H       1  LIG1        0.2922
     35 C         -12.6107    3.5966   -0.2204 C.ar    1  LIG1        0.1807
     36 C         -13.5148    4.5619    0.1667 C.ar    1  LIG1        0.1149
     37 C         -14.8168    4.0622   -0.1583 C.ar    1  LIG1        0.1789
     38 C         -14.6343    2.8277   -0.7124 C.ar    1  LIG1        0.1361
     39 O         -13.2975    2.5390   -0.7424 O.2     1  LIG1       -0.4556
     40 H         -15.2936    2.0736   -1.1076 H       1  LIG1        0.1068
     41 N         -13.2183    5.8110    0.7913 N.pl3   1  LIG1       -0.3521
     42 H         -13.8872    6.5189    0.4964 H       1  LIG1        0.1425
     43 H         -13.2822    5.7468    1.8064 H       1  LIG1        0.1425
     44 O         -15.9386    4.7850    0.0910 O.3     1  LIG1       -0.4901
     45 C         -17.1548    4.1647   -0.3104 C.3     1  LIG1        0.0790
     46 H         -17.9584    4.8557   -0.0542 H       1  LIG1        0.0660
     47 H         -17.1613    3.9769   -1.3918 H       1  LIG1        0.0660
     48 H         -17.3039    3.2153    0.2197 H       1  LIG1        0.0660
@<TRIPOS>BOND
     1    24    23    1
     2    47    45    1
     3    14    11    1
     4    40    38    1
     5    12    11    1
     6    22    21    1
     7    23    17    1
     8    39    38   ar
     9    39    35   ar
    10    38    37   ar
    11    21    16    1
    12    11    10    1
    13    11    13    1
    14    17    16   ar
    15    17    18   ar
    16    32    25    1
    17    16    15   ar
    18    10     4    1
    19    45    46    1
    20    45    44    1
    21    45    48    1
    22    25    30   ar
    23    25    26   ar
    24    30    29   ar
    25    35    29    1
    26    35    36   ar
    27    18    26    1
    28    18    19   ar
    29    26    27   ar
    30    29    28   ar
    31    37    44    1
    32    37    36   ar
    33    28    27   ar
    34    28    33    1
    35    27    31    1
    36    15    19   ar
    37    15     5    1
    38    33    34    1
    39    19    20    1
    40     4     5   ar
    41     4     3   ar
    42    36    41    1
    43     5     6   ar
    44     7     3    1
    45    42    41    1
    46     3     2   ar
    47     6     1   ar
    48    41    43    1
    49     2     1   ar
    50     2     8    1
    51     1     9    1
