@<TRIPOS>MOLECULE
mol_data/opt/b3lyp/geoms/mol2/6al12ie-12hf4aa.out
 47 50 0 0 0
SMALL
GASTEIGER

@<TRIPOS>ATOM
      1 C          -4.0868   -1.6851    1.8030 C.ar    1  LIG1        0.0286
      2 C          -2.8308   -1.8832    1.2367 C.ar    1  LIG1       -0.0401
      3 C          -2.3532   -0.9421    0.3250 C.ar    1  LIG1       -0.0163
      4 C          -3.1456    0.1664    0.0210 C.ar    1  LIG1        0.1490
      5 C          -4.3955    0.3095    0.6794 C.ar    1  LIG1        0.1476
      6 N          -4.8453   -0.6187    1.5381 N.ar    1  LIG1       -0.2482
      7 H          -1.3902   -1.0852   -0.1502 H       1  LIG1        0.0655
      8 H          -2.2378   -2.7560    1.4910 H       1  LIG1        0.0634
      9 H          -4.5013   -2.4067    2.5037 H       1  LIG1        0.0830
     10 O          -2.8136    1.1168   -0.8963 O.3     1  LIG1       -0.4929
     11 C          -1.6064    0.9571   -1.6283 C.3     1  LIG1        0.0789
     12 H          -1.5654    1.7967   -2.3230 H       1  LIG1        0.0660
     13 H          -0.7270    0.9879   -0.9727 H       1  LIG1        0.0660
     14 H          -1.6010    0.0177   -2.1950 H       1  LIG1        0.0660
     15 C          -5.2821    1.4515    0.4323 C.ar    1  LIG1        0.1616
     16 C          -5.1032    2.8037    0.2962 C.ar    1  LIG1        0.0131
     17 C          -6.4230    3.3632    0.1213 C.ar    1  LIG1        0.0771
     18 C          -7.3169    2.2990    0.1948 C.ar    1  LIG1        0.1882
     19 O          -6.6259    1.1480    0.3843 O.2     1  LIG1       -0.4485
     20 C          -3.8410    3.6066    0.3484 C.3     1  LIG1       -0.0349
     21 H          -4.0314    4.5752    0.8199 H       1  LIG1        0.0279
     22 H          -3.4464    3.7988   -0.6553 H       1  LIG1        0.0279
     23 H          -3.0626    3.0914    0.9140 H       1  LIG1        0.0279
     24 C          -6.7021    4.7245   -0.1402 C.1     1  LIG1       -0.0655
     25 C          -6.9015    5.9000   -0.3693 C.1     1  LIG1       -0.1138
     26 H          -7.0609    6.9251   -0.6112 H       1  LIG1        0.1232
     27 C          -8.7407    2.1917    0.1224 C.ar    1  LIG1        0.1960
     28 C          -9.7866    3.0790    0.3333 C.ar    1  LIG1        0.1169
     29 C         -10.9747    2.3176    0.1174 C.ar    1  LIG1        0.1846
     30 C         -10.6110    1.0296   -0.2020 C.ar    1  LIG1        0.1789
     31 O          -9.2483    0.9439   -0.1860 O.2     1  LIG1       -0.4460
     32 N          -9.7865    4.3820    0.7872 N.pl3   1  LIG1       -0.3521
     33 H          -8.9773    4.9409    0.5437 H       1  LIG1        0.1425
     34 H         -10.6668    4.8562    0.6381 H       1  LIG1        0.1425
     35 O         -12.2193    2.8775    0.2464 O.3     1  LIG1       -0.5020
     36 H         -12.8180    2.2246    0.6344 H       1  LIG1        0.2924
     37 C         -12.7269   -0.1030   -0.8637 C.ar    1  LIG1       -0.0510
     38 C         -13.4536   -1.2645   -1.1146 C.ar    1  LIG1       -0.0611
     39 C         -11.3700   -0.1748   -0.4892 C.ar    1  LIG1        0.0210
     40 C         -12.8441   -2.5159   -1.0088 C.ar    1  LIG1       -0.0617
     41 H         -14.4970   -1.1899   -1.4076 H       1  LIG1        0.0618
     42 C         -10.7616   -1.4415   -0.3950 C.ar    1  LIG1       -0.0510
     43 C         -11.4942   -2.5951   -0.6549 C.ar    1  LIG1       -0.0611
     44 H          -9.7161   -1.5043   -0.1137 H       1  LIG1        0.0625
     45 H         -13.4123   -3.4197   -1.2068 H       1  LIG1        0.0618
     46 H         -13.1981    0.8651   -1.0026 H       1  LIG1        0.0625
     47 H         -11.0099   -3.5643   -0.5763 H       1  LIG1        0.0618
@<TRIPOS>BOND
     1    12    11    1
     2    14    11    1
     3    11    13    1
     4    11    10    1
     5    41    38    1
     6    45    40    1
     7    38    40   ar
     8    38    37   ar
     9    40    43   ar
    10    46    37    1
    11    10     4    1
    12    37    39   ar
    13    22    20    1
    14    43    47    1
    15    43    42   ar
    16    26    25    1
    17    39    42   ar
    18    39    30    1
    19    42    44    1
    20    25    24    3
    21    30    31   ar
    22    30    29   ar
    23    31    27   ar
    24     7     3    1
    25    24    17    1
    26     4     3   ar
    27     4     5   ar
    28    29    35    1
    29    29    28   ar
    30    17    18   ar
    31    17    16   ar
    32    27    18    1
    33    27    28   ar
    34    18    19   ar
    35    35    36    1
    36    16    20    1
    37    16    15   ar
    38     3     2   ar
    39    28    32    1
    40    20    21    1
    41    20    23    1
    42    19    15   ar
    43    15     5    1
    44    33    32    1
    45    34    32    1
    46     5     6   ar
    47     2     8    1
    48     2     1   ar
    49     6     1   ar
    50     1     9    1
