@<TRIPOS>MOLECULE
mol_data/opt/b3lyp/geoms/mol2/6al6al6al6al-.out
 54 57 0 0 0
SMALL
GASTEIGER

@<TRIPOS>ATOM
      1 C          -4.9578   -2.2999   -0.0002 C.ar    1  LIG1        0.0285
      2 C          -3.5976   -2.5929   -0.0003 C.ar    1  LIG1       -0.0401
      3 C          -2.7000   -1.5296   -0.0004 C.ar    1  LIG1       -0.0164
      4 C          -3.1830   -0.2180   -0.0004 C.ar    1  LIG1        0.1460
      5 C          -4.5905    0.0005   -0.0002 C.ar    1  LIG1        0.1140
      6 N          -5.4250   -1.0538   -0.0002 N.ar    1  LIG1       -0.2513
      7 H          -1.6347   -1.7243   -0.0005 H       1  LIG1        0.0655
      8 H          -3.2448   -3.6189   -0.0004 H       1  LIG1        0.0634
      9 H          -5.7017   -3.0937   -0.0001 H       1  LIG1        0.0830
     10 O          -2.3553    0.8684   -0.0004 O.3     1  LIG1       -0.4930
     11 C          -0.9484    0.6597   -0.0006 C.3     1  LIG1        0.0789
     12 H          -0.4998    1.6538   -0.0007 H       1  LIG1        0.0660
     13 H          -0.6216    0.1167    0.8942 H       1  LIG1        0.0660
     14 H          -0.6219    0.1167   -0.8956 H       1  LIG1        0.0660
     15 C          -6.6698    1.3775   -0.0000 C.ar    1  LIG1        0.0378
     16 C          -5.2618    1.3293   -0.0002 C.ar    1  LIG1        0.0255
     17 C          -4.6106    2.5711   -0.0002 C.ar    1  LIG1       -0.0071
     18 C          -5.3458    3.7575   -0.0002 C.ar    1  LIG1        0.1466
     19 C          -6.7634    3.7064   -0.0000 C.ar    1  LIG1        0.1140
     20 N          -7.3692    2.5031    0.0001 N.ar    1  LIG1       -0.2506
     21 H          -3.5344    2.6075   -0.0004 H       1  LIG1        0.0662
     22 H          -7.2328    0.4514    0.0001 H       1  LIG1        0.0836
     23 O          -4.7392    4.9852   -0.0002 O.3     1  LIG1       -0.4929
     24 C          -3.3205    5.0524   -0.0004 C.3     1  LIG1        0.0789
     25 H          -3.0735    6.1150   -0.0005 H       1  LIG1        0.0660
     26 H          -2.8931    4.5828    0.8939 H       1  LIG1        0.0660
     27 H          -2.8933    4.5828   -0.8948 H       1  LIG1        0.0660
     28 C          -9.0717    4.6467    0.0004 C.ar    1  LIG1        0.0378
     29 C          -7.6814    4.8741    0.0001 C.ar    1  LIG1        0.0255
     30 C          -7.2847    6.2190   -0.0000 C.ar    1  LIG1       -0.0071
     31 C          -8.2365    7.2403    0.0001 C.ar    1  LIG1        0.1466
     32 C          -9.6161    6.9137    0.0004 C.ar    1  LIG1        0.1140
     33 N          -9.9762    5.6163    0.0005 N.ar    1  LIG1       -0.2506
     34 H          -6.2359    6.4630   -0.0002 H       1  LIG1        0.0662
     35 H          -9.4430    3.6284    0.0004 H       1  LIG1        0.0836
     36 O          -7.8828    8.5597   -0.0000 O.3     1  LIG1       -0.4929
     37 C          -6.5064    8.9066   -0.0003 C.3     1  LIG1        0.0789
     38 H          -6.4762    9.9970   -0.0003 H       1  LIG1        0.0660
     39 H          -5.9940    8.5303    0.8938 H       1  LIG1        0.0660
     40 H          -5.9943    8.5302   -0.8945 H       1  LIG1        0.0660
     41 C         -10.6198    9.2922    0.0004 C.ar    1  LIG1        0.0371
     42 C         -10.7482    7.8851    0.0005 C.ar    1  LIG1        0.0255
     43 C         -12.0525    7.3743    0.0008 C.ar    1  LIG1       -0.0077
     44 C         -13.1433    8.2417    0.0010 C.ar    1  LIG1        0.1387
     45 C         -12.8996    9.6208    0.0009 C.ar    1  LIG1        0.0692
     46 N         -11.6610   10.1275    0.0006 N.ar    1  LIG1       -0.2590
     47 H         -12.2126    6.3035    0.0009 H       1  LIG1        0.0662
     48 H         -13.7118   10.3422    0.0010 H       1  LIG1        0.0867
     49 H          -9.6445    9.7569    0.0002 H       1  LIG1        0.0836
     50 O         -14.3808    7.6634    0.0013 O.3     1  LIG1       -0.4936
     51 C         -15.5138    8.5178    0.0014 C.3     1  LIG1        0.0789
     52 H         -16.3855    7.8617    0.0016 H       1  LIG1        0.0660
     53 H         -15.5425    9.1550    0.8947 H       1  LIG1        0.0660
     54 H         -15.5427    9.1549   -0.8920 H       1  LIG1        0.0660
@<TRIPOS>BOND
     1    14    11    1
     2    27    24    1
     3    40    37    1
     4    54    51    1
     5    12    11    1
     6    11    10    1
     7    11    13    1
     8     7     3    1
     9    25    24    1
    10    10     4    1
    11    24    23    1
    12    24    26    1
    13     3     4   ar
    14     3     2   ar
    15    21    17    1
    16     4     5   ar
    17     8     2    1
    18     2     1   ar
    19    38    37    1
    20    37    36    1
    21    37    39    1
    22    17    18   ar
    23    17    16   ar
    24    23    18    1
    25     5    16    1
    26     5     6   ar
    27    34    30    1
    28     1     6   ar
    29     1     9    1
    30    18    19   ar
    31    16    15   ar
    32    30    29   ar
    33    30    31   ar
    34    19    20   ar
    35    19    29    1
    36    36    31    1
    37    15    22    1
    38    15    20   ar
    39    29    28   ar
    40    31    32   ar
    41    49    41    1
    42    28    35    1
    43    28    33   ar
    44    32    33   ar
    45    32    42    1
    46    41    42   ar
    47    41    46   ar
    48    42    43   ar
    49    46    45   ar
    50    43    47    1
    51    43    44   ar
    52    45    44   ar
    53    45    48    1
    54    44    50    1
    55    50    51    1
    56    51    52    1
    57    51    53    1
