@<TRIPOS>MOLECULE
mol_data/opt/b3lyp/geoms/mol2/6al6al6al6al.out
 54 57 0 0 0
SMALL
GASTEIGER

@<TRIPOS>ATOM
      1 C          -4.8033   -2.4148   -0.0003 C.ar    1  LIG1        0.0285
      2 C          -3.4372   -2.6788   -0.0005 C.ar    1  LIG1       -0.0401
      3 C          -2.5619   -1.5969   -0.0006 C.ar    1  LIG1       -0.0164
      4 C          -3.0727   -0.2961   -0.0005 C.ar    1  LIG1        0.1460
      5 C          -4.4846   -0.1074   -0.0003 C.ar    1  LIG1        0.1140
      6 N          -5.2970   -1.1788   -0.0002 N.ar    1  LIG1       -0.2513
      7 H          -1.4927   -1.7686   -0.0008 H       1  LIG1        0.0655
      8 H          -3.0630   -3.6973   -0.0006 H       1  LIG1        0.0634
      9 H          -5.5302   -3.2240   -0.0002 H       1  LIG1        0.0830
     10 O          -2.2681    0.8078   -0.0006 O.3     1  LIG1       -0.4930
     11 C          -0.8571    0.6303   -0.0009 C.3     1  LIG1        0.0789
     12 H          -0.4310    1.6342   -0.0010 H       1  LIG1        0.0660
     13 H          -0.5179    0.0949    0.8939 H       1  LIG1        0.0660
     14 H          -0.5183    0.0949   -0.8959 H       1  LIG1        0.0660
     15 C          -6.5914    1.2290    0.0001 C.ar    1  LIG1        0.0378
     16 C          -5.1828    1.2076   -0.0001 C.ar    1  LIG1        0.0255
     17 C          -4.5554    2.4613   -0.0002 C.ar    1  LIG1       -0.0071
     18 C          -5.3122    3.6338   -0.0001 C.ar    1  LIG1        0.1466
     19 C          -6.7284    3.5562    0.0002 C.ar    1  LIG1        0.1140
     20 N          -7.3116    2.3416    0.0002 N.ar    1  LIG1       -0.2506
     21 H          -3.4803    2.5163   -0.0004 H       1  LIG1        0.0662
     22 H          -7.1372    0.2925    0.0001 H       1  LIG1        0.0836
     23 O          -4.7280    4.8725   -0.0001 O.3     1  LIG1       -0.4929
     24 C          -3.3107    4.9647   -0.0004 C.3     1  LIG1        0.0789
     25 H          -3.0817    6.0313   -0.0004 H       1  LIG1        0.0660
     26 H          -2.8751    4.5023    0.8938 H       1  LIG1        0.0660
     27 H          -2.8754    4.5023   -0.8947 H       1  LIG1        0.0660
     28 C          -9.0539    4.4536    0.0005 C.ar    1  LIG1        0.0378
     29 C          -7.6679    4.7063    0.0003 C.ar    1  LIG1        0.0255
     30 C          -7.2970    6.0588    0.0003 C.ar    1  LIG1       -0.0071
     31 C          -8.2677    7.0613    0.0004 C.ar    1  LIG1        0.1466
     32 C          -9.6425    6.7102    0.0006 C.ar    1  LIG1        0.1140
     33 N          -9.9764    5.4053    0.0007 N.ar    1  LIG1       -0.2506
     34 H          -6.2527    6.3217    0.0001 H       1  LIG1        0.0662
     35 H          -9.4062    3.4284    0.0006 H       1  LIG1        0.0836
     36 O          -7.9331    8.3900    0.0004 O.3     1  LIG1       -0.4929
     37 C          -6.5614    8.7551    0.0003 C.3     1  LIG1        0.0789
     38 H          -6.5443    9.8460    0.0003 H       1  LIG1        0.0660
     39 H          -6.0435    8.3865    0.8942 H       1  LIG1        0.0660
     40 H          -6.0437    8.3865   -0.8938 H       1  LIG1        0.0660
     41 C         -12.0970    7.1275    0.0010 C.ar    1  LIG1        0.0371
     42 C         -10.7919    7.6579    0.0008 C.ar    1  LIG1        0.0255
     43 C         -10.6739    9.0609    0.0007 C.ar    1  LIG1       -0.0077
     44 C         -11.8317    9.8376    0.0008 C.ar    1  LIG1        0.1387
     45 C         -13.0782    9.1987    0.0011 C.ar    1  LIG1        0.0692
     46 N         -13.2077    7.8726    0.0012 N.ar    1  LIG1       -0.2590
     47 H          -9.6992    9.5199    0.0005 H       1  LIG1        0.0662
     48 H         -13.9847    9.8005    0.0012 H       1  LIG1        0.0867
     49 H         -12.2280    6.0520    0.0011 H       1  LIG1        0.0836
     50 O         -11.8575   11.2042    0.0008 O.3     1  LIG1       -0.4936
     51 C         -10.6187   11.8937    0.0005 C.3     1  LIG1        0.0789
     52 H         -10.8651   12.9566    0.0005 H       1  LIG1        0.0660
     53 H         -10.0241   11.6614    0.8937 H       1  LIG1        0.0660
     54 H         -10.0244   11.6613   -0.8929 H       1  LIG1        0.0660
@<TRIPOS>BOND
     1    14    11    1
     2    27    24    1
     3    40    37    1
     4    54    51    1
     5    12    11    1
     6    11    10    1
     7    11    13    1
     8     7     3    1
     9     3     4   ar
    10     3     2   ar
    11    10     4    1
    12     8     2    1
    13     4     5   ar
    14     2     1   ar
    15    25    24    1
    16    21    17    1
    17    24    23    1
    18    24    26    1
    19     1     9    1
    20     1     6   ar
    21     5     6   ar
    22     5    16    1
    23    17    16   ar
    24    17    18   ar
    25    16    15   ar
    26    23    18    1
    27    18    19   ar
    28    15    22    1
    29    15    20   ar
    30    34    30    1
    31    19    20   ar
    32    19    29    1
    33    37    38    1
    34    37    36    1
    35    37    39    1
    36    30    29   ar
    37    30    31   ar
    38    29    28   ar
    39    36    31    1
    40    31    32   ar
    41    47    43    1
    42    52    51    1
    43    51    50    1
    44    51    53    1
    45    28    35    1
    46    28    33   ar
    47    32    33   ar
    48    32    42    1
    49    43    42   ar
    50    43    44   ar
    51    50    44    1
    52    42    41   ar
    53    44    45   ar
    54    41    49    1
    55    41    46   ar
    56    45    46   ar
    57    45    48    1
