@<TRIPOS>MOLECULE
mol_data/opt/b3lyp/geoms/mol2/6al6al6al.out
 41 43 0 0 0
SMALL
GASTEIGER

@<TRIPOS>ATOM
      1 C          -4.6917   -2.3040   -0.0002 C.ar    1  LIG1        0.0285
      2 C          -3.3142   -2.4984   -0.0003 C.ar    1  LIG1       -0.0401
      3 C          -2.4955   -1.3730   -0.0003 C.ar    1  LIG1       -0.0164
      4 C          -3.0717   -0.0998   -0.0003 C.ar    1  LIG1        0.1460
      5 C          -4.4913    0.0171   -0.0002 C.ar    1  LIG1        0.1140
      6 N          -5.2475   -1.0945   -0.0002 N.ar    1  LIG1       -0.2513
      7 H          -1.4190   -1.4900   -0.0004 H       1  LIG1        0.0655
      8 H          -2.8884   -3.4963   -0.0003 H       1  LIG1        0.0634
      9 H          -5.3766   -3.1491   -0.0002 H       1  LIG1        0.0830
     10 O          -2.3244    1.0436   -0.0004 O.3     1  LIG1       -0.4930
     11 C          -0.9063    0.9380   -0.0005 C.3     1  LIG1        0.0789
     12 H          -0.5317    1.9622   -0.0005 H       1  LIG1        0.0660
     13 H          -0.5404    0.4204    0.8944 H       1  LIG1        0.0660
     14 H          -0.5406    0.4204   -0.8954 H       1  LIG1        0.0660
     15 C          -6.6640    1.2418   -0.0001 C.ar    1  LIG1        0.0378
     16 C          -5.2567    1.2943   -0.0002 C.ar    1  LIG1        0.0255
     17 C          -4.6973    2.5799   -0.0002 C.ar    1  LIG1       -0.0071
     18 C          -5.5156    3.7108   -0.0002 C.ar    1  LIG1        0.1466
     19 C          -6.9262    3.5591   -0.0001 C.ar    1  LIG1        0.1140
     20 N          -7.4417    2.3150   -0.0000 N.ar    1  LIG1       -0.2506
     21 H          -3.6266    2.6937   -0.0003 H       1  LIG1        0.0662
     22 H          -7.1599    0.2779   -0.0000 H       1  LIG1        0.0836
     23 O          -4.9956    4.9778   -0.0002 O.3     1  LIG1       -0.4929
     24 C          -3.5856    5.1446   -0.0003 C.3     1  LIG1        0.0789
     25 H          -3.4137    6.2219   -0.0003 H       1  LIG1        0.0660
     26 H          -3.1257    4.7061    0.8939 H       1  LIG1        0.0660
     27 H          -3.1259    4.7061   -0.8946 H       1  LIG1        0.0660
     28 C          -9.2964    4.3203    0.0002 C.ar    1  LIG1        0.0371
     29 C          -7.9295    4.6606    0.0000 C.ar    1  LIG1        0.0255
     30 C          -7.6135    6.0327   -0.0001 C.ar    1  LIG1       -0.0077
     31 C          -8.6495    6.9657   -0.0000 C.ar    1  LIG1        0.1387
     32 C          -9.9740    6.5094    0.0002 C.ar    1  LIG1        0.0692
     33 N         -10.2902    5.2152    0.0003 N.ar    1  LIG1       -0.2590
     34 H          -6.5834    6.3487   -0.0003 H       1  LIG1        0.0662
     35 H         -10.7861    7.2336    0.0002 H       1  LIG1        0.0867
     36 H          -9.5784    3.2742    0.0003 H       1  LIG1        0.0836
     37 O          -8.4817    8.3217   -0.0001 O.3     1  LIG1       -0.4936
     38 C          -7.1580    8.8296   -0.0004 C.3     1  LIG1        0.0789
     39 H          -7.2520    9.9166   -0.0004 H       1  LIG1        0.0660
     40 H          -6.6024    8.5157    0.8930 H       1  LIG1        0.0660
     41 H          -6.6026    8.5155   -0.8938 H       1  LIG1        0.0660
@<TRIPOS>BOND
     1    14    11    1
     2    27    24    1
     3    41    38    1
     4    12    11    1
     5    11    10    1
     6    11    13    1
     7    39    38    1
     8     7     3    1
     9    38    37    1
    10    38    40    1
    11    10     4    1
    12    25    24    1
    13     3     4   ar
    14     3     2   ar
    15    24    23    1
    16    24    26    1
    17     8     2    1
    18     4     5   ar
    19    21    17    1
    20     2     1   ar
    21    34    30    1
    22    17    16   ar
    23    17    18   ar
    24     5     6   ar
    25     5    16    1
    26    23    18    1
    27     1     6   ar
    28     1     9    1
    29    16    15   ar
    30    18    19   ar
    31    37    31    1
    32    30    31   ar
    33    30    29   ar
    34    19    20   ar
    35    19    29    1
    36    15    22    1
    37    15    20   ar
    38    31    32   ar
    39    29    28   ar
    40    32    35    1
    41    32    33   ar
    42    28    33   ar
    43    28    36    1
