@<TRIPOS>MOLECULE
mol_data/opt/b3lyp/geoms/mol2/6al6al.out
 28 29 0 0 0
SMALL
GASTEIGER

@<TRIPOS>ATOM
      1 C          -4.6493   -2.2016   -0.0001 C.ar    1  LIG1        0.0285
      2 C          -3.2645   -2.3305   -0.0001 C.ar    1  LIG1       -0.0401
      3 C          -2.5013   -1.1670   -0.0002 C.ar    1  LIG1       -0.0164
      4 C          -3.1377    0.0775   -0.0002 C.ar    1  LIG1        0.1460
      5 C          -4.5616    0.1276   -0.0002 C.ar    1  LIG1        0.1140
      6 N          -5.2618   -1.0197   -0.0001 N.ar    1  LIG1       -0.2513
      7 H          -1.4203   -1.2321   -0.0002 H       1  LIG1        0.0655
      8 H          -2.7913   -3.3070   -0.0001 H       1  LIG1        0.0634
      9 H          -5.2936   -3.0782   -0.0000 H       1  LIG1        0.0830
     10 O          -2.4431    1.2535   -0.0003 O.3     1  LIG1       -0.4930
     11 C          -1.0222    1.2142   -0.0003 C.3     1  LIG1        0.0789
     12 H          -0.6962    2.2550   -0.0004 H       1  LIG1        0.0660
     13 H          -0.6320    0.7145    0.8945 H       1  LIG1        0.0660
     14 H          -0.6321    0.7144   -0.8952 H       1  LIG1        0.0660
     15 C          -6.7913    1.2385   -0.0001 C.ar    1  LIG1        0.0371
     16 C          -5.3894    1.3707   -0.0002 C.ar    1  LIG1        0.0255
     17 C          -4.8726    2.6799   -0.0004 C.ar    1  LIG1       -0.0077
     18 C          -5.7576    3.7577   -0.0004 C.ar    1  LIG1        0.1387
     19 C          -7.1353    3.5042   -0.0003 C.ar    1  LIG1        0.0692
     20 N          -7.6405    2.2717   -0.0001 N.ar    1  LIG1       -0.2590
     21 H          -3.8074    2.8410   -0.0005 H       1  LIG1        0.0662
     22 H          -7.8303    4.3413   -0.0003 H       1  LIG1        0.0867
     23 H          -7.2278    0.2469    0.0000 H       1  LIG1        0.0836
     24 O          -5.3891    5.0727   -0.0006 O.3     1  LIG1       -0.4936
     25 C          -4.0043    5.3785   -0.0007 C.3     1  LIG1        0.0789
     26 H          -3.9362    6.4673   -0.0009 H       1  LIG1        0.0660
     27 H          -3.5017    4.9859    0.8929 H       1  LIG1        0.0660
     28 H          -3.5019    4.9856   -0.8944 H       1  LIG1        0.0660
@<TRIPOS>BOND
     1    14    11    1
     2    28    25    1
     3    26    25    1
     4    25    24    1
     5    25    27    1
     6    24    18    1
     7    21    17    1
     8    12    11    1
     9    18    17   ar
    10    18    19   ar
    11    17    16   ar
    12    11    10    1
    13    11    13    1
    14    22    19    1
    15    19    20   ar
    16    10     4    1
    17    16     5    1
    18    16    15   ar
    19     4     5   ar
    20     4     3   ar
    21     5     6   ar
    22     7     3    1
    23     3     2   ar
    24    20    15   ar
    25     6     1   ar
    26    15    23    1
    27     2     1   ar
    28     2     8    1
    29     1     9    1
