@<TRIPOS>MOLECULE
mol_data/opt/b3lyp/geoms/mol2/6al6al-.out
 28 29 0 0 0
SMALL
GASTEIGER

@<TRIPOS>ATOM
      1 C          -4.6769   -2.0357   -0.0002 C.ar    1  LIG1        0.0285
      2 C          -3.2961   -2.2023   -0.0001 C.ar    1  LIG1       -0.0401
      3 C          -2.5003   -1.0607   -0.0001 C.ar    1  LIG1       -0.0164
      4 C          -3.1021    0.2014   -0.0002 C.ar    1  LIG1        0.1460
      5 C          -4.5231    0.2891   -0.0003 C.ar    1  LIG1        0.1140
      6 N          -5.2564   -0.8366   -0.0002 N.ar    1  LIG1       -0.2513
      7 H          -1.4214   -1.1539   -0.0001 H       1  LIG1        0.0655
      8 H          -2.8504   -3.1916   -0.0001 H       1  LIG1        0.0634
      9 H          -5.3450   -2.8943   -0.0001 H       1  LIG1        0.0830
     10 O          -2.3818    1.3571   -0.0002 O.3     1  LIG1       -0.4930
     11 C          -0.9621    1.2889   -0.0003 C.3     1  LIG1        0.0789
     12 H          -0.6167    2.3231   -0.0004 H       1  LIG1        0.0660
     13 H          -0.5827    0.7809    0.8947 H       1  LIG1        0.0660
     14 H          -0.5828    0.7808   -0.8953 H       1  LIG1        0.0660
     15 C          -4.7759    2.8624   -0.0005 C.ar    1  LIG1        0.0371
     16 C          -5.3158    1.5572   -0.0003 C.ar    1  LIG1        0.0255
     17 C          -6.7124    1.4562   -0.0002 C.ar    1  LIG1       -0.0077
     18 C          -7.4976    2.6078   -0.0003 C.ar    1  LIG1        0.1387
     19 C          -6.8557    3.8526   -0.0005 C.ar    1  LIG1        0.0692
     20 N          -5.5231    3.9686   -0.0006 N.ar    1  LIG1       -0.2590
     21 H          -7.1847    0.4821   -0.0001 H       1  LIG1        0.0662
     22 H          -7.4175    4.7825   -0.0006 H       1  LIG1        0.0867
     23 H          -3.7073    3.0189   -0.0006 H       1  LIG1        0.0836
     24 O          -8.8499    2.4216   -0.0002 O.3     1  LIG1       -0.4936
     25 C          -9.6801    3.5736   -0.0004 C.3     1  LIG1        0.0789
     26 H         -10.7066    3.2045   -0.0004 H       1  LIG1        0.0660
     27 H          -9.5187    4.1904    0.8929 H       1  LIG1        0.0660
     28 H          -9.5187    4.1901   -0.8940 H       1  LIG1        0.0660
@<TRIPOS>BOND
     1    14    11    1
     2    28    25    1
     3    20    19   ar
     4    20    15   ar
     5    22    19    1
     6    23    15    1
     7    19    18   ar
     8    15    16   ar
     9    25    26    1
    10    25    24    1
    11    25    27    1
    12    12    11    1
    13    18    24    1
    14    18    17   ar
    15    16     5    1
    16    16    17   ar
    17    11    10    1
    18    11    13    1
    19     5     6   ar
    20     5     4   ar
    21    17    21    1
    22    10     4    1
    23     6     1   ar
    24     4     3   ar
    25     1     9    1
    26     1     2   ar
    27     3     2   ar
    28     3     7    1
    29     2     8    1
