@<TRIPOS>MOLECULE
mol_data/opt/b3lyp/geoms/mol2/6da12dh-12dh-6af4fi-4he-4fe12ae.out
 92 99 0 0 0
SMALL
GASTEIGER

@<TRIPOS>ATOM
      1 C          -4.0051   -1.6337   -1.0121 C.ar    1  LIG1        0.1408
      2 C          -2.6073   -1.5999   -0.9060 C.ar    1  LIG1       -0.0257
      3 C          -2.0166   -0.3903   -0.5480 C.ar    1  LIG1       -0.0570
      4 C          -2.8212    0.7186   -0.3140 C.ar    1  LIG1       -0.0325
      5 C          -4.2166    0.5804   -0.4489 C.ar    1  LIG1        0.1088
      6 N          -4.7994   -0.5805   -0.7924 N.ar    1  LIG1       -0.2332
      7 H          -0.9387   -0.3121   -0.4504 H       1  LIG1        0.0619
      8 H          -2.0204   -2.4904   -1.0986 H       1  LIG1        0.0646
      9 N          -5.1436   -3.8780   -1.6916 N.1     1  LIG1       -0.1893
     10 C          -4.6572   -2.8682   -1.3855 C.1     1  LIG1        0.1191
     11 H          -2.3785    1.6662   -0.0323 H       1  LIG1        0.0640
     12 C          -5.1214    1.7052   -0.2205 C.ar    1  LIG1        0.1731
     13 C          -4.9181    3.0533    0.0473 C.ar    1  LIG1        0.1203
     14 C          -6.2141    3.6698    0.1652 C.ar    1  LIG1        0.0924
     15 C          -7.1251    2.6386   -0.0521 C.ar    1  LIG1        0.1938
     16 O          -6.4398    1.4630   -0.2819 O.2     1  LIG1       -0.4469
     17 N          -2.7244    4.3856    0.3089 N.1     1  LIG1       -0.1907
     18 C          -3.6996    3.7591    0.1876 C.1     1  LIG1        0.1049
     19 N          -6.4140    4.9753    0.5126 N.pl3   1  LIG1       -0.3539
     20 H          -5.6030    5.5759    0.4723 H       1  LIG1        0.1425
     21 H          -7.2828    5.4289    0.2641 H       1  LIG1        0.1425
     22 C          -8.5493    2.5371   -0.0406 C.ar    1  LIG1        0.1916
     23 C          -9.5831    3.4683   -0.1205 C.ar    1  LIG1        0.1218
     24 C         -10.8163    2.7305   -0.0251 C.ar    1  LIG1        0.0894
     25 C         -10.4626    1.4030    0.1031 C.ar    1  LIG1        0.1592
     26 O          -9.0788    1.3045    0.0833 O.2     1  LIG1       -0.4484
     27 N          -9.3899    6.0032   -0.5451 N.1     1  LIG1       -0.1907
     28 C          -9.4761    4.8554   -0.3488 C.1     1  LIG1        0.1050
     29 N         -12.0826    3.2933   -0.0446 N.pl3   1  LIG1       -0.3540
     30 H         -12.1102    4.2392   -0.4042 H       1  LIG1        0.1425
     31 H         -12.7964    2.7135   -0.4667 H       1  LIG1        0.1425
     32 C         -10.6130   -1.0804   -0.0340 C.ar    1  LIG1        0.0392
     33 C         -11.2129    0.1720    0.2202 C.ar    1  LIG1        0.0407
     34 C         -12.5629    0.1562    0.5902 C.ar    1  LIG1       -0.0059
     35 C         -13.2634   -1.0495    0.6687 C.ar    1  LIG1        0.1435
     36 C         -12.5754   -2.2580    0.3890 C.ar    1  LIG1        0.1157
     37 N         -11.2701   -2.2275    0.0491 N.ar    1  LIG1       -0.2505
     38 H         -13.0965    1.0600    0.8617 H       1  LIG1        0.0662
     39 H          -9.5657   -1.1379   -0.3172 H       1  LIG1        0.0837
     40 O         -14.5835   -0.9568    0.9634 O.3     1  LIG1       -0.5046
     41 H         -14.8599   -1.7622    1.4441 H       1  LIG1        0.2922
     42 C         -14.1984   -4.0968    1.1917 C.ar    1  LIG1        0.1267
     43 C         -14.7081   -5.3845    1.0535 C.ar    1  LIG1       -0.0115
     44 C         -13.1954   -3.6133    0.3361 C.ar    1  LIG1        0.0456
     45 C         -14.2263   -6.2630    0.0744 C.ar    1  LIG1       -0.0097
     46 H         -15.4837   -5.7272    1.7352 H       1  LIG1        0.0660
     47 C         -12.7237   -4.5147   -0.6343 C.ar    1  LIG1       -0.0454
     48 C         -13.2051   -5.8149   -0.7939 C.ar    1  LIG1       -0.0418
     49 H         -11.9350   -4.1581   -1.2876 H       1  LIG1        0.0628
     50 O         -14.6567   -3.2747    2.2102 O.3     1  LIG1       -0.5061
     51 H         -15.3358   -3.7387    2.7181 H       1  LIG1        0.2922
     52 C         -12.6368   -6.6915   -1.8875 C.3     1  LIG1       -0.0391
     53 H         -12.1154   -6.0859   -2.6332 H       1  LIG1        0.0278
     54 H         -13.4178   -7.2662   -2.3933 H       1  LIG1        0.0278
     55 H         -11.9152   -7.4166   -1.4947 H       1  LIG1        0.0278
     56 C         -16.1634   -7.8466   -0.3380 C.ar    1  LIG1        0.0330
     57 C         -16.6599   -9.1577   -0.3859 C.ar    1  LIG1       -0.0315
     58 C         -14.8018   -7.6393   -0.0057 C.ar    1  LIG1        0.0043
     59 C         -15.8655  -10.2725   -0.1181 C.ar    1  LIG1        0.0028
     60 H         -17.7032   -9.3097   -0.6439 H       1  LIG1        0.0643
     61 C         -14.0085   -8.7544    0.2574 C.ar    1  LIG1       -0.0363
     62 C         -14.4993  -10.0708    0.2107 C.ar    1  LIG1        0.0332
     63 H         -12.9650   -8.6054    0.5145 H       1  LIG1        0.0637
     64 N         -17.0205   -6.7737   -0.5684 N.pl3   1  LIG1       -0.3575
     65 H         -16.5701   -5.9137   -0.8504 H       1  LIG1        0.1423
     66 H         -17.8363   -6.9897   -1.1242 H       1  LIG1        0.1423
     67 C         -13.5931  -11.1461    0.4638 C.1     1  LIG1       -0.0690
     68 C         -12.7852  -12.0221    0.6797 C.1     1  LIG1       -0.1139
     69 H         -12.0894  -12.8062    0.8675 H       1  LIG1        0.1232
     70 C         -17.2107  -12.0926   -1.2655 C.ar    1  LIG1        0.1253
     71 C         -17.7583  -13.3739   -1.2670 C.ar    1  LIG1       -0.0077
     72 C         -16.4696  -11.6322   -0.1559 C.ar    1  LIG1        0.0260
     73 C         -17.6220  -14.2420   -0.1753 C.ar    1  LIG1        0.0361
     74 H         -18.2823  -13.7242   -2.1528 H       1  LIG1        0.0662
     75 C         -16.3333  -12.5044    0.9252 C.ar    1  LIG1       -0.0344
     76 C         -16.8942  -13.7936    0.9564 C.ar    1  LIG1        0.0361
     77 H         -15.7792  -12.1719    1.7946 H       1  LIG1        0.0637
     78 O         -17.3484  -11.2638   -2.3427 O.3     1  LIG1       -0.5061
     79 H         -17.8193  -11.7364   -3.0420 H       1  LIG1        0.2922
     80 C         -16.7393  -14.5630    2.1502 C.1     1  LIG1       -0.0689
     81 C         -16.5846  -15.1489    3.1976 C.1     1  LIG1       -0.1139
     82 H         -16.4548  -15.6864    4.1079 H       1  LIG1        0.1232
     83 C         -18.2641  -15.5513   -0.2617 C.ar    1  LIG1        0.1373
     84 C         -19.3896  -15.9759   -0.9152 C.ar    1  LIG1       -0.0004
     85 C         -19.5127  -17.3873   -0.6636 C.ar    1  LIG1        0.0629
     86 C         -18.4404  -17.7097    0.1308 C.ar    1  LIG1        0.1079
     87 O         -17.6836  -16.6169    0.3785 O.2     1  LIG1       -0.4616
     88 H         -18.1090  -18.6364    0.5714 H       1  LIG1        0.1042
     89 H         -20.0777  -15.3683   -1.4831 H       1  LIG1        0.0668
     90 C         -20.5271  -18.2650   -1.1271 C.1     1  LIG1       -0.0665
     91 C         -21.3964  -19.0044   -1.5284 C.1     1  LIG1       -0.1138
     92 H         -22.1602  -19.6595   -1.8779 H       1  LIG1        0.1232
@<TRIPOS>BOND
     1    79    78    1
     2    53    52    1
     3    54    52    1
     4    78    70    1
     5    74    71    1
     6    52    55    1
     7    52    48    1
     8    92    91    1
     9     9    10    3
    10    91    90    3
    11    89    84    1
    12    10     1    1
    13    49    47    1
    14    71    70   ar
    15    71    73   ar
    16    70    72   ar
    17    90    85    1
    18    66    64    1
    19     8     2    1
    20     1     2   ar
    21     1     6   ar
    22    84    85   ar
    23    84    83   ar
    24     2     3   ar
    25    65    64    1
    26    48    47   ar
    27    48    45   ar
    28     6     5   ar
    29    85    86   ar
    30    60    57    1
    31    47    44   ar
    32    64    56    1
    33     3     7    1
    34     3     4   ar
    35    27    28    3
    36    31    29    1
    37     5     4   ar
    38     5    12    1
    39    30    29    1
    40    57    56   ar
    41    57    59   ar
    42    28    23    1
    43    56    58   ar
    44    39    32    1
    45     4    11    1
    46    16    12   ar
    47    16    15   ar
    48    83    73    1
    49    83    87   ar
    50    12    13   ar
    51    73    76   ar
    52    72    59    1
    53    72    75   ar
    54    23    22   ar
    55    23    24   ar
    56    59    62   ar
    57    15    22    1
    58    15    14   ar
    59    29    24    1
    60    22    26   ar
    61    32    37   ar
    62    32    33   ar
    63    24    25   ar
    64    58    45    1
    65    58    61   ar
    66    13    14   ar
    67    13    18    1
    68    37    36   ar
    69    45    43   ar
    70    26    25   ar
    71    25    33    1
    72    86    87   ar
    73    86    88    1
    74    14    19    1
    75    18    17    3
    76    62    61   ar
    77    62    67    1
    78    33    34   ar
    79    61    63    1
    80    21    19    1
    81    44    36    1
    82    44    42   ar
    83    36    35   ar
    84    67    68    3
    85    20    19    1
    86    34    35   ar
    87    34    38    1
    88    35    40    1
    89    68    69    1
    90    75    76   ar
    91    75    77    1
    92    76    80    1
    93    40    41    1
    94    43    42   ar
    95    43    46    1
    96    42    50    1
    97    80    81    3
    98    50    51    1
    99    81    82    1
