@<TRIPOS>MOLECULE
mol_data/opt/b3lyp/geoms/mol2/6da6da6da-6da.out
 42 45 0 0 0
SMALL
GASTEIGER

@<TRIPOS>ATOM
      1 C          -4.3826   -2.3049   -0.0005 C.ar    1  LIG1        0.1407
      2 C          -2.9831   -2.3616   -0.0005 C.ar    1  LIG1       -0.0257
      3 C          -2.2930   -1.1525   -0.0004 C.ar    1  LIG1       -0.0570
      4 C          -3.0055    0.0413   -0.0003 C.ar    1  LIG1       -0.0355
      5 C          -4.4139    0.0021   -0.0003 C.ar    1  LIG1        0.0752
      6 N          -5.0756   -1.1614   -0.0004 N.ar    1  LIG1       -0.2363
      7 H          -1.2079   -1.1402   -0.0003 H       1  LIG1        0.0619
      8 H          -2.4703   -3.3165   -0.0006 H       1  LIG1        0.0646
      9 N          -5.7010   -4.5522   -0.0008 N.1     1  LIG1       -0.1893
     10 C          -5.1418   -3.5340   -0.0007 C.1     1  LIG1        0.1191
     11 H          -2.4646    0.9792   -0.0001 H       1  LIG1        0.0639
     12 C          -6.6658    1.2225    0.0000 C.ar    1  LIG1        0.1498
     13 C          -5.2460    1.2335   -0.0002 C.ar    1  LIG1        0.0363
     14 C          -4.6660    2.5098   -0.0003 C.ar    1  LIG1       -0.0478
     15 C          -5.4339    3.6642   -0.0002 C.ar    1  LIG1       -0.0349
     16 C          -6.8332    3.5481    0.0000 C.ar    1  LIG1        0.0752
     17 N          -7.4068    2.3354    0.0001 N.ar    1  LIG1       -0.2356
     18 H          -3.5885    2.6210   -0.0005 H       1  LIG1        0.0626
     19 N          -8.2824   -0.8167    0.0005 N.1     1  LIG1       -0.1893
     20 C          -7.4866    0.0302    0.0003 C.1     1  LIG1        0.1198
     21 H          -4.9381    4.6234   -0.0003 H       1  LIG1        0.0639
     22 C          -7.4851    6.0685    0.0001 C.ar    1  LIG1        0.1498
     23 C          -7.7964    4.6872    0.0001 C.ar    1  LIG1        0.0363
     24 C          -9.1721    4.3996    0.0003 C.ar    1  LIG1       -0.0478
     25 C         -10.1261    5.4043    0.0004 C.ar    1  LIG1       -0.0349
     26 C          -9.7108    6.7481    0.0004 C.ar    1  LIG1        0.0752
     27 N          -8.4022    7.0419    0.0002 N.ar    1  LIG1       -0.2356
     28 H          -9.4747    3.3599    0.0004 H       1  LIG1        0.0626
     29 N          -5.0710    7.0563   -0.0002 N.1     1  LIG1       -0.1893
     30 C          -6.1386    6.5957   -0.0001 C.1     1  LIG1        0.1198
     31 H         -11.1708    5.1308    0.0006 H       1  LIG1        0.0639
     32 C         -12.0297    7.9327    0.0007 C.ar    1  LIG1        0.1491
     33 C         -10.6128    7.9406    0.0005 C.ar    1  LIG1        0.0362
     34 C         -10.0163    9.2160    0.0004 C.ar    1  LIG1       -0.0484
     35 C         -10.7939   10.3628    0.0005 C.ar    1  LIG1       -0.0429
     36 C         -12.1839   10.2267    0.0007 C.ar    1  LIG1        0.0291
     37 N         -12.7909    9.0428    0.0008 N.ar    1  LIG1       -0.2440
     38 H          -8.9351    9.2718    0.0003 H       1  LIG1        0.0625
     39 H         -12.8345   11.0981    0.0008 H       1  LIG1        0.0830
     40 N         -13.5083    5.7854    0.0008 N.1     1  LIG1       -0.1893
     41 C         -12.8311    6.7305    0.0008 C.1     1  LIG1        0.1198
     42 H         -10.3351   11.3461    0.0005 H       1  LIG1        0.0633
@<TRIPOS>BOND
     1     9    10    3
     2    10     1    1
     3     8     2    1
     4     1     2   ar
     5     1     6   ar
     6    18    14    1
     7     2     3   ar
     8     6     5   ar
     9     3     7    1
    10     3     4   ar
    11    21    15    1
    12    14    15   ar
    13    14    13   ar
    14     5     4   ar
    15     5    13    1
    16     4    11    1
    17    29    30    3
    18    15    16   ar
    19    13    12   ar
    20    30    22    1
    21    16    23    1
    22    16    17   ar
    23    12    17   ar
    24    12    20    1
    25    22    23   ar
    26    22    27   ar
    27    23    24   ar
    28    27    26   ar
    29    20    19    3
    30    38    34    1
    31    24    28    1
    32    24    25   ar
    33    26    25   ar
    34    26    33    1
    35    34    33   ar
    36    34    35   ar
    37    25    31    1
    38    42    35    1
    39    33    32   ar
    40    35    36   ar
    41    32    41    1
    42    32    37   ar
    43    36    37   ar
    44    36    39    1
    45    41    40    3
