@<TRIPOS>MOLECULE
mol_data/opt/b3lyp/geoms/mol2/6da6da6da-6da-.out
 42 45 0 0 0
SMALL
GASTEIGER

@<TRIPOS>ATOM
      1 C          -4.4983   -2.3420   -0.0005 C.ar    1  LIG1        0.1407
      2 C          -3.1011   -2.4403   -0.0006 C.ar    1  LIG1       -0.0257
      3 C          -2.3755   -1.2522   -0.0005 C.ar    1  LIG1       -0.0570
      4 C          -3.0519   -0.0376   -0.0004 C.ar    1  LIG1       -0.0355
      5 C          -4.4607   -0.0350   -0.0003 C.ar    1  LIG1        0.0752
      6 N          -5.1569   -1.1782   -0.0003 N.ar    1  LIG1       -0.2363
      7 H          -1.2905   -1.2722   -0.0006 H       1  LIG1        0.0619
      8 H          -2.6169   -3.4100   -0.0007 H       1  LIG1        0.0646
      9 N          -5.8865   -4.5467   -0.0006 N.1     1  LIG1       -0.1893
     10 C          -5.2946   -3.5471   -0.0005 C.1     1  LIG1        0.1191
     11 H          -2.4839    0.8839   -0.0003 H       1  LIG1        0.0639
     12 C          -6.6763    1.2463    0.0003 C.ar    1  LIG1        0.1498
     13 C          -5.2572    1.2195   -0.0002 C.ar    1  LIG1        0.0363
     14 C          -4.6433    2.4800   -0.0005 C.ar    1  LIG1       -0.0478
     15 C          -5.3798    3.6551   -0.0004 C.ar    1  LIG1       -0.0349
     16 C          -6.7819    3.5762    0.0000 C.ar    1  LIG1        0.0752
     17 N          -7.3870    2.3785    0.0004 N.ar    1  LIG1       -0.2356
     18 H          -3.5632    2.5624   -0.0009 H       1  LIG1        0.0626
     19 N          -8.3553   -0.7414    0.0012 N.1     1  LIG1       -0.1893
     20 C          -7.5310    0.0781    0.0007 C.1     1  LIG1        0.1198
     21 H          -4.8595    4.6011   -0.0007 H       1  LIG1        0.0639
     22 C          -7.3816    6.1128   -0.0000 C.ar    1  LIG1        0.1498
     23 C          -7.7192    4.7379    0.0002 C.ar    1  LIG1        0.0363
     24 C          -9.1016    4.4711    0.0005 C.ar    1  LIG1       -0.0478
     25 C         -10.0324    5.4926    0.0006 C.ar    1  LIG1       -0.0349
     26 C          -9.5901    6.8300    0.0004 C.ar    1  LIG1        0.0752
     27 N          -8.2839    7.1019    0.0001 N.ar    1  LIG1       -0.2356
     28 H          -9.4177    3.4355    0.0007 H       1  LIG1        0.0626
     29 N          -4.9310    7.0040   -0.0006 N.1     1  LIG1       -0.1893
     30 C          -6.0222    6.6035   -0.0003 C.1     1  LIG1        0.1198
     31 H         -11.0846    5.2379    0.0009 H       1  LIG1        0.0639
     32 C         -10.0850    9.3423    0.0007 C.ar    1  LIG1        0.1491
     33 C         -10.5190    7.9901    0.0005 C.ar    1  LIG1        0.0362
     34 C         -11.9103    7.7948    0.0003 C.ar    1  LIG1       -0.0484
     35 C         -12.7811    8.8744    0.0004 C.ar    1  LIG1       -0.0429
     36 C         -12.2389   10.1598    0.0006 C.ar    1  LIG1        0.0291
     37 N         -10.9279   10.3909    0.0008 N.ar    1  LIG1       -0.2440
     38 H         -12.3212    6.7925    0.0002 H       1  LIG1        0.0625
     39 H         -12.8799   11.0384    0.0006 H       1  LIG1        0.0830
     40 N          -7.6473   10.2539    0.0013 N.1     1  LIG1       -0.1893
     41 C          -8.7013    9.7639    0.0010 C.1     1  LIG1        0.1198
     42 H         -13.8556    8.7248    0.0003 H       1  LIG1        0.0633
@<TRIPOS>BOND
     1    18    14    1
     2    21    15    1
     3     8     2    1
     4    29    30    3
     5     7     3    1
     6     2     3   ar
     7     2     1   ar
     8     9    10    3
     9     3     4   ar
    10    10     1    1
    11    14    15   ar
    12    14    13   ar
    13     1     6   ar
    14    15    16   ar
    15     4    11    1
    16     4     5   ar
    17     6     5   ar
    18    30    22    1
    19     5    13    1
    20    13    12   ar
    21    22    27   ar
    22    22    23   ar
    23    16    23    1
    24    16    17   ar
    25    27    26   ar
    26    38    34    1
    27    23    24   ar
    28    12    17   ar
    29    12    20    1
    30    42    35    1
    31    34    35   ar
    32    34    33   ar
    33    35    36   ar
    34    26    33    1
    35    26    25   ar
    36    33    32   ar
    37    24    25   ar
    38    24    28    1
    39    36    39    1
    40    36    37   ar
    41    25    31    1
    42    32    37   ar
    43    32    41    1
    44    20    19    3
    45    41    40    3
