@<TRIPOS>MOLECULE
mol_data/opt/b3lyp/geoms/mol2/6da6da-6da.out
 32 34 0 0 0
SMALL
GASTEIGER

@<TRIPOS>ATOM
      1 C          -4.4547   -2.1669   -0.0001 C.ar    1  LIG1        0.1407
      2 C          -3.0574   -2.2707   -0.0002 C.ar    1  LIG1       -0.0257
      3 C          -2.3336   -1.0840   -0.0003 C.ar    1  LIG1       -0.0570
      4 C          -3.0066    0.1354   -0.0003 C.ar    1  LIG1       -0.0355
      5 C          -4.4134    0.1447   -0.0002 C.ar    1  LIG1        0.0752
      6 N          -5.1127   -1.0043   -0.0001 N.ar    1  LIG1       -0.2363
      7 H          -1.2486   -1.1014   -0.0003 H       1  LIG1        0.0619
      8 H          -2.5759   -3.2416   -0.0002 H       1  LIG1        0.0646
      9 N          -5.8851   -4.3460   -0.0000 N.1     1  LIG1       -0.1893
     10 C          -5.2625   -3.3650   -0.0001 C.1     1  LIG1        0.1191
     11 H          -2.4351    1.0517   -0.0003 H       1  LIG1        0.0639
     12 C          -4.8174    2.7213   -0.0002 C.ar    1  LIG1        0.1498
     13 C          -5.2604    1.3765   -0.0002 C.ar    1  LIG1        0.0363
     14 C          -6.6576    1.2256   -0.0002 C.ar    1  LIG1       -0.0478
     15 C          -7.5104    2.3175   -0.0002 C.ar    1  LIG1       -0.0349
     16 C          -6.9671    3.6145   -0.0002 C.ar    1  LIG1        0.0752
     17 N          -5.6366    3.7791   -0.0002 N.ar    1  LIG1       -0.2356
     18 H          -7.0608    0.2208   -0.0001 H       1  LIG1        0.0626
     19 N          -2.3234    3.4846   -0.0003 N.1     1  LIG1       -0.1893
     20 C          -3.4277    3.1207   -0.0002 C.1     1  LIG1        0.1198
     21 H          -8.5767    2.1458   -0.0001 H       1  LIG1        0.0639
     22 C          -9.1606    5.0176   -0.0001 C.ar    1  LIG1        0.1491
     23 C          -7.7495    4.8887   -0.0002 C.ar    1  LIG1        0.0362
     24 C          -7.0329    6.1007   -0.0002 C.ar    1  LIG1       -0.0484
     25 C          -7.6965    7.3171   -0.0002 C.ar    1  LIG1       -0.0429
     26 C          -9.0931    7.3156   -0.0001 C.ar    1  LIG1        0.0291
     27 N          -9.8114    6.1959   -0.0001 N.ar    1  LIG1       -0.2440
     28 H          -5.9513    6.0523   -0.0002 H       1  LIG1        0.0625
     29 H          -9.6566    8.2457   -0.0001 H       1  LIG1        0.0830
     30 N         -10.8390    3.0228   -0.0001 N.1     1  LIG1       -0.1893
     31 C         -10.0742    3.8986   -0.0001 C.1     1  LIG1        0.1198
     32 H          -7.1452    8.2514   -0.0002 H       1  LIG1        0.0633
@<TRIPOS>BOND
     1    11     4    1
     2     7     3    1
     3     3     4   ar
     4     3     2   ar
     5     4     5   ar
     6    19    20    3
     7    20    12    1
     8    12    17   ar
     9    12    13   ar
    10     8     2    1
    11     2     1   ar
    12     5    13    1
    13     5     6   ar
    14    28    24    1
    15    17    16   ar
    16    13    14   ar
    17    32    25    1
    18    24    25   ar
    19    24    23   ar
    20    16    23    1
    21    16    15   ar
    22    25    26   ar
    23    14    15   ar
    24    14    18    1
    25    23    22   ar
    26    15    21    1
    27     1     6   ar
    28     1    10    1
    29    26    29    1
    30    26    27   ar
    31    22    27   ar
    32    22    31    1
    33    31    30    3
    34    10     9    3
