@<TRIPOS>MOLECULE
mol_data/opt/b3lyp/geoms/mol2/6da6da-4da6da.out
 43 46 0 0 0
SMALL
GASTEIGER

@<TRIPOS>ATOM
      1 C          -4.4418   -2.2389   -0.2714 C.ar    1  LIG1        0.1407
      2 C          -3.0733   -2.3658    0.0008 C.ar    1  LIG1       -0.0257
      3 C          -2.3682   -1.2056    0.3055 C.ar    1  LIG1       -0.0570
      4 C          -3.0342    0.0168    0.3137 C.ar    1  LIG1       -0.0355
      5 C          -4.4042    0.0478    0.0010 C.ar    1  LIG1        0.0752
      6 N          -5.0960   -1.0705   -0.2717 N.ar    1  LIG1       -0.2363
      7 H          -1.3101   -1.2509    0.5416 H       1  LIG1        0.0619
      8 H          -2.5970   -3.3392   -0.0200 H       1  LIG1        0.0646
      9 N          -5.8319   -4.3777   -0.8050 N.1     1  LIG1       -0.1893
     10 C          -5.2254   -3.4149   -0.5703 C.1     1  LIG1        0.1191
     11 H          -2.4995    0.9232    0.5648 H       1  LIG1        0.0639
     12 C          -4.7346    2.5803   -0.3497 C.ar    1  LIG1        0.1498
     13 C          -5.2145    1.2968   -0.0051 C.ar    1  LIG1        0.0363
     14 C          -6.5752    1.2215    0.3324 C.ar    1  LIG1       -0.0478
     15 C          -7.3595    2.3631    0.3491 C.ar    1  LIG1       -0.0350
     16 C          -6.7741    3.5964    0.0136 C.ar    1  LIG1        0.0737
     17 N          -5.4875    3.6893   -0.3371 N.ar    1  LIG1       -0.2356
     18 H          -6.9922    0.2536    0.5849 H       1  LIG1        0.0626
     19 N          -2.2960    2.9752   -1.1840 N.1     1  LIG1       -0.1893
     20 C          -3.3811    2.7982   -0.8071 C.1     1  LIG1        0.1198
     21 H          -8.4019    2.3095    0.6430 H       1  LIG1        0.0639
     22 C          -7.0196    6.0762    0.4837 C.ar    1  LIG1        0.0615
     23 C          -7.7910    7.2460    0.4510 C.ar    1  LIG1       -0.0359
     24 C          -7.5602    4.8559    0.0150 C.ar    1  LIG1        0.0178
     25 C          -9.1016    7.2425   -0.0420 C.ar    1  LIG1       -0.0139
     26 H          -7.3619    8.1605    0.8459 H       1  LIG1        0.0637
     27 C          -8.8743    4.8640   -0.4683 C.ar    1  LIG1       -0.0508
     28 C          -9.6337    6.0287   -0.5030 C.ar    1  LIG1       -0.0532
     29 H          -9.3003    3.9456   -0.8588 H       1  LIG1        0.0625
     30 N          -4.6878    6.3339    1.5968 N.1     1  LIG1       -0.1908
     31 C          -5.7119    6.1708    1.0705 C.1     1  LIG1        0.0998
     32 H         -10.6379    5.9939   -0.9094 H       1  LIG1        0.0624
     33 C         -11.2145    8.6249    0.3427 C.ar    1  LIG1        0.1477
     34 C          -9.8728    8.5101   -0.0897 C.ar    1  LIG1        0.0180
     35 C          -9.2768    9.6863   -0.5697 C.ar    1  LIG1       -0.0499
     36 C         -10.0028   10.8700   -0.6118 C.ar    1  LIG1       -0.0429
     37 C         -11.3285   10.8558   -0.1710 C.ar    1  LIG1        0.0291
     38 N         -11.9270    9.7627    0.3010 N.ar    1  LIG1       -0.2440
     39 H          -8.2521    9.6564   -0.9267 H       1  LIG1        0.0625
     40 H         -11.9336   11.7589   -0.1963 H       1  LIG1        0.0830
     41 N         -12.4882    6.5876    1.3565 N.1     1  LIG1       -0.1893
     42 C         -11.9179    7.4940    0.9047 C.1     1  LIG1        0.1197
     43 H          -9.5573   11.7852   -0.9870 H       1  LIG1        0.0633
@<TRIPOS>BOND
     1    19    20    3
     2    43    36    1
     3    39    35    1
     4    32    28    1
     5    29    27    1
     6    20    12    1
     7     9    10    3
     8    36    35   ar
     9    36    37   ar
    10    10     1    1
    11    35    34   ar
    12    28    27   ar
    13    28    25   ar
    14    27    24   ar
    15    12    17   ar
    16    12    13   ar
    17    17    16   ar
    18     6     1   ar
    19     6     5   ar
    20     1     2   ar
    21    40    37    1
    22    37    38   ar
    23    34    25    1
    24    34    33   ar
    25    25    23   ar
    26     8     2    1
    27    13     5    1
    28    13    14   ar
    29     2     3   ar
    30     5     4   ar
    31    16    24    1
    32    16    15   ar
    33    24    22   ar
    34    38    33   ar
    35     3     4   ar
    36     3     7    1
    37     4    11    1
    38    14    15   ar
    39    14    18    1
    40    33    42    1
    41    15    21    1
    42    23    22   ar
    43    23    26    1
    44    22    31    1
    45    42    41    3
    46    31    30    3
