@<TRIPOS>MOLECULE
mol_data/opt/b3lyp/geoms/mol2/6da6da.out
 22 23 0 0 0
SMALL
GASTEIGER

@<TRIPOS>ATOM
      1 C          -4.4424   -2.0842   -0.0002 C.ar    1  LIG1        0.1407
      2 C          -3.0422   -2.0859   -0.0000 C.ar    1  LIG1       -0.0257
      3 C          -2.4021   -0.8497    0.0001 C.ar    1  LIG1       -0.0570
      4 C          -3.1623    0.3142   -0.0000 C.ar    1  LIG1       -0.0355
      5 C          -4.5684    0.2205   -0.0002 C.ar    1  LIG1        0.0752
      6 N          -5.1808   -0.9692   -0.0003 N.ar    1  LIG1       -0.2363
      7 H          -1.3183   -0.7932    0.0002 H       1  LIG1        0.0619
      8 H          -2.4917   -3.0195    0.0000 H       1  LIG1        0.0646
      9 N          -5.6671   -4.3839   -0.0004 N.1     1  LIG1       -0.1893
     10 C          -5.1515   -3.3429   -0.0003 C.1     1  LIG1        0.1191
     11 H          -2.6583    1.2721    0.0001 H       1  LIG1        0.0639
     12 C          -6.8685    1.3480   -0.0001 C.ar    1  LIG1        0.1491
     13 C          -5.4504    1.4208   -0.0003 C.ar    1  LIG1        0.0362
     14 C          -4.9068    2.7160   -0.0007 C.ar    1  LIG1       -0.0484
     15 C          -5.7270    3.8346   -0.0008 C.ar    1  LIG1       -0.0429
     16 C          -7.1082    3.6399   -0.0005 C.ar    1  LIG1        0.0291
     17 N          -7.6664    2.4318   -0.0002 N.ar    1  LIG1       -0.2440
     18 H          -3.8329    2.8585   -0.0009 H       1  LIG1        0.0625
     19 H          -7.7935    4.4844   -0.0006 H       1  LIG1        0.0830
     20 N          -8.3853   -0.7664    0.0008 N.1     1  LIG1       -0.1893
     21 C          -7.6337    0.1202    0.0004 C.1     1  LIG1        0.1198
     22 H          -5.3068    4.8348   -0.0010 H       1  LIG1        0.0633
@<TRIPOS>BOND
     1    22    15    1
     2    18    14    1
     3    15    14   ar
     4    15    16   ar
     5    14    13   ar
     6    19    16    1
     7    16    17   ar
     8     9    10    3
     9    13     5    1
    10    13    12   ar
    11    10     1    1
    12     6     5   ar
    13     6     1   ar
    14    17    12   ar
    15     5     4   ar
    16     1     2   ar
    17    12    21    1
    18     2     8    1
    19     2     3   ar
    20     4     3   ar
    21     4    11    1
    22     3     7    1
    23    21    20    3
