@<TRIPOS>MOLECULE
mol_data/opt/b3lyp/geoms/mol2/6da6da-6da-6da.out
 42 45 0 0 0
SMALL
GASTEIGER

@<TRIPOS>ATOM
      1 C          -4.4922   -2.2833   -0.0002 C.ar    1  LIG1        0.1407
      2 C          -3.1006   -2.4462   -0.0005 C.ar    1  LIG1       -0.0257
      3 C          -2.3277   -1.2908   -0.0007 C.ar    1  LIG1       -0.0570
      4 C          -2.9479   -0.0437   -0.0006 C.ar    1  LIG1       -0.0355
      5 C          -4.3532    0.0250   -0.0003 C.ar    1  LIG1        0.0752
      6 N          -5.1001   -1.0939   -0.0002 N.ar    1  LIG1       -0.2363
      7 H          -1.2444   -1.3537   -0.0009 H       1  LIG1        0.0619
      8 H          -2.6603   -3.4366   -0.0005 H       1  LIG1        0.0646
      9 N          -6.0221   -4.3940    0.0001 N.1     1  LIG1       -0.1893
     10 C          -5.3525   -3.4444   -0.0001 C.1     1  LIG1        0.1191
     11 H          -2.3384    0.8474   -0.0007 H       1  LIG1        0.0639
     12 C          -4.6563    2.6176   -0.0003 C.ar    1  LIG1        0.1498
     13 C          -5.1503    1.2904   -0.0002 C.ar    1  LIG1        0.0363
     14 C          -6.5544    1.1863   -0.0000 C.ar    1  LIG1       -0.0478
     15 C          -7.3627    2.3076    0.0001 C.ar    1  LIG1       -0.0349
     16 C          -6.7679    3.5838    0.0000 C.ar    1  LIG1        0.0752
     17 N          -5.4390    3.7041   -0.0001 N.ar    1  LIG1       -0.2356
     18 H          -6.9885    0.1945    0.0000 H       1  LIG1        0.0626
     19 N          -2.1246    3.2428   -0.0006 N.1     1  LIG1       -0.1893
     20 C          -3.2507    2.9552   -0.0005 C.1     1  LIG1        0.1198
     21 H          -8.4379    2.1777    0.0003 H       1  LIG1        0.0639
     22 C          -6.9686    6.1350    0.0003 C.ar    1  LIG1        0.1498
     23 C          -7.5528    4.8416    0.0001 C.ar    1  LIG1        0.0363
     24 C          -8.9550    4.8275    0.0001 C.ar    1  LIG1       -0.0478
     25 C          -9.6991    5.9974    0.0002 C.ar    1  LIG1       -0.0349
     26 C          -9.0273    7.2308    0.0004 C.ar    1  LIG1        0.0752
     27 N          -7.6859    7.2629    0.0004 N.ar    1  LIG1       -0.2356
     28 H          -9.4918    3.8866   -0.0001 H       1  LIG1        0.0626
     29 N          -4.4473    6.7817    0.0006 N.1     1  LIG1       -0.1893
     30 C          -5.5457    6.4017    0.0005 C.1     1  LIG1        0.1198
     31 H         -10.7768    5.9323    0.0001 H       1  LIG1        0.0639
     32 C         -11.0701    8.8454    0.0004 C.ar    1  LIG1        0.1491
     33 C          -9.6790    8.5761    0.0005 C.ar    1  LIG1        0.0362
     34 C          -8.8441    9.7100    0.0007 C.ar    1  LIG1       -0.0484
     35 C          -9.3834   10.9865    0.0009 C.ar    1  LIG1       -0.0429
     36 C         -10.7733   11.1247    0.0008 C.ar    1  LIG1        0.0291
     37 N         -11.6004   10.0824    0.0006 N.ar    1  LIG1       -0.2440
     38 H          -7.7729    9.5524    0.0008 H       1  LIG1        0.0625
     39 H         -11.2409   12.1065    0.0009 H       1  LIG1        0.0830
     40 N         -12.9330    7.0209    0.0001 N.1     1  LIG1       -0.1893
     41 C         -12.0897    7.8214    0.0002 C.1     1  LIG1        0.1198
     42 H          -8.7413   11.8610    0.0010 H       1  LIG1        0.0633
@<TRIPOS>BOND
     1     7     3    1
     2    11     4    1
     3     3     4   ar
     4     3     2   ar
     5    19    20    3
     6     4     5   ar
     7     8     2    1
     8     2     1   ar
     9    20    12    1
    10     5    13    1
    11     5     6   ar
    12    12    13   ar
    13    12    17   ar
    14     1     6   ar
    15     1    10    1
    16    13    14   ar
    17    17    16   ar
    18    28    24    1
    19    10     9    3
    20    14    18    1
    21    14    15   ar
    22    16    15   ar
    23    16    23    1
    24    40    41    3
    25    24    23   ar
    26    24    25   ar
    27    31    25    1
    28    15    21    1
    29    23    22   ar
    30    25    26   ar
    31    41    32    1
    32    22    27   ar
    33    22    30    1
    34    26    27   ar
    35    26    33    1
    36    32    33   ar
    37    32    37   ar
    38    30    29    3
    39    33    34   ar
    40    37    36   ar
    41    34    38    1
    42    34    35   ar
    43    36    35   ar
    44    36    39    1
    45    35    42    1
