@<TRIPOS>MOLECULE
mol_data/opt/b3lyp/geoms/mol2/6da6da-6da-6da-.out
 42 45 0 0 0
SMALL
GASTEIGER

@<TRIPOS>ATOM
      1 C          -4.6074   -2.3169   -0.0001 C.ar    1  LIG1        0.1407
      2 C          -3.2209   -2.5177   -0.0006 C.ar    1  LIG1       -0.0257
      3 C          -2.4168   -1.3839   -0.0010 C.ar    1  LIG1       -0.0570
      4 C          -3.0027   -0.1202   -0.0009 C.ar    1  LIG1       -0.0355
      5 C          -4.4056   -0.0130   -0.0004 C.ar    1  LIG1        0.0752
      6 N          -5.1827   -1.1112    0.0000 N.ar    1  LIG1       -0.2363
      7 H          -1.3356   -1.4763   -0.0014 H       1  LIG1        0.0619
      8 H          -2.8078   -3.5197   -0.0007 H       1  LIG1        0.0646
      9 N          -6.1971   -4.3826    0.0007 N.1     1  LIG1       -0.1893
     10 C          -5.4998   -3.4532    0.0003 C.1     1  LIG1        0.1191
     11 H          -2.3697    0.7544   -0.0013 H       1  LIG1        0.0639
     12 C          -4.6393    2.5876   -0.0004 C.ar    1  LIG1        0.1498
     13 C          -5.1681    1.2738   -0.0002 C.ar    1  LIG1        0.0363
     14 C          -6.5741    1.2071    0.0002 C.ar    1  LIG1       -0.0478
     15 C          -7.3522    2.3495    0.0004 C.ar    1  LIG1       -0.0349
     16 C          -6.7245    3.6103    0.0001 C.ar    1  LIG1        0.0752
     17 N          -5.3930    3.6942   -0.0003 N.ar    1  LIG1       -0.2356
     18 H          -7.0340    0.2270    0.0004 H       1  LIG1        0.0626
     19 N          -2.0901    3.1365   -0.0012 N.1     1  LIG1       -0.1893
     20 C          -3.2249    2.8855   -0.0008 C.1     1  LIG1        0.1198
     21 H          -8.4300    2.2461    0.0007 H       1  LIG1        0.0639
     22 C          -6.8665    6.1698    0.0003 C.ar    1  LIG1        0.1498
     23 C          -7.4781    4.8886    0.0003 C.ar    1  LIG1        0.0363
     24 C          -8.8828    4.9000    0.0003 C.ar    1  LIG1       -0.0478
     25 C          -9.5989    6.0837    0.0004 C.ar    1  LIG1       -0.0349
     26 C          -8.8994    7.3043    0.0004 C.ar    1  LIG1        0.0752
     27 N          -7.5643    7.3124    0.0004 N.ar    1  LIG1       -0.2356
     28 H          -9.4349    3.9681    0.0002 H       1  LIG1        0.0626
     29 N          -4.3209    6.7164    0.0005 N.1     1  LIG1       -0.1893
     30 C          -5.4383    6.3978    0.0004 C.1     1  LIG1        0.1198
     31 H         -10.6805    6.0410    0.0004 H       1  LIG1        0.0639
     32 C          -8.8885    9.8646    0.0010 C.ar    1  LIG1        0.1491
     33 C          -9.5814    8.6248    0.0005 C.ar    1  LIG1        0.0362
     34 C         -10.9840    8.7086   -0.0001 C.ar    1  LIG1       -0.0484
     35 C         -11.6250    9.9384   -0.0001 C.ar    1  LIG1       -0.0429
     36 C         -10.8394   11.0912    0.0005 C.ar    1  LIG1        0.0291
     37 N          -9.5088   11.0587    0.0010 N.ar    1  LIG1       -0.2440
     38 H         -11.5852    7.8074   -0.0006 H       1  LIG1        0.0625
     39 H         -11.2942   12.0791    0.0005 H       1  LIG1        0.0830
     40 N          -6.3222   10.2899    0.0025 N.1     1  LIG1       -0.1893
     41 C          -7.4495   10.0069    0.0018 C.1     1  LIG1        0.1198
     42 H         -12.7078   10.0039   -0.0005 H       1  LIG1        0.0633
@<TRIPOS>BOND
     1     7     3    1
     2    11     4    1
     3    19    20    3
     4     3     4   ar
     5     3     2   ar
     6     4     5   ar
     7    20    12    1
     8     8     2    1
     9     2     1   ar
    10    38    34    1
    11    42    35    1
    12    12    17   ar
    13    12    13   ar
    14     5    13    1
    15     5     6   ar
    16    17    16   ar
    17    13    14   ar
    18     1     6   ar
    19     1    10    1
    20    34    35   ar
    21    34    33   ar
    22    35    36   ar
    23    16    23    1
    24    16    15   ar
    25    14    15   ar
    26    14    18    1
    27    28    24    1
    28    23    24   ar
    29    23    22   ar
    30    24    25   ar
    31    22    30    1
    32    22    27   ar
    33    10     9    3
    34    25    26   ar
    35    25    31    1
    36    15    21    1
    37    30    29    3
    38    27    26   ar
    39    26    33    1
    40    33    32   ar
    41    36    39    1
    42    36    37   ar
    43    37    32   ar
    44    32    41    1
    45    41    40    3
