@<TRIPOS>MOLECULE
mol_data/opt/b3lyp/geoms/mol2/6da6da-.out
 22 23 0 0 0
SMALL
GASTEIGER

@<TRIPOS>ATOM
      1 C          -4.5628   -2.0716   -0.0000 C.ar    1  LIG1        0.1407
      2 C          -3.1666   -2.1821   -0.0000 C.ar    1  LIG1       -0.0257
      3 C          -2.4390   -0.9978   -0.0001 C.ar    1  LIG1       -0.0570
      4 C          -3.1067    0.2245   -0.0002 C.ar    1  LIG1       -0.0355
      5 C          -4.5137    0.2410   -0.0002 C.ar    1  LIG1        0.0752
      6 N          -5.2158   -0.9060   -0.0001 N.ar    1  LIG1       -0.2363
      7 H          -1.3539   -1.0190   -0.0001 H       1  LIG1        0.0619
      8 H          -2.6889   -3.1547    0.0001 H       1  LIG1        0.0646
      9 N          -6.0094   -4.2405    0.0001 N.1     1  LIG1       -0.1893
     10 C          -5.3781   -3.2650    0.0000 C.1     1  LIG1        0.1191
     11 H          -2.5309    1.1379   -0.0003 H       1  LIG1        0.0639
     12 C          -4.9058    2.8202   -0.0004 C.ar    1  LIG1        0.1491
     13 C          -5.3593    1.4782   -0.0003 C.ar    1  LIG1        0.0362
     14 C          -6.7577    1.3157   -0.0003 C.ar    1  LIG1       -0.0484
     15 C          -7.6007    2.4156   -0.0004 C.ar    1  LIG1       -0.0429
     16 C          -7.0334    3.6915   -0.0005 C.ar    1  LIG1        0.0291
     17 N          -5.7188    3.8936   -0.0004 N.ar    1  LIG1       -0.2440
     18 H          -7.1516    0.3073   -0.0003 H       1  LIG1        0.0625
     19 H          -7.6548    4.5838   -0.0005 H       1  LIG1        0.0830
     20 N          -2.4025    3.5494   -0.0003 N.1     1  LIG1       -0.1893
     21 C          -3.5129    3.2043   -0.0003 C.1     1  LIG1        0.1198
     22 H          -8.6782    2.2900   -0.0004 H       1  LIG1        0.0633
@<TRIPOS>BOND
     1    19    16    1
     2    16    17   ar
     3    16    15   ar
     4    17    12   ar
     5    22    15    1
     6    15    14   ar
     7    12    21    1
     8    12    13   ar
     9    21    20    3
    10    14    13   ar
    11    14    18    1
    12    13     5    1
    13    11     4    1
    14     4     5   ar
    15     4     3   ar
    16     5     6   ar
    17     6     1   ar
    18     3     7    1
    19     3     2   ar
    20     1     2   ar
    21     1    10    1
    22     2     8    1
    23    10     9    3
