@<TRIPOS>MOLECULE
mol_data/opt/b3lyp/geoms/mol2/6da6da6da.out
 32 34 0 0 0
SMALL
GASTEIGER

@<TRIPOS>ATOM
      1 C          -4.3273   -2.1800   -0.0005 C.ar    1  LIG1        0.1407
      2 C          -2.9267   -2.1642   -0.0002 C.ar    1  LIG1       -0.0257
      3 C          -2.3013   -0.9207    0.0001 C.ar    1  LIG1       -0.0570
      4 C          -3.0753    0.2340    0.0001 C.ar    1  LIG1       -0.0355
      5 C          -4.4803    0.1226   -0.0002 C.ar    1  LIG1        0.0752
      6 N          -5.0790   -1.0743   -0.0004 N.ar    1  LIG1       -0.2363
      7 H          -1.2182   -0.8513    0.0003 H       1  LIG1        0.0619
      8 H          -2.3649   -3.0910   -0.0003 H       1  LIG1        0.0646
      9 N          -5.5198   -4.4963   -0.0011 N.1     1  LIG1       -0.1893
     10 C          -5.0197   -3.4478   -0.0008 C.1     1  LIG1        0.1191
     11 H          -2.5825    1.1978    0.0004 H       1  LIG1        0.0639
     12 C          -6.7922    1.2340   -0.0001 C.ar    1  LIG1        0.1498
     13 C          -5.3747    1.3109   -0.0002 C.ar    1  LIG1        0.0363
     14 C          -4.8513    2.6140   -0.0002 C.ar    1  LIG1       -0.0478
     15 C          -5.6725    3.7275   -0.0002 C.ar    1  LIG1       -0.0349
     16 C          -7.0673    3.5462   -0.0002 C.ar    1  LIG1        0.0752
     17 N          -7.5829    2.3150   -0.0001 N.ar    1  LIG1       -0.2356
     18 H          -3.7796    2.7716   -0.0003 H       1  LIG1        0.0626
     19 N          -8.2780   -0.9037    0.0002 N.1     1  LIG1       -0.1893
     20 C          -7.5500    0.0019    0.0000 C.1     1  LIG1        0.1198
     21 H          -5.2204    4.7111   -0.0003 H       1  LIG1        0.0639
     22 C          -9.4388    4.5124    0.0002 C.ar    1  LIG1        0.1491
     23 C          -8.0285    4.6802   -0.0002 C.ar    1  LIG1        0.0362
     24 C          -7.5714    6.0088   -0.0007 C.ar    1  LIG1       -0.0484
     25 C          -8.4639    7.0704   -0.0007 C.ar    1  LIG1       -0.0429
     26 C          -9.8292    6.7836   -0.0003 C.ar    1  LIG1        0.0291
     27 N         -10.3063    5.5412    0.0002 N.ar    1  LIG1       -0.2440
     28 H          -6.5090    6.2212   -0.0010 H       1  LIG1        0.0625
     29 H         -10.5692    7.5808   -0.0003 H       1  LIG1        0.0830
     30 N         -10.8118    2.3030    0.0014 N.1     1  LIG1       -0.1893
     31 C         -10.1193    3.2364    0.0008 C.1     1  LIG1        0.1198
     32 H          -8.1118    8.0964   -0.0011 H       1  LIG1        0.0633
@<TRIPOS>BOND
     1    32    25    1
     2     9    10    3
     3    28    24    1
     4    10     1    1
     5    25    24   ar
     6    25    26   ar
     7    24    23   ar
     8     1     6   ar
     9     1     2   ar
    10     6     5   ar
    11    29    26    1
    12    26    27   ar
    13     8     2    1
    14    18    14    1
    15    21    15    1
    16     2     3   ar
    17    15    14   ar
    18    15    16   ar
    19    14    13   ar
    20    23    16    1
    21    23    22   ar
    22    16    17   ar
    23     5    13    1
    24     5     4   ar
    25    13    12   ar
    26    17    12   ar
    27    12    20    1
    28    20    19    3
    29     3     4   ar
    30     3     7    1
    31     4    11    1
    32    27    22   ar
    33    22    31    1
    34    31    30    3
