@<TRIPOS>MOLECULE
mol_data/opt/b3lyp/geoms/mol2/6da6da-6da6da-.out
 42 45 0 0 0
SMALL
GASTEIGER

@<TRIPOS>ATOM
      1 C          -4.4180   -2.2908   -0.0004 C.ar    1  LIG1        0.1407
      2 C          -3.0213   -2.4032   -0.0005 C.ar    1  LIG1       -0.0257
      3 C          -2.2902   -1.2211   -0.0005 C.ar    1  LIG1       -0.0570
      4 C          -2.9554    0.0027   -0.0004 C.ar    1  LIG1       -0.0355
      5 C          -4.3621    0.0204   -0.0003 C.ar    1  LIG1        0.0752
      6 N          -5.0686   -1.1241   -0.0003 N.ar    1  LIG1       -0.2363
      7 H          -1.2053   -1.2452   -0.0005 H       1  LIG1        0.0619
      8 H          -2.5458   -3.3771   -0.0006 H       1  LIG1        0.0646
      9 N          -5.8639   -4.4596   -0.0004 N.1     1  LIG1       -0.1893
     10 C          -5.2338   -3.4834   -0.0004 C.1     1  LIG1        0.1191
     11 H          -2.3784    0.9154   -0.0004 H       1  LIG1        0.0639
     12 C          -4.7518    2.5999   -0.0001 C.ar    1  LIG1        0.1498
     13 C          -5.2025    1.2570   -0.0002 C.ar    1  LIG1        0.0363
     14 C          -6.6002    1.1122   -0.0001 C.ar    1  LIG1       -0.0478
     15 C          -7.4477    2.2081   -0.0000 C.ar    1  LIG1       -0.0349
     16 C          -6.8966    3.5018    0.0000 C.ar    1  LIG1        0.0752
     17 N          -5.5655    3.6617   -0.0000 N.ar    1  LIG1       -0.2356
     18 H          -7.0072    0.1090   -0.0002 H       1  LIG1        0.0626
     19 N          -2.2517    3.3426   -0.0002 N.1     1  LIG1       -0.1893
     20 C          -3.3594    2.9896   -0.0002 C.1     1  LIG1        0.1198
     21 H          -8.5150    2.0422    0.0000 H       1  LIG1        0.0639
     22 C          -9.0806    4.9186    0.0002 C.ar    1  LIG1        0.1498
     23 C          -7.6718    4.7765    0.0001 C.ar    1  LIG1        0.0363
     24 C          -6.9638    5.9905    0.0002 C.ar    1  LIG1       -0.0478
     25 C          -7.6138    7.2138    0.0003 C.ar    1  LIG1       -0.0349
     26 C          -9.0199    7.2454    0.0004 C.ar    1  LIG1        0.0752
     27 N          -9.7128    6.0974    0.0003 N.ar    1  LIG1       -0.2356
     28 H          -5.8819    5.9495    0.0001 H       1  LIG1        0.0626
     29 N         -10.7883    2.9477    0.0002 N.1     1  LIG1       -0.1893
     30 C         -10.0086    3.8100    0.0002 C.1     1  LIG1        0.1198
     31 H          -7.0235    8.1181    0.0003 H       1  LIG1        0.0639
     32 C          -9.4069    9.8202    0.0005 C.ar    1  LIG1        0.1491
     33 C          -9.8644    8.4792    0.0005 C.ar    1  LIG1        0.0362
     34 C         -11.2632    8.3183    0.0006 C.ar    1  LIG1       -0.0484
     35 C         -12.1037    9.4199    0.0008 C.ar    1  LIG1       -0.0429
     36 C         -11.5332   10.6947    0.0008 C.ar    1  LIG1        0.0291
     37 N         -10.2179   10.8946    0.0007 N.ar    1  LIG1       -0.2440
     38 H         -11.6593    7.3107    0.0006 H       1  LIG1        0.0625
     39 H         -12.1529   11.5883    0.0009 H       1  LIG1        0.0830
     40 N          -6.9007   10.5389    0.0003 N.1     1  LIG1       -0.1893
     41 C          -8.0124   10.1982    0.0004 C.1     1  LIG1        0.1198
     42 H         -13.1816    9.2969    0.0008 H       1  LIG1        0.0633
@<TRIPOS>BOND
     1     8     2    1
     2     7     3    1
     3     2     3   ar
     4     2     1   ar
     5     3     4   ar
     6     9    10    3
     7    10     1    1
     8     1     6   ar
     9     4    11    1
    10     4     5   ar
    11     6     5   ar
    12     5    13    1
    13    19    20    3
    14    13    12   ar
    15    13    14   ar
    16    20    12    1
    17    18    14    1
    18    12    17   ar
    19    14    15   ar
    20    17    16   ar
    21    15    21    1
    22    15    16   ar
    23    16    23    1
    24    28    24    1
    25    23    24   ar
    26    23    22   ar
    27    24    25   ar
    28    29    30    3
    29    30    22    1
    30    22    27   ar
    31    25    31    1
    32    25    26   ar
    33    40    41    3
    34    27    26   ar
    35    26    33    1
    36    41    32    1
    37    33    32   ar
    38    33    34   ar
    39    32    37   ar
    40    38    34    1
    41    34    35   ar
    42    37    36   ar
    43    35    36   ar
    44    35    42    1
    45    36    39    1
