@<TRIPOS>MOLECULE
mol_data/opt/b3lyp/geoms/mol2/6da6da6da6da.out
 42 45 0 0 0
SMALL
GASTEIGER

@<TRIPOS>ATOM
      1 C          -4.1966   -2.2618   -0.0009 C.ar    1  LIG1        0.1407
      2 C          -2.7962   -2.2271   -0.0006 C.ar    1  LIG1       -0.0257
      3 C          -2.1873   -0.9753   -0.0001 C.ar    1  LIG1       -0.0570
      4 C          -2.9767    0.1689    0.0001 C.ar    1  LIG1       -0.0355
      5 C          -4.3801    0.0384   -0.0002 C.ar    1  LIG1        0.0752
      6 N          -4.9630   -1.1663   -0.0007 N.ar    1  LIG1       -0.2363
      7 H          -1.1053   -0.8917    0.0002 H       1  LIG1        0.0619
      8 H          -2.2221   -3.1462   -0.0007 H       1  LIG1        0.0646
      9 N          -5.3573   -4.5941   -0.0018 N.1     1  LIG1       -0.1893
     10 C          -4.8718   -3.5387   -0.0014 C.1     1  LIG1        0.1191
     11 H          -2.4966    1.1391    0.0005 H       1  LIG1        0.0639
     12 C          -6.7069    1.1200   -0.0002 C.ar    1  LIG1        0.1498
     13 C          -5.2899    1.2148   -0.0001 C.ar    1  LIG1        0.0363
     14 C          -4.7827    2.5242    0.0001 C.ar    1  LIG1       -0.0478
     15 C          -5.6176    3.6273    0.0002 C.ar    1  LIG1       -0.0349
     16 C          -7.0101    3.4282    0.0001 C.ar    1  LIG1        0.0752
     17 N          -7.5112    2.1907   -0.0000 N.ar    1  LIG1       -0.2356
     18 H          -3.7131    2.6950    0.0001 H       1  LIG1        0.0626
     19 N          -8.1617   -1.0388   -0.0004 N.1     1  LIG1       -0.1893
     20 C          -7.4477   -0.1221   -0.0003 C.1     1  LIG1        0.1198
     21 H          -5.1774    4.6162    0.0003 H       1  LIG1        0.0639
     22 C          -9.3914    4.3801    0.0005 C.ar    1  LIG1        0.1498
     23 C          -7.9817    4.5501    0.0002 C.ar    1  LIG1        0.0363
     24 C          -7.5438    5.8848    0.0000 C.ar    1  LIG1       -0.0478
     25 C          -8.4355    6.9422    0.0001 C.ar    1  LIG1       -0.0349
     26 C          -9.8157    6.6699    0.0003 C.ar    1  LIG1        0.0752
     27 N         -10.2502    5.4077    0.0005 N.ar    1  LIG1       -0.2356
     28 H          -6.4844    6.1109   -0.0002 H       1  LIG1        0.0626
     29 N         -10.7330    2.1501    0.0010 N.1     1  LIG1       -0.1893
     30 C         -10.0652    3.1010    0.0008 C.1     1  LIG1        0.1198
     31 H          -8.0487    7.9532   -0.0001 H       1  LIG1        0.0639
     32 C         -12.2447    7.4804    0.0011 C.ar    1  LIG1        0.1491
     33 C         -10.8481    7.7392    0.0004 C.ar    1  LIG1        0.0362
     34 C         -10.4779    9.0947   -0.0002 C.ar    1  LIG1       -0.0484
     35 C         -11.4371   10.0963   -0.0002 C.ar    1  LIG1       -0.0429
     36 C         -12.7810    9.7218    0.0005 C.ar    1  LIG1        0.0291
     37 N         -13.1767    8.4511    0.0011 N.ar    1  LIG1       -0.2440
     38 H          -9.4316    9.3754   -0.0008 H       1  LIG1        0.0625
     39 H         -13.5710   10.4694    0.0006 H       1  LIG1        0.0830
     40 N         -13.4718    5.1870    0.0026 N.1     1  LIG1       -0.1893
     41 C         -12.8410    6.1632    0.0019 C.1     1  LIG1        0.1198
     42 H         -11.1521   11.1430   -0.0007 H       1  LIG1        0.0633
@<TRIPOS>BOND
     1     9    10    3
     2    10     1    1
     3     1     6   ar
     4     1     2   ar
     5    38    34    1
     6     6     5   ar
     7     8     2    1
     8    42    35    1
     9     2     3   ar
    10    19    20    3
    11    20    12    1
    12     5    13    1
    13     5     4   ar
    14    34    35   ar
    15    34    33   ar
    16    28    24    1
    17    35    36   ar
    18    12    13   ar
    19    12    17   ar
    20    13    14   ar
    21    31    25    1
    22     3     4   ar
    23     3     7    1
    24    17    16   ar
    25    24    25   ar
    26    24    23   ar
    27    25    26   ar
    28    14    18    1
    29    14    15   ar
    30     4    11    1
    31    16    15   ar
    32    16    23    1
    33    15    21    1
    34    23    22   ar
    35    26    33    1
    36    26    27   ar
    37    33    32   ar
    38    22    27   ar
    39    22    30    1
    40    36    39    1
    41    36    37   ar
    42    30    29    3
    43    32    37   ar
    44    32    41    1
    45    41    40    3
