@<TRIPOS>MOLECULE
mol_data/opt/b3lyp/geoms/mol2/6da6da6da6da-.out
 42 45 0 0 0
SMALL
GASTEIGER

@<TRIPOS>ATOM
      1 C          -4.3091   -2.3037   -0.0009 C.ar    1  LIG1        0.1407
      2 C          -2.9083   -2.3098   -0.0006 C.ar    1  LIG1       -0.0257
      3 C          -2.2632   -1.0764   -0.0002 C.ar    1  LIG1       -0.0570
      4 C          -3.0189    0.0906    0.0000 C.ar    1  LIG1       -0.0355
      5 C          -4.4252    0.0009   -0.0003 C.ar    1  LIG1        0.0752
      6 N          -5.0430   -1.1862   -0.0007 N.ar    1  LIG1       -0.2363
      7 H          -1.1793   -1.0242    0.0000 H       1  LIG1        0.0619
      8 H          -2.3611   -3.2454   -0.0008 H       1  LIG1        0.0646
      9 N          -5.5403   -4.5995   -0.0018 N.1     1  LIG1       -0.1893
     10 C          -5.0220   -3.5599   -0.0014 C.1     1  LIG1        0.1191
     11 H          -2.5109    1.0465    0.0004 H       1  LIG1        0.0639
     12 C          -6.7204    1.1448    0.0000 C.ar    1  LIG1        0.1498
     13 C          -5.3016    1.2024   -0.0001 C.ar    1  LIG1        0.0363
     14 C          -4.7589    2.4978   -0.0001 C.ar    1  LIG1       -0.0478
     15 C          -5.5638    3.6232    0.0001 C.ar    1  LIG1       -0.0349
     16 C          -6.9605    3.4600    0.0002 C.ar    1  LIG1        0.0752
     17 N          -7.4957    2.2367    0.0002 N.ar    1  LIG1       -0.2356
     18 H          -3.6850    2.6393   -0.0002 H       1  LIG1        0.0626
     19 N          -8.2408   -0.9679    0.0003 N.1     1  LIG1       -0.1893
     20 C          -7.4962   -0.0759    0.0001 C.1     1  LIG1        0.1198
     21 H          -5.0996    4.6012    0.0001 H       1  LIG1        0.0639
     22 C          -9.3165    4.4600    0.0007 C.ar    1  LIG1        0.1498
     23 C          -7.9044    4.6040    0.0002 C.ar    1  LIG1        0.0363
     24 C          -7.4460    5.9292   -0.0001 C.ar    1  LIG1       -0.0478
     25 C          -8.3182    7.0067   -0.0001 C.ar    1  LIG1       -0.0349
     26 C          -9.7010    6.7610    0.0004 C.ar    1  LIG1        0.0752
     27 N         -10.1574    5.4994    0.0007 N.ar    1  LIG1       -0.2356
     28 H          -6.3834    6.1399   -0.0005 H       1  LIG1        0.0626
     29 N         -10.7399    2.2826    0.0017 N.1     1  LIG1       -0.1893
     30 C         -10.0228    3.1972    0.0012 C.1     1  LIG1        0.1198
     31 H          -7.9144    8.0079   -0.0004 H       1  LIG1        0.0639
     32 C         -10.5843    9.2105    0.0002 C.ar    1  LIG1        0.1491
     33 C         -10.7703    7.8060    0.0004 C.ar    1  LIG1        0.0362
     34 C         -12.1104    7.3738    0.0008 C.ar    1  LIG1       -0.0484
     35 C         -13.1496    8.2905    0.0009 C.ar    1  LIG1       -0.0429
     36 C         -12.8397    9.6524    0.0006 C.ar    1  LIG1        0.0291
     37 N         -11.5889   10.1063    0.0002 N.ar    1  LIG1       -0.2440
     38 H         -12.3009    6.3079    0.0010 H       1  LIG1        0.0625
     39 H         -13.6226   10.4072    0.0006 H       1  LIG1        0.0830
     40 N          -8.2626   10.3971   -0.0005 N.1     1  LIG1       -0.1893
     41 C          -9.2900    9.8524   -0.0002 C.1     1  LIG1        0.1198
     42 H         -14.1828    7.9592    0.0011 H       1  LIG1        0.0633
@<TRIPOS>BOND
     1     9    10    3
     2    10     1    1
     3     1     6   ar
     4     1     2   ar
     5     8     2    1
     6     6     5   ar
     7     2     3   ar
     8    28    24    1
     9    40    41    3
    10    31    25    1
    11     5    13    1
    12     5     4   ar
    13    18    14    1
    14     3     4   ar
    15     3     7    1
    16    41    32    1
    17    24    25   ar
    18    24    23   ar
    19    13    14   ar
    20    13    12   ar
    21    25    26   ar
    22    14    15   ar
    23     4    11    1
    24    12    20    1
    25    12    17   ar
    26    15    21    1
    27    15    16   ar
    28    20    19    3
    29    16    17   ar
    30    16    23    1
    31    32    37   ar
    32    32    33   ar
    33    23    22   ar
    34    37    36   ar
    35    26    33    1
    36    26    27   ar
    37    33    34   ar
    38    36    39    1
    39    36    35   ar
    40    22    27   ar
    41    22    30    1
    42    34    35   ar
    43    34    38    1
    44    35    42    1
    45    30    29    3
