@<TRIPOS>MOLECULE
mol_data/opt/b3lyp/geoms/mol2/6dd.out
 13 13 0 0 0
SMALL
GASTEIGER

@<TRIPOS>ATOM
      1 C          -4.5814   -2.0109    0.0001 C.ar    1  LIG1        0.1401
      2 C          -3.1795   -2.0280    0.0000 C.ar    1  LIG1       -0.0246
      3 C          -2.5067   -0.8127   -0.0002 C.ar    1  LIG1       -0.0402
      4 C          -3.2592    0.3700   -0.0003 C.ar    1  LIG1        0.0699
      5 C          -4.6648    0.2730   -0.0002 C.ar    1  LIG1        0.0464
      6 N          -5.3167   -0.8849   -0.0000 N.ar    1  LIG1       -0.2434
      7 H          -1.4230   -0.7733   -0.0002 H       1  LIG1        0.0632
      8 H          -2.6435   -2.9697    0.0001 H       1  LIG1        0.0646
      9 H          -5.2713    1.1754   -0.0003 H       1  LIG1        0.0843
     10 N          -5.8598   -4.2800    0.0004 N.1     1  LIG1       -0.1893
     11 C          -5.3080   -3.2575    0.0002 C.1     1  LIG1        0.1191
     12 N          -2.1150    2.6988   -0.0006 N.1     1  LIG1       -0.1908
     13 C          -2.6251    1.6538   -0.0004 C.1     1  LIG1        0.1007
@<TRIPOS>BOND
     1    12    13    3
     2    13     4    1
     3     4     5   ar
     4     4     3   ar
     5     9     5    1
     6     7     3    1
     7     5     6   ar
     8     3     2   ar
     9     6     1   ar
    10     2     1   ar
    11     2     8    1
    12     1    11    1
    13    11    10    3
