@<TRIPOS>MOLECULE
mol_data/opt/b3lyp/geoms/mol2/6dd12el-4ae13lf-12ef-12il12ld-13fe-.out
 98 105 0 0 0
SMALL
GASTEIGER

@<TRIPOS>ATOM
      1 C          -4.0222   -1.3179    2.7232 C.ar    1  LIG1        0.1409
      2 C          -2.7399   -1.6869    2.2880 C.ar    1  LIG1       -0.0245
      3 C          -2.2215   -1.0208    1.1883 C.ar    1  LIG1       -0.0395
      4 C          -2.9688   -0.0026    0.5770 C.ar    1  LIG1        0.0808
      5 C          -4.2259    0.3500    1.1432 C.ar    1  LIG1        0.1261
      6 N          -4.7397   -0.3302    2.1814 N.ar    1  LIG1       -0.2319
      7 H          -1.2568   -1.2951    0.7757 H       1  LIG1        0.0632
      8 H          -2.1936   -2.4805    2.7835 H       1  LIG1        0.0646
      9 N          -5.0809   -2.6055    4.7261 N.1     1  LIG1       -0.1893
     10 C          -4.6265   -2.0206    3.8310 C.1     1  LIG1        0.1191
     11 N          -2.0525    0.9462   -1.6544 N.1     1  LIG1       -0.1908
     12 C          -2.4793    0.5599   -0.6433 C.1     1  LIG1        0.1014
     13 C          -5.0502    1.4434    0.6428 C.ar    1  LIG1        0.1741
     14 C          -4.7814    2.7289    0.1961 C.ar    1  LIG1        0.1142
     15 C          -6.0691    3.3217   -0.0593 C.ar    1  LIG1        0.1817
     16 C          -7.0271    2.3796    0.2574 C.ar    1  LIG1        0.1784
     17 O          -6.3952    1.2482    0.6964 O.2     1  LIG1       -0.4482
     18 C          -3.5308    3.3897    0.1461 C.1     1  LIG1       -0.0621
     19 C          -2.4732    3.9768    0.1183 C.1     1  LIG1       -0.1137
     20 H          -1.5344    4.4805    0.0913 H       1  LIG1        0.1232
     21 O          -6.3284    4.5915   -0.4601 O.3     1  LIG1       -0.4901
     22 C          -5.7465    4.9821   -1.7167 C.3     1  LIG1        0.0790
     23 H          -6.0584    6.0142   -1.8804 H       1  LIG1        0.0660
     24 H          -4.6556    4.9286   -1.6813 H       1  LIG1        0.0660
     25 H          -6.1217    4.3489   -2.5284 H       1  LIG1        0.0660
     26 C          -9.2285    3.4802   -0.1838 C.ar    1  LIG1       -0.0503
     27 C         -10.6095    3.4225   -0.2443 C.ar    1  LIG1       -0.0507
     28 C          -8.4770    2.3537    0.2086 C.ar    1  LIG1        0.0222
     29 C         -11.3361    2.2546    0.0798 C.ar    1  LIG1        0.0174
     30 H         -11.1654    4.2974   -0.5554 H       1  LIG1        0.0625
     31 C          -9.1730    1.1878    0.5494 C.ar    1  LIG1       -0.0349
     32 C         -10.5732    1.1146    0.4884 C.ar    1  LIG1        0.0346
     33 H          -8.6238    0.3137    0.8798 H       1  LIG1        0.0637
     34 H          -8.7162    4.3997   -0.4395 H       1  LIG1        0.0625
     35 C         -11.1511   -0.1413    0.8647 C.1     1  LIG1       -0.0690
     36 C         -11.5948   -1.2256    1.1843 C.1     1  LIG1       -0.1139
     37 H         -12.0234   -2.1551    1.4865 H       1  LIG1        0.1232
     38 C         -12.7871    2.2695   -0.0218 C.ar    1  LIG1        0.0942
     39 C         -13.6910    3.3389   -0.2043 C.ar    1  LIG1        0.1874
     40 C         -15.0022    2.8121   -0.2497 C.ar    1  LIG1        0.1881
     41 C         -14.8949    1.4207   -0.0890 C.ar    1  LIG1        0.1296
     42 N         -13.5528    1.1352    0.0328 N.ar    1  LIG1       -0.3458
     43 H         -13.1943    0.2012    0.1640 H       1  LIG1        0.1662
     44 O         -13.3431    4.6501   -0.3595 O.3     1  LIG1       -0.4895
     45 C         -13.9461    5.5608    0.5715 C.3     1  LIG1        0.0791
     46 H         -13.5458    6.5471    0.3303 H       1  LIG1        0.0660
     47 H         -15.0340    5.5668    0.4676 H       1  LIG1        0.0660
     48 H         -13.6766    5.2978    1.6016 H       1  LIG1        0.0660
     49 O         -16.1015    3.5862   -0.4210 O.3     1  LIG1       -0.5018
     50 H         -16.9082    3.0416   -0.4123 H       1  LIG1        0.2924
     51 C         -15.8252    0.3384   -0.0487 C.ar    1  LIG1        0.1746
     52 C         -17.2077    0.1933   -0.1262 C.ar    1  LIG1        0.1141
     53 C         -17.4546   -1.2201   -0.0263 C.ar    1  LIG1        0.1822
     54 C         -16.2422   -1.8476    0.1296 C.ar    1  LIG1        0.2134
     55 O         -15.2485   -0.8842    0.1083 O.2     1  LIG1       -0.4450
     56 C         -18.1809    1.2032   -0.2986 C.1     1  LIG1       -0.0621
     57 C         -19.0288    2.0589   -0.4446 C.1     1  LIG1       -0.1137
     58 H         -19.7882    2.7951   -0.5762 H       1  LIG1        0.1232
     59 O         -18.6978   -1.7520   -0.1069 O.3     1  LIG1       -0.5023
     60 H         -18.6237   -2.7128   -0.1880 H       1  LIG1        0.2923
     61 C         -15.8192   -3.2122    0.2649 C.ar    1  LIG1        0.1810
     62 C         -16.3636   -4.3232    0.8694 C.ar    1  LIG1        0.0410
     63 C         -15.4035   -5.3712    0.6736 C.ar    1  LIG1        0.1724
     64 C         -14.3413   -4.8418   -0.0304 C.ar    1  LIG1        0.2160
     65 O         -14.5972   -3.5176   -0.2847 O.2     1  LIG1       -0.4443
     66 C         -17.6146   -4.4220    1.6888 C.3     1  LIG1       -0.0325
     67 H         -17.4517   -5.0975    2.5340 H       1  LIG1        0.0280
     68 H         -18.4642   -4.8281    1.1231 H       1  LIG1        0.0280
     69 H         -17.9094   -3.4460    2.0847 H       1  LIG1        0.0280
     70 O         -15.4663   -6.6145    1.2254 O.3     1  LIG1       -0.4909
     71 C         -16.3257   -7.5389    0.5527 C.3     1  LIG1        0.0790
     72 H         -16.2763   -8.4699    1.1198 H       1  LIG1        0.0660
     73 H         -17.3635   -7.1832    0.5326 H       1  LIG1        0.0660
     74 H         -15.9785   -7.7149   -0.4700 H       1  LIG1        0.0660
     75 C         -13.0900   -5.3551   -0.5071 C.ar    1  LIG1        0.2170
     76 C         -12.6289   -6.6048   -0.8396 C.ar    1  LIG1        0.1870
     77 C         -11.2505   -6.4561   -1.2550 C.ar    1  LIG1        0.1413
     78 C         -10.9733   -5.0947   -1.1821 C.ar    1  LIG1        0.1766
     79 O         -12.0709   -4.4383   -0.7132 O.2     1  LIG1       -0.4448
     80 O         -13.3641   -7.7365   -0.7427 O.3     1  LIG1       -0.4900
     81 C         -13.2971   -8.6513   -1.8498 C.3     1  LIG1        0.0790
     82 H         -14.0452   -9.4175   -1.6423 H       1  LIG1        0.0660
     83 H         -13.5419   -8.1424   -2.7891 H       1  LIG1        0.0660
     84 H         -12.3123   -9.1160   -1.9291 H       1  LIG1        0.0660
     85 N          -9.6849   -8.4437   -1.7587 N.1     1  LIG1       -0.1906
     86 C         -10.3627   -7.5191   -1.5509 C.1     1  LIG1        0.1068
     87 C          -9.8473   -4.2690   -1.4873 C.ar    1  LIG1        0.1267
     88 C          -8.6590   -4.5104   -2.1760 C.ar    1  LIG1        0.1605
     89 C          -7.9033   -3.2991   -2.2050 C.ar    1  LIG1        0.0840
     90 C          -8.6658   -2.3434   -1.5339 C.ar    1  LIG1        0.0214
     91 N          -9.8133   -2.9249   -1.1173 N.ar    1  LIG1       -0.3541
     92 H         -10.5409   -2.4528   -0.5964 H       1  LIG1        0.1656
     93 H          -8.4520   -1.3041   -1.3378 H       1  LIG1        0.0820
     94 O          -8.3148   -5.6859   -2.7381 O.3     1  LIG1       -0.5034
     95 H          -7.4388   -5.5864   -3.1411 H       1  LIG1        0.2923
     96 C          -6.6387   -3.1652   -2.8267 C.1     1  LIG1       -0.0645
     97 C          -5.5604   -3.1271   -3.3791 C.1     1  LIG1       -0.1137
     98 H          -4.6135   -3.0587   -3.8627 H       1  LIG1        0.1232
@<TRIPOS>BOND
     1    98    97    1
     2    97    96    3
     3    95    94    1
     4    96    89    1
     5    83    81    1
     6    94    88    1
     7    25    22    1
     8    89    88   ar
     9    89    90   ar
    10    88    87   ar
    11    84    81    1
    12    23    22    1
    13    81    82    1
    14    81    80    1
    15    85    86    3
    16    22    24    1
    17    22    21    1
    18    11    12    3
    19    86    77    1
    20    90    93    1
    21    90    91   ar
    22    87    78    1
    23    87    91   ar
    24    77    78   ar
    25    77    76   ar
    26    78    79   ar
    27    91    92    1
    28    76    80    1
    29    76    75   ar
    30    79    75   ar
    31    12     4    1
    32    58    57    1
    33    30    27    1
    34    75    64    1
    35    74    71    1
    36    21    15    1
    37    57    56    3
    38    34    26    1
    39    49    50    1
    40    49    40    1
    41    44    39    1
    42    44    45    1
    43    56    52    1
    44    65    64   ar
    45    65    61   ar
    46    40    39   ar
    47    40    41   ar
    48    27    26   ar
    49    27    29   ar
    50    39    38   ar
    51    60    59    1
    52    26    28   ar
    53    52    51   ar
    54    52    53   ar
    55    59    53    1
    56    41    51    1
    57    41    42   ar
    58    15    14   ar
    59    15    16   ar
    60    51    55   ar
    61    64    63   ar
    62    53    54   ar
    63    38    42   ar
    64    38    29    1
    65    42    43    1
    66    29    32   ar
    67    20    19    1
    68    55    54   ar
    69    19    18    3
    70    54    61    1
    71    18    14    1
    72    14    13   ar
    73    28    16    1
    74    28    31   ar
    75    16    17   ar
    76    61    62   ar
    77    46    45    1
    78    47    45    1
    79    32    31   ar
    80    32    35    1
    81    73    71    1
    82    31    33    1
    83    71    72    1
    84    71    70    1
    85    45    48    1
    86     4     5   ar
    87     4     3   ar
    88    13    17   ar
    89    13     5    1
    90    63    62   ar
    91    63    70    1
    92     7     3    1
    93    35    36    3
    94    62    66    1
    95    68    66    1
    96     5     6   ar
    97    36    37    1
    98     3     2   ar
    99    66    69    1
   100    66    67    1
   101     6     1   ar
   102     2     1   ar
   103     2     8    1
   104     1    10    1
   105    10     9    3
