@<TRIPOS>MOLECULE
mol_data/opt/b3lyp/geoms/mol2/6dd4ha6he-13hi12ld6ad6ll12fe.out
 100 107 0 0 0
SMALL
GASTEIGER

@<TRIPOS>ATOM
      1 C          -5.3655   -2.6616   -0.1165 C.ar    1  LIG1        0.1408
      2 C          -3.9802   -2.8607   -0.1739 C.ar    1  LIG1       -0.0245
      3 C          -3.1755   -1.7326   -0.2461 C.ar    1  LIG1       -0.0396
      4 C          -3.7690   -0.4624   -0.2841 C.ar    1  LIG1        0.0778
      5 C          -5.1898   -0.3603   -0.2809 C.ar    1  LIG1        0.0915
      6 N          -5.9536   -1.4587   -0.1755 N.ar    1  LIG1       -0.2350
      7 H          -2.0943   -1.8194   -0.2509 H       1  LIG1        0.0632
      8 H          -3.5611   -3.8594   -0.1422 H       1  LIG1        0.0646
      9 N          -6.9243   -4.7380    0.1030 N.1     1  LIG1       -0.1893
     10 C          -6.2443   -3.8009    0.0058 C.1     1  LIG1        0.1191
     11 N          -2.1689    1.5764   -0.1718 N.1     1  LIG1       -0.1908
     12 C          -2.9153    0.6875   -0.2421 C.1     1  LIG1        0.1013
     13 C          -5.6951    1.9063   -1.3317 C.ar    1  LIG1        0.0344
     14 C          -6.3964    3.1202   -1.2602 C.ar    1  LIG1       -0.0326
     15 C          -5.9066    0.9377   -0.3194 C.ar    1  LIG1        0.0223
     16 C          -7.3104    3.3954   -0.2368 C.ar    1  LIG1       -0.0128
     17 H          -6.2466    3.8523   -2.0492 H       1  LIG1        0.0642
     18 C          -6.8654    1.1967    0.6717 C.ar    1  LIG1       -0.0502
     19 C          -7.5525    2.4004    0.7323 C.ar    1  LIG1       -0.0532
     20 H          -7.0433    0.4349    1.4238 H       1  LIG1        0.0625
     21 N          -4.8158    1.6806   -2.3825 N.pl3   1  LIG1       -0.3574
     22 H          -4.7017    0.7249   -2.6872 H       1  LIG1        0.1423
     23 H          -4.8814    2.3295   -3.1530 H       1  LIG1        0.1423
     24 H          -8.2470    2.5880    1.5432 H       1  LIG1        0.0624
     25 C          -9.3889    4.8720    0.0381 C.ar    1  LIG1        0.1247
     26 C          -7.9864    4.7143   -0.1866 C.ar    1  LIG1        0.0229
     27 C          -7.2821    5.8874   -0.4173 C.ar    1  LIG1       -0.0332
     28 C          -7.8867    7.1582   -0.3737 C.ar    1  LIG1        0.0528
     29 C          -9.2647    7.2101   -0.0240 C.ar    1  LIG1        0.1064
     30 N          -9.9748    6.0665    0.1170 N.ar    1  LIG1       -0.2291
     31 H          -6.2212    5.8323   -0.6396 H       1  LIG1        0.0638
     32 N         -10.2163    3.7893    0.2077 N.pl3   1  LIG1       -0.3426
     33 H         -11.2040    3.9905    0.1609 H       1  LIG1        0.1437
     34 H          -9.9163    2.8923   -0.1416 H       1  LIG1        0.1437
     35 C          -7.1148    8.2767   -0.7950 C.1     1  LIG1       -0.0674
     36 C          -6.4126    9.1842   -1.1902 C.1     1  LIG1       -0.1138
     37 H          -5.8119    9.9744   -1.5773 H       1  LIG1        0.1232
     38 C         -10.0550    8.4128    0.1722 C.ar    1  LIG1        0.0879
     39 C          -9.8158    9.7479    0.5663 C.ar    1  LIG1        0.0554
     40 C         -11.0727   10.4069    0.6800 C.ar    1  LIG1       -0.0007
     41 C         -12.0568    9.4593    0.3682 C.ar    1  LIG1        0.0911
     42 N         -11.4280    8.2822    0.0761 N.ar    1  LIG1       -0.3487
     43 H         -11.8581    7.3869   -0.0948 H       1  LIG1        0.1661
     44 N          -8.6225   10.3383    0.9535 N.pl3   1  LIG1       -0.3561
     45 H          -7.7891    9.9872    0.4973 H       1  LIG1        0.1424
     46 H          -8.6540   11.3489    0.9561 H       1  LIG1        0.1424
     47 C         -11.2271   11.8233    1.1448 C.3     1  LIG1       -0.0358
     48 H         -12.2720   12.1285    1.1778 H       1  LIG1        0.0279
     49 H         -10.7046   12.5251    0.4792 H       1  LIG1        0.0279
     50 H         -10.7989   11.9550    2.1471 H       1  LIG1        0.0279
     51 C         -13.4953    9.5089    0.3098 C.ar    1  LIG1        0.1947
     52 C         -14.4637   10.4813    0.1860 C.ar    1  LIG1        0.1852
     53 C         -15.7375    9.8089    0.1609 C.ar    1  LIG1        0.1397
     54 C         -15.4751    8.4521    0.2569 C.ar    1  LIG1        0.1583
     55 O         -14.1280    8.2813    0.3533 O.2     1  LIG1       -0.4482
     56 O         -14.2624   11.8218    0.1409 O.3     1  LIG1       -0.4901
     57 C         -14.6061   12.4605   -1.1017 C.3     1  LIG1        0.0790
     58 H         -14.3482   13.5126   -0.9773 H       1  LIG1        0.0660
     59 H         -14.0288   12.0319   -1.9281 H       1  LIG1        0.0660
     60 H         -15.6765   12.3717   -1.3109 H       1  LIG1        0.0660
     61 N         -18.0334   10.9740   -0.0253 N.1     1  LIG1       -0.1906
     62 C         -17.0015   10.4408    0.0645 C.1     1  LIG1        0.1067
     63 C         -15.6959    5.9842    0.4464 C.ar    1  LIG1        0.0390
     64 C         -16.2906    7.2544    0.2811 C.ar    1  LIG1        0.0380
     65 C         -17.6845    7.2779    0.1465 C.ar    1  LIG1       -0.0301
     66 C         -18.3991    6.0759    0.1732 C.ar    1  LIG1        0.0785
     67 C         -17.7020    4.8452    0.3229 C.ar    1  LIG1        0.0935
     68 N         -16.3637    4.8391    0.4612 N.ar    1  LIG1       -0.2528
     69 H         -18.2248    8.2106    0.0331 H       1  LIG1        0.0639
     70 H         -14.6188    5.9098    0.5687 H       1  LIG1        0.0837
     71 N         -20.9842    6.2119   -0.0374 N.1     1  LIG1       -0.1908
     72 C         -19.8276    6.1364    0.0652 C.1     1  LIG1        0.1013
     73 C         -18.0949    2.5214    1.2653 C.ar    1  LIG1        0.2248
     74 C         -18.3856    3.5350    0.3168 C.ar    1  LIG1        0.0666
     75 C         -19.3604    3.2268   -0.6379 C.ar    1  LIG1       -0.0034
     76 C         -19.9822    1.9781   -0.6539 C.ar    1  LIG1        0.1500
     77 C         -19.5510    1.0119    0.2814 C.ar    1  LIG1        0.1549
     78 N         -18.6419    1.3189    1.2255 N.ar    1  LIG1       -0.2054
     79 H         -19.6329    3.9721   -1.3731 H       1  LIG1        0.0663
     80 O         -17.2452    2.8191    2.2716 O.3     1  LIG1       -0.4792
     81 C         -16.9784    1.7860    3.2231 C.3     1  LIG1        0.0804
     82 H         -16.2859    2.2299    3.9395 H       1  LIG1        0.0660
     83 H         -17.8945    1.4641    3.7262 H       1  LIG1        0.0660
     84 H         -16.5236    0.9149    2.7431 H       1  LIG1        0.0660
     85 O         -20.9879    1.6282   -1.4973 O.3     1  LIG1       -0.4928
     86 C         -21.4857    2.6080   -2.3975 C.3     1  LIG1        0.0789
     87 H         -22.3187    2.1354   -2.9188 H       1  LIG1        0.0660
     88 H         -21.8429    3.4991   -1.8665 H       1  LIG1        0.0660
     89 H         -20.7256    2.9041   -3.1322 H       1  LIG1        0.0660
     90 C         -20.0749   -0.3465    0.3062 C.ar    1  LIG1        0.1990
     91 C         -20.5341   -1.2508   -0.6268 C.ar    1  LIG1        0.1800
     92 C         -20.8338   -2.4756    0.0755 C.ar    1  LIG1        0.1045
     93 C         -20.5239   -2.2271    1.3885 C.ar    1  LIG1        0.1117
     94 O         -20.0664   -0.9755    1.5422 O.2     1  LIG1       -0.4562
     95 H         -20.5870   -2.8360    2.2769 H       1  LIG1        0.1043
     96 O         -20.6400   -1.0849   -1.9618 O.3     1  LIG1       -0.5024
     97 H         -20.9573   -1.9230   -2.3328 H       1  LIG1        0.2923
     98 C         -21.3268   -3.6498   -0.5427 C.1     1  LIG1       -0.0628
     99 C         -21.7439   -4.6113   -1.1504 C.1     1  LIG1       -0.1137
    100 H         -22.1143   -5.4751   -1.6525 H       1  LIG1        0.1232
@<TRIPOS>BOND
     1    23    21    1
     2    89    86    1
     3    87    86    1
     4    22    21    1
     5    86    88    1
     6    86    85    1
     7    21    13    1
     8    97    96    1
     9    17    14    1
    10    96    91    1
    11    59    57    1
    12   100    99    1
    13    37    36    1
    14    85    76    1
    15    79    75    1
    16    13    14   ar
    17    13    15   ar
    18    60    57    1
    19    14    16   ar
    20    36    35    3
    21    99    98    3
    22    57    58    1
    23    57    56    1
    24    35    28    1
    25    76    75   ar
    26    76    77   ar
    27    31    27    1
    28    75    74   ar
    29    91    92   ar
    30    91    90   ar
    31    98    92    1
    32    27    28   ar
    33    27    26   ar
    34    28    29   ar
    35    15     5    1
    36    15    18   ar
    37     4     5   ar
    38     4     3   ar
    39     4    12    1
    40     5     6   ar
    41     7     3    1
    42     3     2   ar
    43    12    11    3
    44    16    26    1
    45    16    19   ar
    46    26    25   ar
    47     6     1   ar
    48     2     8    1
    49     2     1   ar
    50    34    32    1
    51     1    10    1
    52    43    42    1
    53    71    72    3
    54    61    62    3
    55    29    30   ar
    56    29    38    1
    57    10     9    3
    58    69    65    1
    59    25    30   ar
    60    25    32    1
    61    62    53    1
    62    72    66    1
    63    92    93   ar
    64    42    38   ar
    65    42    41   ar
    66    56    52    1
    67    65    66   ar
    68    65    64   ar
    69    33    32    1
    70    53    52   ar
    71    53    54   ar
    72    38    39   ar
    73    66    67   ar
    74    52    51   ar
    75    54    64    1
    76    54    55   ar
    77    64    63   ar
    78    77    90    1
    79    77    78   ar
    80    90    94   ar
    81    51    55   ar
    82    51    41    1
    83    74    67    1
    84    74    73   ar
    85    67    68   ar
    86    41    40   ar
    87    63    68   ar
    88    63    70    1
    89    49    47    1
    90    45    44    1
    91    39    40   ar
    92    39    44    1
    93    18    19   ar
    94    18    20    1
    95    40    47    1
    96    19    24    1
    97    44    46    1
    98    47    48    1
    99    47    50    1
   100    78    73   ar
   101    73    80    1
   102    93    94   ar
   103    93    95    1
   104    80    81    1
   105    84    81    1
   106    81    83    1
   107    81    82    1
