@<TRIPOS>MOLECULE
mol_data/opt/b3lyp/geoms/mol2/6dd6dd.out
 24 25 0 0 0
SMALL
GASTEIGER

@<TRIPOS>ATOM
      1 C          -4.4896   -2.0787   -0.0003 C.ar    1  LIG1        0.1408
      2 C          -3.0912   -2.1458   -0.0002 C.ar    1  LIG1       -0.0245
      3 C          -2.4034   -0.9437   -0.0000 C.ar    1  LIG1       -0.0396
      4 C          -3.1019    0.2763   -0.0000 C.ar    1  LIG1        0.0778
      5 C          -4.5289    0.2484   -0.0002 C.ar    1  LIG1        0.0925
      6 N          -5.1618   -0.9267   -0.0003 N.ar    1  LIG1       -0.2350
      7 H          -1.3192   -0.9272    0.0001 H       1  LIG1        0.0632
      8 H          -2.5767   -3.0989   -0.0002 H       1  LIG1        0.0646
      9 N          -5.8352   -4.3077   -0.0007 N.1     1  LIG1       -0.1893
     10 C          -5.2651   -3.2957   -0.0005 C.1     1  LIG1        0.1191
     11 N          -1.5470    2.3521    0.0005 N.1     1  LIG1       -0.1908
     12 C          -2.2815    1.4493    0.0003 C.1     1  LIG1        0.1013
     13 C          -6.8576    1.2878    0.0001 C.ar    1  LIG1        0.1493
     14 C          -5.4386    1.4326   -0.0002 C.ar    1  LIG1        0.0387
     15 C          -4.9614    2.7504   -0.0007 C.ar    1  LIG1       -0.0309
     16 C          -5.8469    3.8314   -0.0007 C.ar    1  LIG1        0.0705
     17 C          -7.2243    3.5656   -0.0004 C.ar    1  LIG1        0.0464
     18 N          -7.7065    2.3307    0.0000 N.ar    1  LIG1       -0.2427
     19 H          -3.9035    2.9652   -0.0010 H       1  LIG1        0.0638
     20 H          -7.9471    4.3774   -0.0004 H       1  LIG1        0.0843
     21 N          -8.3097   -0.8682    0.0012 N.1     1  LIG1       -0.1893
     22 C          -7.5748    0.0329    0.0006 C.1     1  LIG1        0.1198
     23 N          -4.9935    6.2816   -0.0016 N.1     1  LIG1       -0.1908
     24 C          -5.3662    5.1803   -0.0012 C.1     1  LIG1        0.1007
@<TRIPOS>BOND
     1    23    24    3
     2    24    16    1
     3    19    15    1
     4    16    15   ar
     5    16    17   ar
     6     9    10    3
     7    15    14   ar
     8    10     1    1
     9    20    17    1
    10    17    18   ar
    11     1     6   ar
    12     1     2   ar
    13     6     5   ar
    14    14     5    1
    15    14    13   ar
    16     8     2    1
    17     2     3   ar
    18     5     4   ar
    19     3     4   ar
    20     3     7    1
    21     4    12    1
    22    18    13   ar
    23    13    22    1
    24    12    11    3
    25    22    21    3
