@<TRIPOS>MOLECULE
mol_data/opt/b3lyp/geoms/mol2/6dd6dd6dd6dd.out
 46 49 0 0 0
SMALL
GASTEIGER

@<TRIPOS>ATOM
      1 C          -3.8117   -1.6390   -1.6086 C.ar    1  LIG1        0.1408
      2 C          -2.9729   -2.2252   -0.6501 C.ar    1  LIG1       -0.0245
      3 C          -2.8955   -1.6278    0.5994 C.ar    1  LIG1       -0.0396
      4 C          -3.6481   -0.4716    0.8555 C.ar    1  LIG1        0.0778
      5 C          -4.4643    0.0456   -0.1813 C.ar    1  LIG1        0.0925
      6 N          -4.5367   -0.5351   -1.3800 N.ar    1  LIG1       -0.2350
      7 H          -2.2691   -2.0456    1.3796 H       1  LIG1        0.0632
      8 H          -2.4077   -3.1190   -0.8862 H       1  LIG1        0.0646
      9 N          -3.9625   -2.7124   -3.9752 N.1     1  LIG1       -0.1893
     10 C          -3.9143   -2.2212   -2.9236 C.1     1  LIG1        0.1191
     11 N          -3.5214    0.6337    3.1995 N.1     1  LIG1       -0.1908
     12 C          -3.5881    0.1398    2.1486 C.1     1  LIG1        0.1013
     13 C          -6.6681    1.2788   -0.3741 C.ar    1  LIG1        0.1500
     14 C          -5.3008    1.2665   -0.0135 C.ar    1  LIG1        0.0387
     15 C          -4.7672    2.4608    0.4670 C.ar    1  LIG1       -0.0303
     16 C          -5.5682    3.6065    0.5537 C.ar    1  LIG1        0.0785
     17 C          -6.9196    3.5164    0.1431 C.ar    1  LIG1        0.0926
     18 N          -7.4389    2.3689   -0.2953 N.ar    1  LIG1       -0.2343
     19 H          -3.7284    2.5197    0.7702 H       1  LIG1        0.0638
     20 N          -7.9062   -0.8762   -1.1502 N.1     1  LIG1       -0.1893
     21 C          -7.3400    0.0827   -0.8201 C.1     1  LIG1        0.1198
     22 N          -4.5315    5.8106    1.4472 N.1     1  LIG1       -0.1908
     23 C          -5.0040    4.8234    1.0540 C.1     1  LIG1        0.1013
     24 C          -9.1440    4.5723    0.7387 C.ar    1  LIG1        0.1500
     25 C          -7.8535    4.6743    0.1685 C.ar    1  LIG1        0.0387
     26 C          -7.5146    5.8992   -0.4037 C.ar    1  LIG1       -0.0303
     27 C          -8.4407    6.9493   -0.4196 C.ar    1  LIG1        0.0785
     28 C          -9.7173    6.7330    0.1526 C.ar    1  LIG1        0.0926
     29 N         -10.0342    5.5700    0.7241 N.ar    1  LIG1       -0.2343
     30 H          -6.5381    6.0505   -0.8487 H       1  LIG1        0.0638
     31 N          -9.9257    2.4346    2.0032 N.1     1  LIG1       -0.1893
     32 C          -9.5737    3.3763    1.4216 C.1     1  LIG1        0.1198
     33 N          -7.7589    9.2145   -1.4855 N.1     1  LIG1       -0.1908
     34 C          -8.0702    8.2041   -1.0012 C.1     1  LIG1        0.1013
     35 C         -11.4789    8.1041    1.3469 C.ar    1  LIG1        0.1493
     36 C         -10.7835    7.7709    0.1613 C.ar    1  LIG1        0.0387
     37 C         -11.1643    8.4285   -1.0091 C.ar    1  LIG1       -0.0309
     38 C         -12.2094    9.3581   -0.9669 C.ar    1  LIG1        0.0705
     39 C         -12.8408    9.5998    0.2665 C.ar    1  LIG1        0.0464
     40 N         -12.4797    8.9962    1.3935 N.ar    1  LIG1       -0.2427
     41 H         -10.6718    8.2150   -1.9508 H       1  LIG1        0.0638
     42 H         -13.6621   10.3082    0.3315 H       1  LIG1        0.0843
     43 N         -10.7993    7.1128    3.6573 N.1     1  LIG1       -0.1893
     44 C         -11.1079    7.5314    2.6186 C.1     1  LIG1        0.1198
     45 N         -13.0025   10.5943   -3.1050 N.1     1  LIG1       -0.1908
     46 C         -12.6417   10.0397   -2.1490 C.1     1  LIG1        0.1007
@<TRIPOS>BOND
     1     9    10    3
     2    45    46    3
     3    10     1    1
     4    46    38    1
     5    41    37    1
     6     1     6   ar
     7     1     2   ar
     8    33    34    3
     9     6     5   ar
    10    20    21    3
    11    37    38   ar
    12    37    36   ar
    13    34    27    1
    14    38    39   ar
    15     8     2    1
    16    30    26    1
    17    21    13    1
    18     2     3   ar
    19    27    26   ar
    20    27    28   ar
    21    26    25   ar
    22    13    18   ar
    23    13    14   ar
    24    18    17   ar
    25     5    14    1
    26     5     4   ar
    27    14    15   ar
    28    17    25    1
    29    17    16   ar
    30    28    36    1
    31    28    29   ar
    32    36    35   ar
    33    25    24   ar
    34    39    42    1
    35    39    40   ar
    36    15    16   ar
    37    15    19    1
    38    16    23    1
    39     3     4   ar
    40     3     7    1
    41    29    24   ar
    42    24    32    1
    43     4    12    1
    44    23    22    3
    45    35    40   ar
    46    35    44    1
    47    32    31    3
    48    12    11    3
    49    44    43    3
