@<TRIPOS>MOLECULE
mol_data/opt/b3lyp/geoms/mol2/6dd6dd6dd.out
 35 37 0 0 0
SMALL
GASTEIGER

@<TRIPOS>ATOM
      1 C          -4.4724   -2.1690   -0.0007 C.ar    1  LIG1        0.1408
      2 C          -3.0770   -2.2889   -0.0005 C.ar    1  LIG1       -0.0245
      3 C          -2.3424   -1.1148   -0.0002 C.ar    1  LIG1       -0.0396
      4 C          -2.9935    0.1310   -0.0000 C.ar    1  LIG1        0.0778
      5 C          -4.4201    0.1565   -0.0002 C.ar    1  LIG1        0.0925
      6 N          -5.1001   -0.9921   -0.0005 N.ar    1  LIG1       -0.2350
      7 H          -1.2583   -1.1406   -0.0000 H       1  LIG1        0.0632
      8 H          -2.5996   -3.2614   -0.0006 H       1  LIG1        0.0646
      9 N          -5.9014   -4.3450   -0.0013 N.1     1  LIG1       -0.1893
     10 C          -5.2934   -3.3553   -0.0010 C.1     1  LIG1        0.1191
     11 N          -1.3749    2.1577    0.0006 N.1     1  LIG1       -0.1908
     12 C          -2.1338    1.2753    0.0003 C.1     1  LIG1        0.1013
     13 C          -6.7046    1.2991   -0.0001 C.ar    1  LIG1        0.1500
     14 C          -5.2819    1.3730   -0.0002 C.ar    1  LIG1        0.0387
     15 C          -4.7687    2.6731   -0.0002 C.ar    1  LIG1       -0.0303
     16 C          -5.5898    3.8078   -0.0002 C.ar    1  LIG1        0.0785
     17 C          -7.0002    3.6278   -0.0001 C.ar    1  LIG1        0.0926
     18 N          -7.4798    2.3847   -0.0000 N.ar    1  LIG1       -0.2343
     19 H          -3.7031    2.8476   -0.0003 H       1  LIG1        0.0638
     20 N          -8.2452   -0.7968    0.0002 N.1     1  LIG1       -0.1893
     21 C          -7.4841    0.0818    0.0001 C.1     1  LIG1        0.1198
     22 N          -4.2790    6.0471   -0.0002 N.1     1  LIG1       -0.1908
     23 C          -4.8992    5.0626   -0.0002 C.1     1  LIG1        0.1013
     24 C          -9.4320    4.3915    0.0005 C.ar    1  LIG1        0.1493
     25 C          -8.0385    4.6965   -0.0000 C.ar    1  LIG1        0.0387
     26 C          -7.7117    6.0601   -0.0006 C.ar    1  LIG1       -0.0309
     27 C          -8.7130    7.0341   -0.0006 C.ar    1  LIG1        0.0705
     28 C         -10.0518    6.6139   -0.0000 C.ar    1  LIG1        0.0464
     29 N         -10.3925    5.3327    0.0005 N.ar    1  LIG1       -0.2427
     30 H          -6.6841    6.3913   -0.0011 H       1  LIG1        0.0638
     31 H         -10.8613    7.3389   -0.0000 H       1  LIG1        0.0843
     32 N         -10.6333    2.0875    0.0019 N.1     1  LIG1       -0.1893
     33 C         -10.0022    3.0642    0.0013 C.1     1  LIG1        0.1198
     34 N          -8.1441    9.5655   -0.0017 N.1     1  LIG1       -0.1908
     35 C          -8.3886    8.4289   -0.0012 C.1     1  LIG1        0.1007
@<TRIPOS>BOND
     1    34    35    3
     2     9    10    3
     3    35    27    1
     4    30    26    1
     5    10     1    1
     6     1     6   ar
     7     1     2   ar
     8     8     2    1
     9    26    27   ar
    10    26    25   ar
    11    27    28   ar
    12     6     5   ar
    13     2     3   ar
    14    19    15    1
    15    22    23    3
    16     5    14    1
    17     5     4   ar
    18    15    16   ar
    19    15    14   ar
    20    23    16    1
    21    16    17   ar
    22     3     4   ar
    23     3     7    1
    24    14    13   ar
    25    17    25    1
    26    17    18   ar
    27    13    18   ar
    28    13    21    1
    29     4    12    1
    30    25    24   ar
    31    28    31    1
    32    28    29   ar
    33    21    20    3
    34    12    11    3
    35    24    29   ar
    36    24    33    1
    37    33    32    3
