@<TRIPOS>MOLECULE
mol_data/opt/b3lyp/geoms/mol2/6dd6di-13af12fh-.out
 45 48 0 0 0
SMALL
GASTEIGER

@<TRIPOS>ATOM
      1 C          -4.4304   -2.0889    0.6302 C.ar    1  LIG1        0.1408
      2 C          -3.1722   -2.2870    0.0445 C.ar    1  LIG1       -0.0245
      3 C          -2.5988   -1.2140   -0.6215 C.ar    1  LIG1       -0.0396
      4 C          -3.2828    0.0090   -0.6782 C.ar    1  LIG1        0.0778
      5 C          -4.5460    0.1215   -0.0324 C.ar    1  LIG1        0.0925
      6 N          -5.0912   -0.9260    0.6000 N.ar    1  LIG1       -0.2350
      7 H          -1.6356   -1.3124   -1.1100 H       1  LIG1        0.0632
      8 H          -2.6760   -3.2479    0.1098 H       1  LIG1        0.0646
      9 N          -5.5374   -4.0795    1.8940 N.1     1  LIG1       -0.1893
     10 C          -5.0667   -3.1788    1.3311 C.1     1  LIG1        0.1191
     11 N          -2.1875    1.9380   -2.0244 N.1     1  LIG1       -0.1908
     12 C          -2.6972    1.0869   -1.4164 C.1     1  LIG1        0.1013
     13 C          -6.7285    1.3835   -0.2173 C.ar    1  LIG1        0.1499
     14 C          -5.3319    1.3728   -0.0104 C.ar    1  LIG1        0.0378
     15 C          -4.7463    2.6192    0.2594 C.ar    1  LIG1       -0.0448
     16 C          -5.4897    3.7900    0.3353 C.ar    1  LIG1       -0.0223
     17 C          -6.8945    3.6822    0.1243 C.ar    1  LIG1        0.0916
     18 N          -7.4675    2.4884   -0.1565 N.ar    1  LIG1       -0.2340
     19 H          -3.6776    2.6764    0.4378 H       1  LIG1        0.0628
     20 N          -8.0873   -0.7230   -0.9342 N.1     1  LIG1       -0.1893
     21 C          -7.4612    0.1931   -0.5894 C.1     1  LIG1        0.1198
     22 C          -4.8020    5.0928    0.6391 C.3     1  LIG1       -0.0376
     23 H          -5.1819    5.5400    1.5642 H       1  LIG1        0.0278
     24 H          -4.9601    5.8212   -0.1634 H       1  LIG1        0.0278
     25 H          -3.7256    4.9438    0.7509 H       1  LIG1        0.0278
     26 C          -7.8357    4.7819    0.1781 C.ar    1  LIG1        0.0693
     27 C          -7.7443    6.1600    0.4303 C.ar    1  LIG1        0.0074
     28 C          -9.0390    6.6978    0.3415 C.ar    1  LIG1        0.1458
     29 C          -9.9213    5.6428    0.0338 C.ar    1  LIG1        0.1282
     30 N          -9.1627    4.5063   -0.0572 N.ar    1  LIG1       -0.3475
     31 H          -9.4907    3.5739   -0.2650 H       1  LIG1        0.1661
     32 H          -6.8624    6.7345    0.6546 H       1  LIG1        0.0676
     33 O          -9.3160    8.0115    0.5304 O.3     1  LIG1       -0.5045
     34 H         -10.2678    8.1787    0.4238 H       1  LIG1        0.2922
     35 C         -11.3389    5.6401   -0.1676 C.ar    1  LIG1        0.1975
     36 C         -12.3074    6.6105   -0.1350 C.ar    1  LIG1        0.1854
     37 C         -13.5630    5.9929   -0.4190 C.ar    1  LIG1        0.1057
     38 C         -13.2895    4.6672   -0.6115 C.ar    1  LIG1        0.1170
     39 O         -11.9538    4.4393   -0.4634 O.2     1  LIG1       -0.4556
     40 H         -13.8954    3.8063   -0.8470 H       1  LIG1        0.1050
     41 O         -12.1437    7.9375    0.1189 O.3     1  LIG1       -0.5020
     42 H         -13.0313    8.3343    0.0586 H       1  LIG1        0.2924
     43 N         -14.7542    6.7739   -0.4514 N.pl3   1  LIG1       -0.3527
     44 H         -15.2113    6.7379   -1.3579 H       1  LIG1        0.1425
     45 H         -15.4269    6.4755    0.2490 H       1  LIG1        0.1425
@<TRIPOS>BOND
     1    11    12    3
     2    12     4    1
     3    44    43    1
     4     7     3    1
     5    20    21    3
     6    40    38    1
     7     4     3   ar
     8     4     5   ar
     9     3     2   ar
    10    38    39   ar
    11    38    37   ar
    12    21    13    1
    13    39    35   ar
    14    43    37    1
    15    43    45    1
    16    37    36   ar
    17    31    30    1
    18    13    18   ar
    19    13    14   ar
    20    35    36   ar
    21    35    29    1
    22    24    22    1
    23    18    17   ar
    24    36    41    1
    25    30    29   ar
    26    30    26   ar
    27     5    14    1
    28     5     6   ar
    29    14    15   ar
    30    29    28   ar
    31     2     8    1
    32     2     1   ar
    33    42    41    1
    34    17    26    1
    35    17    16   ar
    36    26    27   ar
    37    15    16   ar
    38    15    19    1
    39    16    22    1
    40    28    27   ar
    41    28    33    1
    42    34    33    1
    43    27    32    1
    44     6     1   ar
    45     1    10    1
    46    22    25    1
    47    22    23    1
    48    10     9    3
