@<TRIPOS>MOLECULE
mol_data/opt/b3lyp/geoms/mol2/6de6de.out
 26 27 0 0 0
SMALL
GASTEIGER

@<TRIPOS>ATOM
      1 C          -4.5092   -1.9529   -0.7623 C.ar    1  LIG1        0.1408
      2 C          -3.1544   -2.0921   -0.4328 C.ar    1  LIG1       -0.0246
      3 C          -2.5048   -0.9996    0.1213 C.ar    1  LIG1       -0.0416
      4 C          -3.2065    0.2003    0.3310 C.ar    1  LIG1        0.0508
      5 C          -4.5760    0.2349   -0.0473 C.ar    1  LIG1        0.0905
      6 N          -5.2006   -0.8202   -0.5749 N.ar    1  LIG1       -0.2350
      7 H          -1.4597   -1.0601    0.4041 H       1  LIG1        0.0631
      8 H          -2.6396   -3.0299   -0.6064 H       1  LIG1        0.0646
      9 N          -5.7553   -3.9762   -1.8270 N.1     1  LIG1       -0.1893
     10 C          -5.2214   -3.0622   -1.3475 C.1     1  LIG1        0.1191
     11 C          -2.5456    1.3131    0.9287 C.1     1  LIG1       -0.0675
     12 C          -1.9518    2.2329    1.4437 C.1     1  LIG1       -0.1138
     13 H          -1.4418    3.0497    1.9016 H       1  LIG1        0.1232
     14 C          -6.6458    1.4207    0.8047 C.ar    1  LIG1        0.1493
     15 C          -5.4132    1.4567    0.1170 C.ar    1  LIG1        0.0386
     16 C          -5.0295    2.6759   -0.4411 C.ar    1  LIG1       -0.0329
     17 C          -5.8646    3.7958   -0.3220 C.ar    1  LIG1        0.0435
     18 C          -7.0787    3.6304    0.3758 C.ar    1  LIG1        0.0444
     19 N          -7.4565    2.4843    0.9296 N.ar    1  LIG1       -0.2428
     20 H          -4.0928    2.7595   -0.9797 H       1  LIG1        0.0638
     21 H          -7.7589    4.4713    0.4828 H       1  LIG1        0.0842
     22 N          -7.4468   -0.7187    2.0563 N.1     1  LIG1       -0.1893
     23 C          -7.0915    0.2231    1.4758 C.1     1  LIG1        0.1198
     24 C          -5.5127    5.0553   -0.8877 C.1     1  LIG1       -0.0681
     25 C          -5.2210    6.1281   -1.3643 C.1     1  LIG1       -0.1139
     26 H          -4.9669    7.0733   -1.7867 H       1  LIG1        0.1232
@<TRIPOS>BOND
     1     9    10    3
     2    26    25    1
     3    25    24    3
     4    10     1    1
     5    20    16    1
     6    24    17    1
     7     1     6   ar
     8     1     2   ar
     9     8     2    1
    10     6     5   ar
    11    16    17   ar
    12    16    15   ar
    13     2     3   ar
    14    17    18   ar
    15     5    15    1
    16     5     4   ar
    17    15    14   ar
    18     3     4   ar
    19     3     7    1
    20     4    11    1
    21    18    21    1
    22    18    19   ar
    23    14    19   ar
    24    14    23    1
    25    11    12    3
    26    12    13    1
    27    23    22    3
