@<TRIPOS>MOLECULE
mol_data/opt/b3lyp/geoms/mol2/6de6de6de6de.out
 50 53 0 0 0
SMALL
GASTEIGER

@<TRIPOS>ATOM
      1 C          -3.7252   -1.4122   -2.0189 C.ar    1  LIG1        0.1408
      2 C          -2.9469   -2.0969   -1.0758 C.ar    1  LIG1       -0.0246
      3 C          -2.9323   -1.6204    0.2264 C.ar    1  LIG1       -0.0416
      4 C          -3.6815   -0.4794    0.5628 C.ar    1  LIG1        0.0508
      5 C          -4.4300    0.1403   -0.4734 C.ar    1  LIG1        0.0905
      6 N          -4.4483   -0.3225   -1.7247 N.ar    1  LIG1       -0.2350
      7 H          -2.3549   -2.1224    0.9948 H       1  LIG1        0.0631
      8 H          -2.3793   -2.9740   -1.3644 H       1  LIG1        0.0646
      9 N          -3.7536   -2.2582   -4.4810 N.1     1  LIG1       -0.1893
     10 C          -3.7609   -1.8678   -3.3866 C.1     1  LIG1        0.1191
     11 C          -3.6948   -0.0024    1.9057 C.1     1  LIG1       -0.0675
     12 C          -3.6924    0.3740    3.0556 C.1     1  LIG1       -0.1138
     13 H          -3.7083    0.7094    4.0678 H       1  LIG1        0.1232
     14 C          -6.6232    1.4078   -0.5621 C.ar    1  LIG1        0.1500
     15 C          -5.2513    1.3606   -0.2342 C.ar    1  LIG1        0.0386
     16 C          -4.6878    2.5224    0.2874 C.ar    1  LIG1       -0.0323
     17 C          -5.4591    3.6833    0.4491 C.ar    1  LIG1        0.0514
     18 C          -6.8241    3.6179    0.0695 C.ar    1  LIG1        0.0906
     19 N          -7.3777    2.5029   -0.4081 N.ar    1  LIG1       -0.2344
     20 H          -3.6415    2.5411    0.5690 H       1  LIG1        0.0638
     21 N          -7.8874   -0.6964   -1.4319 N.1     1  LIG1       -0.1893
     22 C          -7.3144    0.2422   -1.0575 C.1     1  LIG1        0.1198
     23 C          -4.8711    4.8609    0.9960 C.1     1  LIG1       -0.0675
     24 C          -4.3481    5.8441    1.4688 C.1     1  LIG1       -0.1138
     25 H          -3.9012    6.7148    1.8921 H       1  LIG1        0.1232
     26 C          -8.9418    4.7267    0.9105 C.ar    1  LIG1        0.1500
     27 C          -7.7365    4.7900    0.1793 C.ar    1  LIG1        0.0386
     28 C          -7.4558    5.9898   -0.4692 C.ar    1  LIG1       -0.0323
     29 C          -8.3558    7.0645   -0.4087 C.ar    1  LIG1        0.0514
     30 C          -9.5471    6.8798    0.3396 C.ar    1  LIG1        0.0906
     31 N          -9.8100    5.7425    0.9850 N.ar    1  LIG1       -0.2344
     32 H          -6.5380    6.1011   -1.0348 H       1  LIG1        0.0638
     33 N          -9.5638    2.6180    2.3068 N.1     1  LIG1       -0.1893
     34 C          -9.2916    3.5502    1.6692 C.1     1  LIG1        0.1198
     35 C          -8.0438    8.2887   -1.0696 C.1     1  LIG1       -0.0675
     36 C          -7.7454    9.3144   -1.6376 C.1     1  LIG1       -0.1138
     37 H          -7.4932   10.2242   -2.1331 H       1  LIG1        0.1232
     38 C         -11.0417    8.3887    1.7179 C.ar    1  LIG1        0.1493
     39 C         -10.5854    7.9409    0.4593 C.ar    1  LIG1        0.0386
     40 C         -11.1760    8.5038   -0.6717 C.ar    1  LIG1       -0.0329
     41 C         -12.1939    9.4574   -0.5295 C.ar    1  LIG1        0.0435
     42 C         -12.5755    9.8109    0.7813 C.ar    1  LIG1        0.0444
     43 N         -12.0138    9.3027    1.8719 N.ar    1  LIG1       -0.2428
     44 H         -10.8616    8.1966   -1.6625 H       1  LIG1        0.0638
     45 H         -13.3676   10.5392    0.9350 H       1  LIG1        0.0842
     46 N          -9.9239    7.5863    3.9296 N.1     1  LIG1       -0.1893
     47 C         -10.4333    7.9202    2.9400 C.1     1  LIG1        0.1198
     48 C         -12.8303   10.0468   -1.6598 C.1     1  LIG1       -0.0681
     49 C         -13.3747   10.5519   -2.6147 C.1     1  LIG1       -0.1139
     50 H         -13.8580   10.9942   -3.4556 H       1  LIG1        0.1232
@<TRIPOS>BOND
     1     9    10    3
     2    50    49    1
     3    10     1    1
     4    49    48    3
     5    37    36    1
     6     1     6   ar
     7     1     2   ar
     8     6     5   ar
     9    44    40    1
    10    48    41    1
    11    36    35    3
    12    21    22    3
    13     8     2    1
    14     2     3   ar
    15    35    29    1
    16    22    14    1
    17    32    28    1
    18    40    41   ar
    19    40    39   ar
    20    14    19   ar
    21    14    15   ar
    22    41    42   ar
    23     5    15    1
    24     5     4   ar
    25    28    29   ar
    26    28    27   ar
    27    29    30   ar
    28    19    18   ar
    29    15    16   ar
    30    18    27    1
    31    18    17   ar
    32    27    26   ar
    33     3     4   ar
    34     3     7    1
    35    16    17   ar
    36    16    20    1
    37    30    39    1
    38    30    31   ar
    39    17    23    1
    40    39    38   ar
    41     4    11    1
    42    42    45    1
    43    42    43   ar
    44    26    31   ar
    45    26    34    1
    46    23    24    3
    47    24    25    1
    48    34    33    3
    49    38    43   ar
    50    38    47    1
    51    11    12    3
    52    47    46    3
    53    12    13    1
