@<TRIPOS>MOLECULE
mol_data/opt/b3lyp/geoms/mol2/6de6de6de.out
 38 40 0 0 0
SMALL
GASTEIGER

@<TRIPOS>ATOM
      1 C          -4.2776   -1.7594   -1.5021 C.ar    1  LIG1        0.1408
      2 C          -3.1351   -2.1463   -0.7885 C.ar    1  LIG1       -0.0246
      3 C          -2.6925   -1.3176    0.2313 C.ar    1  LIG1       -0.0416
      4 C          -3.3850   -0.1281    0.5172 C.ar    1  LIG1        0.0508
      5 C          -4.5271    0.1706   -0.2732 C.ar    1  LIG1        0.0905
      6 N          -4.9556   -0.6309   -1.2503 N.ar    1  LIG1       -0.2350
      7 H          -1.8202   -1.5792    0.8199 H       1  LIG1        0.0631
      8 H          -2.6218   -3.0695   -1.0315 H       1  LIG1        0.0646
      9 N          -5.1209   -3.2751   -3.4438 N.1     1  LIG1       -0.1893
     10 C          -4.7663   -2.5872   -2.5770 C.1     1  LIG1        0.1191
     11 C          -2.9513    0.7113    1.5843 C.1     1  LIG1       -0.0675
     12 C          -2.5612    1.3973    2.5014 C.1     1  LIG1       -0.1138
     13 H          -2.2346    2.0051    3.3144 H       1  LIG1        0.1232
     14 C          -6.7241    1.3608    0.1538 C.ar    1  LIG1        0.1500
     15 C          -5.3308    1.4082   -0.0667 C.ar    1  LIG1        0.0386
     16 C          -4.7460    2.6706   -0.1223 C.ar    1  LIG1       -0.0323
     17 C          -5.5257    3.8292    0.0118 C.ar    1  LIG1        0.0514
     18 C          -6.9204    3.6605    0.2106 C.ar    1  LIG1        0.0906
     19 N          -7.4840    2.4543    0.2897 N.ar    1  LIG1       -0.2344
     20 H          -3.6779    2.7696   -0.2764 H       1  LIG1        0.0638
     21 N          -7.9802   -0.9048    0.4229 N.1     1  LIG1       -0.1893
     22 C          -7.4175    0.1023    0.2865 C.1     1  LIG1        0.1198
     23 C          -4.9041    5.1116   -0.0351 C.1     1  LIG1       -0.0675
     24 C          -4.3438    6.1831   -0.0745 C.1     1  LIG1       -0.1138
     25 H          -3.8618    7.1336   -0.1053 H       1  LIG1        0.1232
     26 C          -8.7132    4.9435    1.4564 C.ar    1  LIG1        0.1493
     27 C          -7.8509    4.8156    0.3459 C.ar    1  LIG1        0.0386
     28 C          -7.9329    5.7959   -0.6427 C.ar    1  LIG1       -0.0329
     29 C          -8.8593    6.8408   -0.5185 C.ar    1  LIG1        0.0435
     30 C          -9.6782    6.8509    0.6295 C.ar    1  LIG1        0.0444
     31 N          -9.6042    5.9393    1.5922 N.ar    1  LIG1       -0.2428
     32 H          -7.2922    5.7461   -1.5156 H       1  LIG1        0.0638
     33 H         -10.4158    7.6385    0.7596 H       1  LIG1        0.0842
     34 N          -8.5689    3.3120    3.4816 N.1     1  LIG1       -0.1893
     35 C          -8.6434    4.0203    2.5635 C.1     1  LIG1        0.1198
     36 C          -8.9821    7.8543   -1.5124 C.1     1  LIG1       -0.0681
     37 C          -9.0920    8.7186   -2.3515 C.1     1  LIG1       -0.1139
     38 H          -9.1926    9.4784   -3.0924 H       1  LIG1        0.1232
@<TRIPOS>BOND
     1     9    10    3
     2    38    37    1
     3    10     1    1
     4    37    36    3
     5    32    28    1
     6    36    29    1
     7     1     6   ar
     8     1     2   ar
     9     6     5   ar
    10     8     2    1
    11     2     3   ar
    12    28    29   ar
    13    28    27   ar
    14    29    30   ar
    15    20    16    1
    16     5    15    1
    17     5     4   ar
    18    16    15   ar
    19    16    17   ar
    20    25    24    1
    21    24    23    3
    22    15    14   ar
    23    23    17    1
    24    17    18   ar
    25    14    22    1
    26    14    19   ar
    27    18    19   ar
    28    18    27    1
    29     3     4   ar
    30     3     7    1
    31    22    21    3
    32    27    26   ar
    33     4    11    1
    34    30    33    1
    35    30    31   ar
    36    26    31   ar
    37    26    35    1
    38    11    12    3
    39    12    13    1
    40    35    34    3
