@<TRIPOS>MOLECULE
mol_data/opt/b3lyp/geoms/mol2/6df12de13hf6af-.out
 44 47 0 0 0
SMALL
GASTEIGER

@<TRIPOS>ATOM
      1 C          -4.6116   -2.0373   -0.2087 C.ar    1  LIG1        0.1411
      2 C          -3.3002   -2.2078    0.2643 C.ar    1  LIG1       -0.0223
      3 C          -2.6078   -1.0791    0.6624 C.ar    1  LIG1       -0.0152
      4 C          -3.2085    0.1854    0.5860 C.ar    1  LIG1        0.1459
      5 C          -4.5404    0.2596    0.0867 C.ar    1  LIG1        0.1499
      6 N          -5.2053   -0.8468   -0.2920 N.ar    1  LIG1       -0.2295
      7 H          -1.5958   -1.1358    1.0477 H       1  LIG1        0.0655
      8 H          -2.8534   -3.1942    0.3135 H       1  LIG1        0.0647
      9 N          -5.9800   -4.1212   -0.9621 N.1     1  LIG1       -0.1893
     10 C          -5.3830   -3.1807   -0.6300 C.1     1  LIG1        0.1191
     11 O          -2.4654    1.2034    1.0619 O.3     1  LIG1       -0.5045
     12 H          -2.7345    2.0794    0.7447 H       1  LIG1        0.2922
     13 C          -5.3386    1.4851   -0.0097 C.ar    1  LIG1        0.1760
     14 C          -5.1026    2.8355   -0.1802 C.ar    1  LIG1        0.1151
     15 C          -6.3830    3.5072   -0.2508 C.ar    1  LIG1        0.0899
     16 C          -7.3335    2.5021   -0.1043 C.ar    1  LIG1        0.1704
     17 O          -6.6886    1.2999    0.0349 O.2     1  LIG1       -0.4490
     18 N          -2.7873    3.9451   -0.4365 N.1     1  LIG1       -0.1907
     19 C          -3.8440    3.4624   -0.3337 C.1     1  LIG1        0.1043
     20 C          -6.5564    4.8817   -0.5228 C.1     1  LIG1       -0.0645
     21 C          -6.6465    6.0646   -0.7731 C.1     1  LIG1       -0.1138
     22 H          -6.7097    7.1025   -1.0072 H       1  LIG1        0.1232
     23 C          -8.7537    2.4189   -0.0721 C.ar    1  LIG1        0.1084
     24 C          -9.7699    3.3752    0.1120 C.ar    1  LIG1        0.0960
     25 C         -10.9914    2.6590    0.1094 C.ar    1  LIG1        0.1636
     26 C         -10.7306    1.3008   -0.0596 C.ar    1  LIG1        0.0925
     27 N          -9.3703    1.1762   -0.2037 N.ar    1  LIG1       -0.3473
     28 H          -8.8608    0.3068   -0.1718 H       1  LIG1        0.1662
     29 N          -9.6824    4.7306    0.3465 N.pl3   1  LIG1       -0.3534
     30 H          -8.8738    5.2112   -0.0253 H       1  LIG1        0.1425
     31 H         -10.5561    5.2193    0.2039 H       1  LIG1        0.1425
     32 O         -12.1986    3.3003    0.2467 O.3     1  LIG1       -0.5031
     33 H         -12.8574    2.8540   -0.3030 H       1  LIG1        0.2923
     34 C         -11.3198   -0.9922   -0.8696 C.ar    1  LIG1        0.0370
     35 C         -11.6515    0.1755   -0.1512 C.ar    1  LIG1        0.0235
     36 C         -12.9089    0.2183    0.4722 C.ar    1  LIG1       -0.0080
     37 C         -13.7579   -0.8804    0.3518 C.ar    1  LIG1        0.1355
     38 C         -13.3205   -1.9939   -0.3776 C.ar    1  LIG1        0.0690
     39 N         -12.1268   -2.0471   -0.9725 N.ar    1  LIG1       -0.2590
     40 H         -13.2151    1.0661    1.0753 H       1  LIG1        0.0661
     41 H         -13.9625   -2.8699   -0.4804 H       1  LIG1        0.0867
     42 H         -10.3709   -1.0625   -1.3966 H       1  LIG1        0.0836
     43 O         -14.9738   -0.8242    0.9620 O.3     1  LIG1       -0.5052
     44 H         -15.4412   -1.6588    0.8204 H       1  LIG1        0.2922
@<TRIPOS>BOND
     1    42    34    1
     2    22    21    1
     3    39    34   ar
     4    39    38   ar
     5     9    10    3
     6    34    35   ar
     7    21    20    3
     8    10     1    1
     9    20    15    1
    10    41    38    1
    11    18    19    3
    12    38    37   ar
    13    19    14    1
    14    33    32    1
    15     6     1   ar
    16     6     5   ar
    17    15    14   ar
    18    15    16   ar
    19     1     2   ar
    20    27    28    1
    21    27    23   ar
    22    27    26   ar
    23    14    13   ar
    24    35    26    1
    25    35    36   ar
    26    16    23    1
    27    16    17   ar
    28    23    24   ar
    29    26    25   ar
    30    30    29    1
    31    13    17   ar
    32    13     5    1
    33     5     4   ar
    34    25    24   ar
    35    25    32    1
    36    24    29    1
    37    31    29    1
    38     2     8    1
    39     2     3   ar
    40    37    36   ar
    41    37    43    1
    42    36    40    1
    43     4     3   ar
    44     4    11    1
    45     3     7    1
    46    12    11    1
    47    44    43    1
