@<TRIPOS>MOLECULE
mol_data/opt/b3lyp/geoms/mol2/6df12ee12ae13ai-6hf4he-4he-4dd-.out
 96 103 0 0 0
SMALL
GASTEIGER

@<TRIPOS>ATOM
      1 C          -4.8793   -1.6229   -2.2496 C.ar    1  LIG1        0.1411
      2 C          -3.5014   -1.8872   -2.2659 C.ar    1  LIG1       -0.0223
      3 C          -2.6555   -0.9027   -1.7842 C.ar    1  LIG1       -0.0152
      4 C          -3.1770    0.3045   -1.2987 C.ar    1  LIG1        0.1459
      5 C          -4.5897    0.4830   -1.3292 C.ar    1  LIG1        0.1499
      6 N          -5.3975   -0.4788   -1.8029 N.ar    1  LIG1       -0.2295
      7 H          -1.5801   -1.0397   -1.7549 H       1  LIG1        0.0655
      8 H          -3.1193   -2.8305   -2.6396 H       1  LIG1        0.0647
      9 N          -6.6183   -3.3807   -3.0692 N.1     1  LIG1       -0.1893
     10 C          -5.8346   -2.6001   -2.7109 C.1     1  LIG1        0.1191
     11 O          -2.2806    1.1731   -0.7964 O.3     1  LIG1       -0.5045
     12 H          -2.6407    2.0711   -0.6780 H       1  LIG1        0.2922
     13 C          -5.3048    1.6528   -0.8104 C.ar    1  LIG1        0.1741
     14 C          -5.0356    2.9953   -0.5969 C.ar    1  LIG1        0.0881
     15 C          -6.2536    3.5919   -0.0893 C.ar    1  LIG1        0.0895
     16 C          -7.1772    2.5595   -0.0409 C.ar    1  LIG1        0.1872
     17 O          -6.6025    1.4066   -0.4687 O.2     1  LIG1       -0.4475
     18 C          -3.8376    3.7010   -0.8615 C.1     1  LIG1       -0.0646
     19 C          -2.8144    4.3139   -1.0772 C.1     1  LIG1       -0.1138
     20 H          -1.9223    4.8595   -1.2858 H       1  LIG1        0.1232
     21 C          -6.4549    4.9440    0.2636 C.1     1  LIG1       -0.0645
     22 C          -6.6278    6.1037    0.5662 C.1     1  LIG1       -0.1138
     23 H          -6.7716    7.1256    0.8317 H       1  LIG1        0.1232
     24 C          -8.5523    2.4914    0.3393 C.ar    1  LIG1        0.1731
     25 C          -9.4675    3.4195    0.7658 C.ar    1  LIG1        0.0034
     26 C         -10.7036    2.7268    0.9562 C.ar    1  LIG1        0.0725
     27 C         -10.4550    1.3940    0.6267 C.ar    1  LIG1        0.1672
     28 O          -9.1513    1.2552    0.2556 O.2     1  LIG1       -0.4490
     29 H          -9.2860    4.4715    0.9223 H       1  LIG1        0.0669
     30 C         -11.9295    3.2837    1.3930 C.1     1  LIG1       -0.0658
     31 C         -12.9721    3.7738    1.7661 C.1     1  LIG1       -0.1138
     32 H         -13.8867    4.2070    2.0987 H       1  LIG1        0.1232
     33 C         -11.2509    0.2092    0.6049 C.ar    1  LIG1        0.0840
     34 C         -12.6145    0.0095    0.8253 C.ar    1  LIG1       -0.0298
     35 C         -12.8903   -1.3632    0.6667 C.ar    1  LIG1       -0.0244
     36 C         -11.6722   -1.9964    0.3503 C.ar    1  LIG1        0.0533
     37 N         -10.7052   -1.0172    0.3075 N.ar    1  LIG1       -0.3514
     38 H          -9.7290   -1.2059    0.1113 H       1  LIG1        0.1660
     39 H         -13.3275    0.7869    1.0573 H       1  LIG1        0.0642
     40 C         -14.2526   -1.9843    0.7889 C.3     1  LIG1       -0.0377
     41 H         -14.4283   -2.4159    1.7825 H       1  LIG1        0.0278
     42 H         -14.4048   -2.7831    0.0567 H       1  LIG1        0.0278
     43 H         -15.0276   -1.2296    0.6261 H       1  LIG1        0.0278
     44 C         -10.2087   -3.8443   -0.6090 C.ar    1  LIG1        0.1263
     45 C         -11.3425   -3.4068    0.1449 C.ar    1  LIG1        0.0415
     46 C         -12.1056   -4.4163    0.7319 C.ar    1  LIG1       -0.0056
     47 C         -11.7617   -5.7686    0.6190 C.ar    1  LIG1        0.1435
     48 C         -10.5987   -6.0928   -0.1120 C.ar    1  LIG1        0.1162
     49 N          -9.8714   -5.1221   -0.7072 N.ar    1  LIG1       -0.2281
     50 H         -12.9609   -4.1786    1.3514 H       1  LIG1        0.0662
     51 N          -9.3507   -2.9239   -1.2331 N.pl3   1  LIG1       -0.3426
     52 H          -8.6273   -3.3991   -1.7675 H       1  LIG1        0.1437
     53 H          -9.8307   -2.2430   -1.8131 H       1  LIG1        0.1437
     54 O         -12.5345   -6.6541    1.3012 O.3     1  LIG1       -0.5046
     55 H         -12.5263   -7.5211    0.8322 H       1  LIG1        0.2922
     56 C         -10.7676   -8.6351   -0.4208 C.ar    1  LIG1        0.0346
     57 C         -10.1356   -9.8818   -0.4348 C.ar    1  LIG1       -0.0315
     58 C         -10.0156   -7.4608   -0.2031 C.ar    1  LIG1        0.0258
     59 C          -8.7553  -10.0193   -0.2603 C.ar    1  LIG1        0.0011
     60 H         -10.7347  -10.7750   -0.5912 H       1  LIG1        0.0643
     61 C          -8.6277   -7.5965   -0.0859 C.ar    1  LIG1       -0.0347
     62 C          -7.9805   -8.8410   -0.1017 C.ar    1  LIG1        0.0332
     63 H          -8.0371   -6.6957    0.0285 H       1  LIG1        0.0637
     64 N         -12.1757   -8.5521   -0.5861 N.pl3   1  LIG1       -0.3574
     65 H         -12.4456   -7.8617   -1.2828 H       1  LIG1        0.1423
     66 H         -12.5994   -9.4455   -0.8109 H       1  LIG1        0.1423
     67 C          -6.5573   -8.8828    0.0306 C.1     1  LIG1       -0.0690
     68 C          -5.3521   -8.8841    0.1391 C.1     1  LIG1       -0.1139
     69 H          -4.2910   -8.8995    0.2321 H       1  LIG1        0.1232
     70 C          -8.2772  -12.2638   -1.3402 C.ar    1  LIG1        0.0330
     71 C          -7.7136  -13.5465   -1.2490 C.ar    1  LIG1       -0.0315
     72 C          -8.1460  -11.3797   -0.2406 C.ar    1  LIG1        0.0052
     73 C          -7.0102  -13.9754   -0.1248 C.ar    1  LIG1        0.0005
     74 H          -7.8391  -14.2251   -2.0871 H       1  LIG1        0.0643
     75 C          -7.4373  -11.8116    0.8796 C.ar    1  LIG1       -0.0362
     76 C          -6.8618  -13.0896    0.9740 C.ar    1  LIG1        0.0331
     77 H          -7.3181  -11.1322    1.7157 H       1  LIG1        0.0637
     78 N          -8.9825  -11.9058   -2.4830 N.pl3   1  LIG1       -0.3575
     79 H          -9.0650  -10.9104   -2.6416 H       1  LIG1        0.1423
     80 H          -8.7195  -12.4098   -3.3192 H       1  LIG1        0.1423
     81 C          -6.1298  -13.4310    2.1520 C.1     1  LIG1       -0.0690
     82 C          -5.5182  -13.6837    3.1664 C.1     1  LIG1       -0.1139
     83 H          -4.9767  -13.9115    4.0551 H       1  LIG1        0.1232
     84 C          -5.6321  -15.8569   -1.1406 C.ar    1  LIG1        0.0596
     85 C          -5.1385  -17.1738   -1.0977 C.ar    1  LIG1       -0.0425
     86 C          -6.4469  -15.3521   -0.0975 C.ar    1  LIG1        0.0019
     87 C          -5.4380  -18.0048   -0.0302 C.ar    1  LIG1       -0.0431
     88 H          -4.5132  -17.5292   -1.9092 H       1  LIG1        0.0631
     89 C          -6.7346  -16.2057    0.9738 C.ar    1  LIG1       -0.0354
     90 C          -6.2415  -17.5163    1.0137 C.ar    1  LIG1        0.0524
     91 H          -7.3555  -15.8472    1.7851 H       1  LIG1        0.0637
     92 H          -5.0584  -19.0196    0.0051 H       1  LIG1        0.0631
     93 N          -4.9265  -14.4446   -3.2041 N.1     1  LIG1       -0.1909
     94 C          -5.2572  -15.0491   -2.2667 C.1     1  LIG1        0.0998
     95 N          -6.8252  -19.0580    3.0213 N.1     1  LIG1       -0.1909
     96 C          -6.5653  -18.3652    2.1240 C.1     1  LIG1        0.0992
@<TRIPOS>BOND
     1    80    78    1
     2    93    94    3
     3     9    10    3
     4    10     1    1
     5    79    78    1
     6     8     2    1
     7    78    70    1
     8    94    84    1
     9     2     1   ar
    10     2     3   ar
    11     1     6   ar
    12    74    71    1
    13    88    85    1
    14    53    51    1
    15     6     5   ar
    16     3     7    1
    17     3     4   ar
    18    52    51    1
    19    70    71   ar
    20    70    72   ar
    21     5     4   ar
    22     5    13    1
    23     4    11    1
    24    20    19    1
    25    65    64    1
    26    71    73   ar
    27    51    44    1
    28    84    85   ar
    29    84    86   ar
    30    85    87   ar
    31    19    18    3
    32    18    14    1
    33    66    64    1
    34    13    14   ar
    35    13    17   ar
    36    11    12    1
    37    49    44   ar
    38    49    48   ar
    39    44    45   ar
    40    14    15   ar
    41    60    57    1
    42    64    56    1
    43    17    16   ar
    44    57    56   ar
    45    57    59   ar
    46    56    58   ar
    47    59    72    1
    48    59    62   ar
    49    72    75   ar
    50    58    48    1
    51    58    61   ar
    52    73    86    1
    53    73    76   ar
    54    48    47   ar
    55    62    61   ar
    56    62    67    1
    57    86    89   ar
    58    15    16   ar
    59    15    21    1
    60    61    63    1
    61    16    24    1
    62    87    92    1
    63    87    90   ar
    64    67    68    3
    65    42    40    1
    66    38    37    1
    67    68    69    1
    68    45    36    1
    69    45    46   ar
    70    28    24   ar
    71    28    27   ar
    72    21    22    3
    73    37    36   ar
    74    37    33   ar
    75    24    25   ar
    76    36    35   ar
    77    22    23    1
    78    33    27    1
    79    33    34   ar
    80    47    46   ar
    81    47    54    1
    82    43    40    1
    83    27    26   ar
    84    35    40    1
    85    35    34   ar
    86    46    50    1
    87    25    29    1
    88    25    26   ar
    89    40    41    1
    90    34    39    1
    91    55    54    1
    92    75    76   ar
    93    75    77    1
    94    26    30    1
    95    89    90   ar
    96    89    91    1
    97    76    81    1
    98    90    96    1
    99    30    31    3
   100    31    32    1
   101    96    95    3
   102    81    82    3
   103    82    83    1
