@<TRIPOS>MOLECULE
mol_data/opt/b3lyp/geoms/mol2/6df13ie13ff-6da4fd12hf4ef6de-.out
 93 100 0 0 0
SMALL
GASTEIGER

@<TRIPOS>ATOM
      1 C          -3.9302   -1.1416    2.2810 C.ar    1  LIG1        0.1410
      2 C          -2.7720   -1.6431    1.6697 C.ar    1  LIG1       -0.0223
      3 C          -2.3540   -1.0647    0.4787 C.ar    1  LIG1       -0.0153
      4 C          -3.0812    0.0029   -0.0484 C.ar    1  LIG1        0.1442
      5 C          -4.1916    0.5016    0.6789 C.ar    1  LIG1        0.1301
      6 N          -4.6184   -0.0961    1.8008 N.ar    1  LIG1       -0.2312
      7 H          -1.4966   -1.4408   -0.0687 H       1  LIG1        0.0655
      8 H          -2.2366   -2.4766    2.1099 H       1  LIG1        0.0647
      9 N          -4.7972   -2.2529    4.4701 N.1     1  LIG1       -0.1893
     10 C          -4.4250   -1.7465    3.4920 C.1     1  LIG1        0.1191
     11 O          -2.7131    0.4960   -1.2541 O.3     1  LIG1       -0.5046
     12 H          -3.3991    1.1107   -1.5599 H       1  LIG1        0.2922
     13 C          -4.9867    1.6407    0.2073 C.ar    1  LIG1        0.0732
     14 C          -4.6638    2.8701   -0.3651 C.ar    1  LIG1       -0.0075
     15 C          -5.8944    3.5927   -0.5161 C.ar    1  LIG1        0.0550
     16 C          -6.9264    2.7916   -0.0028 C.ar    1  LIG1        0.0829
     17 N          -6.3514    1.6181    0.4122 N.ar    1  LIG1       -0.3504
     18 H          -6.7936    0.9037    0.9753 H       1  LIG1        0.1660
     19 C          -3.3106    3.4407   -0.6863 C.3     1  LIG1       -0.0365
     20 H          -3.2990    4.5066   -0.4425 H       1  LIG1        0.0279
     21 H          -3.0569    3.3679   -1.7519 H       1  LIG1        0.0279
     22 H          -2.5152    2.9522   -0.1195 H       1  LIG1        0.0279
     23 C          -6.0127    4.8680   -1.1205 C.1     1  LIG1       -0.0672
     24 C          -6.0617    5.9511   -1.6598 C.1     1  LIG1       -0.1138
     25 H          -6.1285    6.9085   -2.1212 H       1  LIG1        0.1232
     26 C          -8.3515    2.9920    0.0875 C.ar    1  LIG1        0.1103
     27 C          -9.1293    4.1221    0.3457 C.ar    1  LIG1        0.1863
     28 C         -10.4729    3.7083    0.4038 C.ar    1  LIG1        0.1849
     29 C         -10.5369    2.3245    0.1783 C.ar    1  LIG1        0.0955
     30 N          -9.2241    1.9216    0.0205 N.ar    1  LIG1       -0.3470
     31 H          -8.9474    1.0040   -0.2953 H       1  LIG1        0.1662
     32 O          -8.6793    5.3780    0.5784 O.3     1  LIG1       -0.5019
     33 H          -9.4616    5.9319    0.7225 H       1  LIG1        0.2924
     34 O         -11.4902    4.6058    0.6636 O.3     1  LIG1       -0.5019
     35 H         -11.9078    4.3746    1.5059 H       1  LIG1        0.2924
     36 C         -11.6604    0.0306    0.1447 C.ar    1  LIG1        0.1499
     37 C         -11.6913    1.4523    0.1063 C.ar    1  LIG1        0.0379
     38 C         -12.9900    1.9975   -0.0208 C.ar    1  LIG1       -0.0478
     39 C         -14.1081    1.1880   -0.0703 C.ar    1  LIG1       -0.0349
     40 C         -13.9631   -0.2161    0.0026 C.ar    1  LIG1        0.0760
     41 N         -12.7401   -0.7563    0.0942 N.ar    1  LIG1       -0.2356
     42 H         -13.1005    3.0721   -0.1060 H       1  LIG1        0.0626
     43 N          -9.3762   -1.2138    0.2926 N.1     1  LIG1       -0.1893
     44 C         -10.4124   -0.6858    0.2380 C.1     1  LIG1        0.1198
     45 H         -15.0881    1.6295   -0.1787 H       1  LIG1        0.0639
     46 C         -16.4465   -0.8639    0.1778 C.ar    1  LIG1        0.1268
     47 C         -17.4386   -1.8388    0.1010 C.ar    1  LIG1       -0.0076
     48 C         -15.0870   -1.1825   -0.0574 C.ar    1  LIG1        0.0430
     49 C         -17.1535   -3.1802   -0.2010 C.ar    1  LIG1        0.0401
     50 H         -18.4635   -1.5632    0.3353 H       1  LIG1        0.0662
     51 C         -14.8050   -2.5238   -0.3452 C.ar    1  LIG1       -0.0310
     52 C         -15.7862   -3.5169   -0.4261 C.ar    1  LIG1        0.0633
     53 H         -13.7692   -2.7916   -0.5145 H       1  LIG1        0.0638
     54 O         -16.7764    0.4167    0.5138 O.3     1  LIG1       -0.5061
     55 H         -17.7239    0.4607    0.7009 H       1  LIG1        0.2922
     56 N         -14.9400   -5.8831   -1.0806 N.1     1  LIG1       -0.1908
     57 C         -15.3493   -4.8356   -0.7782 C.1     1  LIG1        0.0999
     58 C         -18.2329   -4.1363   -0.2592 C.ar    1  LIG1        0.1613
     59 C         -19.6052   -4.0105   -0.3841 C.ar    1  LIG1        0.1138
     60 C         -20.1354   -5.3369   -0.3633 C.ar    1  LIG1        0.1845
     61 C         -19.0691   -6.2096   -0.2283 C.ar    1  LIG1        0.1801
     62 O         -17.9168   -5.4641   -0.1692 O.2     1  LIG1       -0.4491
     63 N         -20.3916   -2.8634   -0.5071 N.pl3   1  LIG1       -0.3522
     64 H         -20.0466   -2.2081   -1.2002 H       1  LIG1        0.1425
     65 H         -21.3556   -3.1095   -0.7073 H       1  LIG1        0.1425
     66 O         -21.4588   -5.5337   -0.5531 O.3     1  LIG1       -0.5020
     67 H         -21.7152   -6.4191   -0.2293 H       1  LIG1        0.2924
     68 C         -19.8354   -8.6200    0.0682 C.ar    1  LIG1        0.0362
     69 C         -19.5134   -9.9834   -0.0634 C.ar    1  LIG1       -0.0343
     70 C         -18.8550   -7.6471   -0.2707 C.ar    1  LIG1        0.0398
     71 C         -18.2626  -10.4256   -0.4892 C.ar    1  LIG1        0.0275
     72 H         -20.2760  -10.7165    0.1785 H       1  LIG1        0.0637
     73 C         -17.5868   -8.0938   -0.6728 C.ar    1  LIG1       -0.0076
     74 C         -17.2815   -9.4471   -0.7695 C.ar    1  LIG1        0.1254
     75 H         -16.8191   -7.3660   -0.9118 H       1  LIG1        0.0662
     76 C         -21.1119   -8.2831    0.6065 C.1     1  LIG1       -0.0689
     77 C         -22.2036   -8.0356    1.0775 C.1     1  LIG1       -0.1139
     78 H         -23.1404   -7.8331    1.5445 H       1  LIG1        0.1232
     79 O         -16.0444   -9.8726   -1.1187 O.3     1  LIG1       -0.5061
     80 H         -15.4840   -9.1084   -1.3219 H       1  LIG1        0.2922
     81 C         -17.5483  -12.5020   -1.7824 C.ar    1  LIG1        0.1479
     82 C         -17.9704  -11.8782   -0.5859 C.ar    1  LIG1        0.0227
     83 C         -18.1348  -12.7079    0.5259 C.ar    1  LIG1       -0.0343
     84 C         -17.8687  -14.0814    0.4330 C.ar    1  LIG1        0.0434
     85 C         -17.4291  -14.5756   -0.8121 C.ar    1  LIG1        0.0444
     86 N         -17.2795  -13.8140   -1.8892 N.ar    1  LIG1       -0.2428
     87 H         -18.4539  -12.2828    1.4715 H       1  LIG1        0.0637
     88 H         -17.1990  -15.6319   -0.9242 H       1  LIG1        0.0842
     89 N         -17.3598  -11.1485   -4.0001 N.1     1  LIG1       -0.1893
     90 C         -17.4277  -11.7471   -3.0062 C.1     1  LIG1        0.1197
     91 C         -18.0237  -14.9517    1.5510 C.1     1  LIG1       -0.0681
     92 C         -18.1543  -15.6966    2.4952 C.1     1  LIG1       -0.1139
     93 H         -18.2666  -16.3529    3.3275 H       1  LIG1        0.1232
@<TRIPOS>BOND
     1    89    90    3
     2    90    81    1
     3    25    24    1
     4    86    81   ar
     5    86    85   ar
     6    81    82   ar
     7    21    19    1
     8    24    23    3
     9    12    11    1
    10    80    79    1
    11    11     4    1
    12    64    63    1
    13    23    15    1
    14    79    74    1
    15    56    57    3
    16    88    85    1
    17    75    73    1
    18    85    84   ar
    19    57    52    1
    20    74    73   ar
    21    74    71   ar
    22    65    63    1
    23    19    20    1
    24    19    14    1
    25    19    22    1
    26    73    70   ar
    27    82    71    1
    28    82    83   ar
    29    66    60    1
    30    66    67    1
    31    15    14   ar
    32    15    16   ar
    33    53    51    1
    34    63    59    1
    35    71    69   ar
    36    52    51   ar
    37    52    49   ar
    38    59    60   ar
    39    59    58   ar
    40    14    13   ar
    41    60    61   ar
    42    51    48   ar
    43    31    30    1
    44    70    61    1
    45    70    68   ar
    46    58    49    1
    47    58    62   ar
    48    61    62   ar
    49    49    47   ar
    50    45    39    1
    51    42    38    1
    52    39    38   ar
    53    39    40   ar
    54     7     3    1
    55    69    68   ar
    56    69    72    1
    57    48    40    1
    58    48    46   ar
    59     4     3   ar
    60     4     5   ar
    61    38    37   ar
    62    16    26    1
    63    16    17   ar
    64    40    41   ar
    65    30    26   ar
    66    30    29   ar
    67    68    76    1
    68    26    27   ar
    69    41    36   ar
    70    47    46   ar
    71    47    50    1
    72    37    36   ar
    73    37    29    1
    74    36    44    1
    75    46    54    1
    76    29    28   ar
    77    13    17   ar
    78    13     5    1
    79    44    43    3
    80    27    28   ar
    81    27    32    1
    82    28    34    1
    83    17    18    1
    84    84    83   ar
    85    84    91    1
    86     3     2   ar
    87    54    55    1
    88    83    87    1
    89    32    33    1
    90    76    77    3
    91    34    35    1
    92     5     6   ar
    93    77    78    1
    94    91    92    3
    95     2     8    1
    96     2     1   ar
    97     6     1   ar
    98     1    10    1
    99    92    93    1
   100    10     9    3
