@<TRIPOS>MOLECULE
mol_data/opt/b3lyp/geoms/mol2/6df13dh6ha4fi.out
 49 52 0 0 0
SMALL
GASTEIGER

@<TRIPOS>ATOM
      1 C          -4.6963   -2.0728    0.0597 C.ar    1  LIG1        0.1410
      2 C          -3.3508   -2.3122    0.3740 C.ar    1  LIG1       -0.0223
      3 C          -2.5342   -1.2125    0.5706 C.ar    1  LIG1       -0.0153
      4 C          -3.0440    0.0877    0.4519 C.ar    1  LIG1        0.1443
      5 C          -4.4192    0.2394    0.1116 C.ar    1  LIG1        0.1311
      6 N          -5.2004   -0.8438   -0.0662 N.ar    1  LIG1       -0.2312
      7 H          -1.4862   -1.3204    0.8281 H       1  LIG1        0.0655
      8 H          -2.9724   -3.3242    0.4601 H       1  LIG1        0.0647
      9 N          -6.3157   -4.0765   -0.3176 N.1     1  LIG1       -0.1893
     10 C          -5.6039   -3.1727   -0.1499 C.1     1  LIG1        0.1191
     11 O          -2.1623    1.0689    0.7200 O.3     1  LIG1       -0.5046
     12 H          -2.4569    1.9599    0.4746 H       1  LIG1        0.2922
     13 C          -5.1591    1.4998   -0.0281 C.ar    1  LIG1        0.0884
     14 C          -4.8373    2.8657   -0.2058 C.ar    1  LIG1        0.0998
     15 C          -6.0605    3.5997   -0.3126 C.ar    1  LIG1        0.0686
     16 C          -7.1048    2.6778   -0.2015 C.ar    1  LIG1        0.0725
     17 N          -6.5140    1.4371   -0.0417 N.ar    1  LIG1       -0.3503
     18 H          -7.0153    0.5597    0.0467 H       1  LIG1        0.1660
     19 N          -2.5204    3.9661   -0.4643 N.1     1  LIG1       -0.1907
     20 C          -3.5659    3.4562   -0.3474 C.1     1  LIG1        0.1032
     21 N          -6.1593    4.9801   -0.4573 N.pl3   1  LIG1       -0.3553
     22 H          -5.3067    5.4188   -0.7840 H       1  LIG1        0.1424
     23 H          -6.9576    5.2817   -1.0027 H       1  LIG1        0.1424
     24 C          -9.4809    1.8896   -0.5930 C.ar    1  LIG1        0.1261
     25 C          -8.5495    2.8834   -0.1781 C.ar    1  LIG1        0.0397
     26 C          -9.1099    4.0744    0.3018 C.ar    1  LIG1       -0.0473
     27 C         -10.4880    4.2471    0.3706 C.ar    1  LIG1       -0.0348
     28 C         -11.3236    3.1957   -0.0345 C.ar    1  LIG1        0.0766
     29 N         -10.7974    2.0466   -0.5103 N.ar    1  LIG1       -0.2317
     30 H          -8.4542    4.8582    0.6678 H       1  LIG1        0.0626
     31 N          -9.0418    0.6470   -1.0685 N.pl3   1  LIG1       -0.3426
     32 H          -9.8244    0.0991   -1.4077 H       1  LIG1        0.1437
     33 H          -8.2956    0.6935   -1.7539 H       1  LIG1        0.1437
     34 H         -10.9052    5.1658    0.7542 H       1  LIG1        0.0639
     35 C         -13.5737    4.4160    0.1182 C.ar    1  LIG1        0.1260
     36 C         -14.9687    4.3470    0.1953 C.ar    1  LIG1       -0.0193
     37 C         -12.8080    3.2325    0.0486 C.ar    1  LIG1        0.0421
     38 C         -15.6241    3.1218    0.2029 C.ar    1  LIG1       -0.0554
     39 H         -15.5418    5.2711    0.2481 H       1  LIG1        0.0654
     40 C         -13.5107    2.0127    0.0494 C.ar    1  LIG1       -0.0461
     41 C         -14.8991    1.9251    0.1278 C.ar    1  LIG1       -0.0496
     42 H         -12.9171    1.1078   -0.0161 H       1  LIG1        0.0628
     43 H         -16.7089    3.0985    0.2686 H       1  LIG1        0.0621
     44 O         -12.9446    5.6345    0.0928 O.3     1  LIG1       -0.5061
     45 H         -13.6171    6.3279    0.1123 H       1  LIG1        0.2922
     46 C         -15.6029    0.5879    0.1211 C.3     1  LIG1       -0.0397
     47 H         -14.8904   -0.2351    0.2204 H       1  LIG1        0.0278
     48 H         -16.1601    0.4317   -0.8107 H       1  LIG1        0.0278
     49 H         -16.3230    0.5084    0.9430 H       1  LIG1        0.0278
@<TRIPOS>BOND
     1    33    31    1
     2    32    31    1
     3    31    24    1
     4    23    21    1
     5    48    46    1
     6    22    21    1
     7    24    29   ar
     8    24    25   ar
     9    29    28   ar
    10    19    20    3
    11    21    15    1
    12    20    14    1
    13     9    10    3
    14    15    14   ar
    15    15    16   ar
    16    14    13   ar
    17    16    25    1
    18    16    17   ar
    19    25    26   ar
    20    10     1    1
    21     6     1   ar
    22     6     5   ar
    23    17    13   ar
    24    17    18    1
    25    28    37    1
    26    28    27   ar
    27    13     5    1
    28    42    40    1
    29    37    40   ar
    30    37    35   ar
    31    40    41   ar
    32     1     2   ar
    33    44    45    1
    34    44    35    1
    35     5     4   ar
    36    35    36   ar
    37    46    41    1
    38    46    47    1
    39    46    49    1
    40    41    38   ar
    41    36    38   ar
    42    36    39    1
    43    38    43    1
    44    26    27   ar
    45    26    30    1
    46    27    34    1
    47     2     8    1
    48     2     3   ar
    49     4     3   ar
    50     4    11    1
    51    12    11    1
    52     3     7    1
