@<TRIPOS>MOLECULE
mol_data/opt/b3lyp/geoms/mol2/6df6df6df6df-.out
 46 49 0 0 0
SMALL
GASTEIGER

@<TRIPOS>ATOM
      1 C          -4.0341   -1.9471   -1.1581 C.ar    1  LIG1        0.1410
      2 C          -3.0386   -2.2940   -0.2301 C.ar    1  LIG1       -0.0223
      3 C          -2.8106   -1.4480    0.8433 C.ar    1  LIG1       -0.0154
      4 C          -3.5707   -0.2804    0.9599 C.ar    1  LIG1        0.1429
      5 C          -4.5407   -0.0055   -0.0317 C.ar    1  LIG1        0.1165
      6 N          -4.7659   -0.8306   -1.0565 N.ar    1  LIG1       -0.2326
      7 H          -2.0662   -1.6704    1.5999 H       1  LIG1        0.0655
      8 H          -2.4700   -3.2087   -0.3549 H       1  LIG1        0.0647
      9 N          -4.4646   -3.5123   -3.1927 N.1     1  LIG1       -0.1893
     10 C          -4.2931   -2.8021   -2.2887 C.1     1  LIG1        0.1191
     11 O          -3.3340    0.5204    2.0262 O.3     1  LIG1       -0.5046
     12 H          -3.9964    1.2261    2.0655 H       1  LIG1        0.2922
     13 C          -6.7832    1.1918    0.0001 C.ar    1  LIG1        0.1502
     14 C          -5.3681    1.2336    0.0185 C.ar    1  LIG1        0.0433
     15 C          -4.7700    2.4931    0.0641 C.ar    1  LIG1       -0.0060
     16 C          -5.5600    3.6462    0.0619 C.ar    1  LIG1        0.1435
     17 C          -6.9634    3.4961    0.0137 C.ar    1  LIG1        0.1166
     18 N          -7.5408    2.2928   -0.0010 N.ar    1  LIG1       -0.2319
     19 H          -3.6900    2.6037    0.0686 H       1  LIG1        0.0662
     20 N          -8.0863   -1.0610    0.0580 N.1     1  LIG1       -0.1893
     21 C          -7.4962   -0.0612    0.0147 C.1     1  LIG1        0.1198
     22 O          -4.9242    4.8386    0.1090 O.3     1  LIG1       -0.5046
     23 H          -5.5686    5.5594    0.1754 H       1  LIG1        0.2922
     24 C          -8.9264    4.8307    0.9181 C.ar    1  LIG1        0.1502
     25 C          -7.8733    4.6736   -0.0124 C.ar    1  LIG1        0.0433
     26 C          -7.7497    5.6683   -0.9789 C.ar    1  LIG1       -0.0060
     27 C          -8.6320    6.7569   -1.0242 C.ar    1  LIG1        0.1435
     28 C          -9.6693    6.8121   -0.0562 C.ar    1  LIG1        0.1166
     29 N          -9.7824    5.8522    0.8745 N.ar    1  LIG1       -0.2319
     30 H          -6.9944    5.6079   -1.7568 H       1  LIG1        0.0662
     31 N          -9.2664    3.1863    2.9081 N.1     1  LIG1       -0.1893
     32 C          -9.1194    3.8995    2.0027 C.1     1  LIG1        0.1198
     33 O          -8.4639    7.6008   -2.0644 O.3     1  LIG1       -0.5046
     34 H          -8.6010    8.5297   -1.8148 H       1  LIG1        0.2922
     35 C         -10.6527    9.2078   -0.1598 C.ar    1  LIG1        0.1495
     36 C         -10.7808    7.8100   -0.0171 C.ar    1  LIG1        0.0432
     37 C         -12.0704    7.3255    0.2384 C.ar    1  LIG1       -0.0066
     38 C         -13.1435    8.2086    0.3060 C.ar    1  LIG1        0.1356
     39 C         -12.8990    9.5839    0.1170 C.ar    1  LIG1        0.0705
     40 N         -11.6877   10.0676   -0.0997 N.ar    1  LIG1       -0.2403
     41 H         -12.2098    6.2599    0.3910 H       1  LIG1        0.0662
     42 H         -13.7271   10.2865    0.1583 H       1  LIG1        0.0867
     43 N          -8.2997   10.2441   -0.5500 N.1     1  LIG1       -0.1893
     44 C          -9.3648    9.8147   -0.3533 C.1     1  LIG1        0.1198
     45 O         -14.4196    7.8330    0.5387 O.3     1  LIG1       -0.5052
     46 H         -14.4692    6.8762    0.6739 H       1  LIG1        0.2922
@<TRIPOS>BOND
     1     9    10    3
     2    10     1    1
     3    33    34    1
     4    33    27    1
     5    30    26    1
     6     1     6   ar
     7     1     2   ar
     8     6     5   ar
     9    27    26   ar
    10    27    28   ar
    11    26    25   ar
    12    43    44    3
    13     8     2    1
    14    44    35    1
    15     2     3   ar
    16    35    40   ar
    17    35    36   ar
    18    40    39   ar
    19    28    36    1
    20    28    29   ar
    21     5    14    1
    22     5     4   ar
    23    36    37   ar
    24    25    17    1
    25    25    24   ar
    26    18    13   ar
    27    18    17   ar
    28    13    21    1
    29    13    14   ar
    30    17    16   ar
    31    21    20    3
    32    14    15   ar
    33    16    15   ar
    34    16    22    1
    35    15    19    1
    36    22    23    1
    37    39    42    1
    38    39    38   ar
    39    37    38   ar
    40    37    41    1
    41    38    45    1
    42    45    46    1
    43     3     4   ar
    44     3     7    1
    45    29    24   ar
    46    24    32    1
    47     4    11    1
    48    32    31    3
    49    11    12    1
