@<TRIPOS>MOLECULE
mol_data/opt/b3lyp/geoms/mol2/6df6df6df6df.out
 46 49 0 0 0
SMALL
GASTEIGER

@<TRIPOS>ATOM
      1 C          -3.5398   -1.5640   -1.4996 C.ar    1  LIG1        0.1410
      2 C          -2.8912   -2.1855   -0.4201 C.ar    1  LIG1       -0.0223
      3 C          -3.0943   -1.6803    0.8541 C.ar    1  LIG1       -0.0154
      4 C          -3.9281   -0.5700    1.0181 C.ar    1  LIG1        0.1429
      5 C          -4.5267   -0.0011   -0.1297 C.ar    1  LIG1        0.1165
      6 N          -4.3388   -0.4993   -1.3535 N.ar    1  LIG1       -0.2326
      7 H          -2.6327   -2.1270    1.7277 H       1  LIG1        0.0655
      8 H          -2.2524   -3.0452   -0.5880 H       1  LIG1        0.0647
      9 N          -3.1539   -2.4826   -3.9043 N.1     1  LIG1       -0.1893
     10 C          -3.3450   -2.0602   -2.8384 C.1     1  LIG1        0.1191
     11 O          -4.1171   -0.1051    2.2756 O.3     1  LIG1       -0.5046
     12 H          -4.8019    0.5801    2.2785 H       1  LIG1        0.2922
     13 C          -6.7379    1.1973   -0.5017 C.ar    1  LIG1        0.1502
     14 C          -5.4047    1.2000   -0.0263 C.ar    1  LIG1        0.0433
     15 C          -4.9283    2.3874    0.5300 C.ar    1  LIG1       -0.0060
     16 C          -5.7502    3.5168    0.5762 C.ar    1  LIG1        0.1435
     17 C          -7.0575    3.4146    0.0548 C.ar    1  LIG1        0.1166
     18 N          -7.5277    2.2754   -0.4547 N.ar    1  LIG1       -0.2319
     19 H          -3.9124    2.4658    0.9044 H       1  LIG1        0.0662
     20 N          -7.8379   -0.9601   -1.4569 N.1     1  LIG1       -0.1893
     21 C          -7.3353    0.0025   -1.0438 C.1     1  LIG1        0.1198
     22 O          -5.2400    4.6447    1.1200 O.3     1  LIG1       -0.5046
     23 H          -5.9244    5.3292    1.1688 H       1  LIG1        0.2922
     24 C          -9.2034    4.5626    0.7775 C.ar    1  LIG1        0.1502
     25 C          -7.9834    4.5844    0.0619 C.ar    1  LIG1        0.0433
     26 C          -7.6792    5.7436   -0.6508 C.ar    1  LIG1       -0.0060
     27 C          -8.5816    6.8112   -0.6599 C.ar    1  LIG1        0.1435
     28 C          -9.7829    6.6816    0.0709 C.ar    1  LIG1        0.1166
     29 N         -10.0650    5.5847    0.7754 N.ar    1  LIG1       -0.2319
     30 H          -6.7644    5.8259   -1.2294 H       1  LIG1        0.0662
     31 N          -9.8291    2.5189    2.2635 N.1     1  LIG1       -0.1893
     32 C          -9.5618    3.4256    1.5878 C.1     1  LIG1        0.1198
     33 O          -8.2456    7.9127   -1.3679 O.3     1  LIG1       -0.5046
     34 H          -8.9221    8.5974   -1.2529 H       1  LIG1        0.2922
     35 C         -11.1631    8.4052    1.3170 C.ar    1  LIG1        0.1495
     36 C         -10.7878    7.7835    0.1032 C.ar    1  LIG1        0.0432
     37 C         -11.4032    8.2267   -1.0692 C.ar    1  LIG1       -0.0066
     38 C         -12.3696    9.2345   -0.9957 C.ar    1  LIG1        0.1356
     39 C         -12.6808    9.7680    0.2647 C.ar    1  LIG1        0.0705
     40 N         -12.0911    9.3702    1.3867 N.ar    1  LIG1       -0.2403
     41 H         -11.1791    7.7747   -2.0306 H       1  LIG1        0.0662
     42 H         -13.4359   10.5486    0.3601 H       1  LIG1        0.0867
     43 N          -9.9587    7.7980    3.5435 N.1     1  LIG1       -0.1893
     44 C         -10.5143    8.0535    2.5553 C.1     1  LIG1        0.1198
     45 O         -12.9588    9.6397   -2.1430 O.3     1  LIG1       -0.5052
     46 H         -13.6272   10.3137   -1.9549 H       1  LIG1        0.2922
@<TRIPOS>BOND
     1     9    10    3
     2    10     1    1
     3    45    46    1
     4    45    38    1
     5    41    37    1
     6     1     6   ar
     7     1     2   ar
     8    20    21    3
     9    33    34    1
    10    33    27    1
    11     6     5   ar
    12    30    26    1
    13    37    38   ar
    14    37    36   ar
    15    21    13    1
    16    38    39   ar
    17    27    26   ar
    18    27    28   ar
    19    26    25   ar
    20     8     2    1
    21    13    18   ar
    22    13    14   ar
    23    18    17   ar
    24     2     3   ar
    25     5    14    1
    26     5     4   ar
    27    14    15   ar
    28    17    25    1
    29    17    16   ar
    30    25    24   ar
    31    28    36    1
    32    28    29   ar
    33    36    35   ar
    34    39    42    1
    35    39    40   ar
    36    15    16   ar
    37    15    19    1
    38    16    22    1
    39    29    24   ar
    40    24    32    1
    41     3     4   ar
    42     3     7    1
    43     4    11    1
    44    22    23    1
    45    35    40   ar
    46    35    44    1
    47    32    31    3
    48    11    12    1
    49    44    43    3
