@<TRIPOS>MOLECULE
mol_data/opt/b3lyp/geoms/mol2/6df6df-6df6df-.out
 46 49 0 0 0
SMALL
GASTEIGER

@<TRIPOS>ATOM
      1 C          -3.9588   -1.8971    1.0255 C.ar    1  LIG1        0.1410
      2 C          -3.2123   -2.4243   -0.0389 C.ar    1  LIG1       -0.0223
      3 C          -3.0915   -1.6540   -1.1818 C.ar    1  LIG1       -0.0154
      4 C          -3.6889   -0.3876   -1.2492 C.ar    1  LIG1        0.1429
      5 C          -4.4250    0.0646   -0.1209 C.ar    1  LIG1        0.1165
      6 N          -4.5487   -0.6998    0.9757 N.ar    1  LIG1       -0.2326
      7 H          -2.5409   -2.0010   -2.0491 H       1  LIG1        0.0655
      8 H          -2.7520   -3.4027    0.0394 H       1  LIG1        0.0647
      9 N          -4.2687   -3.2950    3.2006 N.1     1  LIG1       -0.1893
     10 C          -4.1371   -2.6588    2.2368 C.1     1  LIG1        0.1191
     11 O          -3.5952    0.2541   -2.4380 O.3     1  LIG1       -0.5046
     12 H          -3.3425    1.1865   -2.3343 H       1  LIG1        0.2922
     13 C          -4.8150    2.6049   -0.4891 C.ar    1  LIG1        0.1502
     14 C          -5.2225    1.3261   -0.0514 C.ar    1  LIG1        0.0433
     15 C          -6.4768    1.2660    0.5653 C.ar    1  LIG1       -0.0060
     16 C          -7.2697    2.4034    0.6763 C.ar    1  LIG1        0.1435
     17 C          -6.7995    3.6211    0.1220 C.ar    1  LIG1        0.1166
     18 N          -5.5824    3.7030   -0.4076 N.ar    1  LIG1       -0.2319
     19 H          -6.8082    0.3192    0.9798 H       1  LIG1        0.0662
     20 N          -2.4448    2.9373   -1.5075 N.1     1  LIG1       -0.1893
     21 C          -3.5043    2.8216   -1.0373 C.1     1  LIG1        0.1198
     22 O          -8.4573    2.4188    1.3151 O.3     1  LIG1       -0.5046
     23 H          -8.7234    1.5221    1.5630 H       1  LIG1        0.2922
     24 C          -8.9336    4.9782   -0.2829 C.ar    1  LIG1        0.1502
     25 C          -7.5938    4.8780    0.1556 C.ar    1  LIG1        0.0433
     26 C          -6.9956    6.0576    0.5856 C.ar    1  LIG1       -0.0060
     27 C          -7.7085    7.2594    0.6333 C.ar    1  LIG1        0.1435
     28 C          -9.0635    7.2484    0.2074 C.ar    1  LIG1        0.1166
     29 N          -9.6215    6.1215   -0.2573 N.ar    1  LIG1       -0.2319
     30 H          -5.9568    6.0651    0.8946 H       1  LIG1        0.0662
     31 N         -10.1684    2.9672   -1.3853 N.1     1  LIG1       -0.1893
     32 C          -9.6241    3.8599   -0.8776 C.1     1  LIG1        0.1198
     33 O          -7.0054    8.3602    0.9899 O.3     1  LIG1       -0.5046
     34 H          -7.4708    8.8895    1.6596 H       1  LIG1        0.2922
     35 C         -10.1083    9.4635    1.0550 C.ar    1  LIG1        0.1495
     36 C          -9.9535    8.4428    0.0930 C.ar    1  LIG1        0.0432
     37 C         -10.7529    8.5437   -1.0534 C.ar    1  LIG1       -0.0066
     38 C         -11.6128    9.6257   -1.2093 C.ar    1  LIG1        0.1356
     39 C         -11.6605   10.6020   -0.1946 C.ar    1  LIG1        0.0705
     40 N         -10.9361   10.5162    0.9084 N.ar    1  LIG1       -0.2403
     41 H         -10.6929    7.7603   -1.8023 H       1  LIG1        0.0662
     42 H         -12.3205   11.4586   -0.3039 H       1  LIG1        0.0867
     43 N          -8.7644    9.3552    3.2788 N.1     1  LIG1       -0.1893
     44 C          -9.3955    9.4204    2.3016 C.1     1  LIG1        0.1198
     45 O         -12.4123    9.8078   -2.2843 O.3     1  LIG1       -0.5052
     46 H         -12.3127    9.0698   -2.9019 H       1  LIG1        0.2922
@<TRIPOS>BOND
     1    46    45    1
     2    11    12    1
     3    11     4    1
     4    45    38    1
     5     7     3    1
     6    41    37    1
     7    20    21    3
     8    31    32    3
     9     4     3   ar
    10     4     5   ar
    11    38    37   ar
    12    38    39   ar
    13     3     2   ar
    14    37    36   ar
    15    21    13    1
    16    32    24    1
    17    13    18   ar
    18    13    14   ar
    19    18    17   ar
    20    42    39    1
    21    24    29   ar
    22    24    25   ar
    23    29    28   ar
    24    39    40   ar
    25     5    14    1
    26     5     6   ar
    27    14    15   ar
    28     2     8    1
    29     2     1   ar
    30    36    28    1
    31    36    35   ar
    32    17    25    1
    33    17    16   ar
    34    25    26   ar
    35    28    27   ar
    36    15    16   ar
    37    15    19    1
    38    26    27   ar
    39    26    30    1
    40    27    33    1
    41    16    22    1
    42    40    35   ar
    43     6     1   ar
    44    33    34    1
    45     1    10    1
    46    35    44    1
    47    22    23    1
    48    10     9    3
    49    44    43    3
