@<TRIPOS>MOLECULE
mol_data/opt/b3lyp/geoms/mol2/6df6df6df.out
 35 37 0 0 0
SMALL
GASTEIGER

@<TRIPOS>ATOM
      1 C          -4.0640   -1.8485   -1.1612 C.ar    1  LIG1        0.1410
      2 C          -3.0382   -2.1655   -0.2559 C.ar    1  LIG1       -0.0223
      3 C          -2.8008   -1.3047    0.8038 C.ar    1  LIG1       -0.0154
      4 C          -3.5828   -0.1525    0.9290 C.ar    1  LIG1        0.1429
      5 C          -4.5840    0.0914   -0.0392 C.ar    1  LIG1        0.1165
      6 N          -4.8178   -0.7472   -1.0507 N.ar    1  LIG1       -0.2326
      7 H          -2.0326   -1.5041    1.5427 H       1  LIG1        0.0655
      8 H          -2.4537   -3.0691   -0.3870 H       1  LIG1        0.0647
      9 N          -4.5093   -3.4394   -3.1726 N.1     1  LIG1       -0.1893
     10 C          -4.3318   -2.7187   -2.2782 C.1     1  LIG1        0.1191
     11 O          -3.3365    0.6654    1.9798 O.3     1  LIG1       -0.5046
     12 H          -4.0127    1.3575    2.0277 H       1  LIG1        0.2922
     13 C          -6.8465    1.2448    0.0828 C.ar    1  LIG1        0.1502
     14 C          -5.4343    1.3150    0.0239 C.ar    1  LIG1        0.0433
     15 C          -4.8595    2.5861    0.0055 C.ar    1  LIG1       -0.0060
     16 C          -5.6738    3.7216    0.0171 C.ar    1  LIG1        0.1435
     17 C          -7.0735    3.5429    0.0555 C.ar    1  LIG1        0.1166
     18 N          -7.6274    2.3302    0.0995 N.ar    1  LIG1       -0.2319
     19 H          -3.7832    2.7158   -0.0508 H       1  LIG1        0.0662
     20 N          -8.0862   -1.0379    0.2529 N.1     1  LIG1       -0.1893
     21 C          -7.5280   -0.0231    0.1610 C.1     1  LIG1        0.1198
     22 O          -5.0678    4.9310   -0.0066 O.3     1  LIG1       -0.5046
     23 H          -5.7325    5.6330    0.0621 H       1  LIG1        0.2922
     24 C          -8.9174    4.9245    1.1176 C.ar    1  LIG1        0.1495
     25 C          -8.0008    4.7108    0.0616 C.ar    1  LIG1        0.0432
     26 C          -8.0039    5.6262   -0.9931 C.ar    1  LIG1       -0.0066
     27 C          -8.9139    6.6874   -0.9767 C.ar    1  LIG1        0.1356
     28 C          -9.7931    6.7932    0.1119 C.ar    1  LIG1        0.0705
     29 N          -9.7912    5.9413    1.1313 N.ar    1  LIG1       -0.2403
     30 H          -7.3443    5.5052   -1.8469 H       1  LIG1        0.0662
     31 H         -10.5223    7.6028    0.1532 H       1  LIG1        0.0867
     32 N          -8.8953    3.4057    3.2315 N.1     1  LIG1       -0.1893
     33 C          -8.9212    4.0680    2.2770 C.1     1  LIG1        0.1198
     34 O          -8.9042    7.5544   -2.0146 O.3     1  LIG1       -0.5052
     35 H          -9.5992    8.2180   -1.9001 H       1  LIG1        0.2922
@<TRIPOS>BOND
     1     9    10    3
     2    10     1    1
     3    34    35    1
     4    34    27    1
     5    30    26    1
     6     1     6   ar
     7     1     2   ar
     8     6     5   ar
     9    26    27   ar
    10    26    25   ar
    11    27    28   ar
    12     8     2    1
    13     2     3   ar
    14    19    15    1
    15     5    14    1
    16     5     4   ar
    17    22    16    1
    18    22    23    1
    19    15    16   ar
    20    15    14   ar
    21    16    17   ar
    22    14    13   ar
    23    17    25    1
    24    17    18   ar
    25    25    24   ar
    26    13    18   ar
    27    13    21    1
    28    28    31    1
    29    28    29   ar
    30    21    20    3
    31     3     4   ar
    32     3     7    1
    33     4    11    1
    34    24    29   ar
    35    24    33    1
    36    11    12    1
    37    33    32    3
