@<TRIPOS>MOLECULE
mol_data/opt/b3lyp/geoms/mol2/6df6df6df-6df-.out
 46 49 0 0 0
SMALL
GASTEIGER

@<TRIPOS>ATOM
      1 C          -4.4683   -2.1972   -0.6432 C.ar    1  LIG1        0.1410
      2 C          -3.1752   -2.3924   -0.1306 C.ar    1  LIG1       -0.0223
      3 C          -2.5446   -1.3292    0.4948 C.ar    1  LIG1       -0.0154
      4 C          -3.2094   -0.1021    0.5859 C.ar    1  LIG1        0.1429
      5 C          -4.5038    0.0063    0.0250 C.ar    1  LIG1        0.1165
      6 N          -5.1124   -1.0268   -0.5632 N.ar    1  LIG1       -0.2326
      7 H          -1.5527   -1.4231    0.9231 H       1  LIG1        0.0655
      8 H          -2.6911   -3.3583   -0.2211 H       1  LIG1        0.0647
      9 N          -5.6713   -4.1750   -1.8331 N.1     1  LIG1       -0.1893
     10 C          -5.1538   -3.2804   -1.3013 C.1     1  LIG1        0.1191
     11 O          -2.5692    0.9098    1.2174 O.3     1  LIG1       -0.5046
     12 H          -3.1597    1.6713    1.3163 H       1  LIG1        0.2922
     13 C          -6.5980    1.3599    0.5232 C.ar    1  LIG1        0.1502
     14 C          -5.2628    1.2864    0.0597 C.ar    1  LIG1        0.0433
     15 C          -4.7038    2.4753   -0.4005 C.ar    1  LIG1       -0.0060
     16 C          -5.4308    3.6748   -0.4045 C.ar    1  LIG1        0.1435
     17 C          -6.7659    3.6415    0.0767 C.ar    1  LIG1        0.1166
     18 N          -7.3025    2.4918    0.5134 N.ar    1  LIG1       -0.2319
     19 H          -3.7009    2.5016   -0.8155 H       1  LIG1        0.0662
     20 N          -7.8539   -0.6764    1.5499 N.1     1  LIG1       -0.1893
     21 C          -7.2817    0.2130    1.0686 C.1     1  LIG1        0.1198
     22 O          -4.8001    4.7264   -0.9631 O.3     1  LIG1       -0.5046
     23 H          -5.0741    5.5769   -0.5871 H       1  LIG1        0.2922
     24 C          -7.4865    6.1066    0.4410 C.ar    1  LIG1        0.1502
     25 C          -7.7372    4.7741    0.0507 C.ar    1  LIG1        0.0433
     26 C          -9.0506    4.4920   -0.3420 C.ar    1  LIG1       -0.0060
     27 C         -10.0145    5.4932   -0.3732 C.ar    1  LIG1        0.1435
     28 C          -9.6451    6.8128   -0.0044 C.ar    1  LIG1        0.1166
     29 N          -8.4077    7.0789    0.4034 N.ar    1  LIG1       -0.2319
     30 H          -9.3041    3.4729   -0.6175 H       1  LIG1        0.0662
     31 N          -5.1321    6.7649    1.3327 N.1     1  LIG1       -0.1893
     32 C          -6.2005    6.4996    0.9532 C.1     1  LIG1        0.1198
     33 O         -11.2937    5.2641   -0.7562 O.3     1  LIG1       -0.5046
     34 H         -11.3994    4.3365   -1.0118 H       1  LIG1        0.2922
     35 C         -10.2191    9.1907   -0.6346 C.ar    1  LIG1        0.1495
     36 C         -10.5928    7.9566   -0.0579 C.ar    1  LIG1        0.0432
     37 C         -11.8761    7.8649    0.4890 C.ar    1  LIG1       -0.0066
     38 C         -12.7127    8.9789    0.4664 C.ar    1  LIG1        0.1356
     39 C         -12.2345   10.1652   -0.1154 C.ar    1  LIG1        0.0705
     40 N         -11.0284   10.2637   -0.6573 N.ar    1  LIG1       -0.2403
     41 H         -12.2118    6.9325    0.9322 H       1  LIG1        0.0662
     42 H         -12.8712   11.0460   -0.1346 H       1  LIG1        0.0867
     43 N          -7.9527    9.5070   -1.8775 N.1     1  LIG1       -0.1893
     44 C          -8.9510    9.3610   -1.3003 C.1     1  LIG1        0.1198
     45 O         -13.9667    8.9946    0.9796 O.3     1  LIG1       -0.5052
     46 H         -14.1861    8.1279    1.3481 H       1  LIG1        0.2922
@<TRIPOS>BOND
     1    43    44    3
     2     9    10    3
     3    10     1    1
     4    44    35    1
     5    34    33    1
     6    22    23    1
     7    22    16    1
     8    19    15    1
     9    33    27    1
    10    40    35   ar
    11    40    39   ar
    12     1     6   ar
    13     1     2   ar
    14    35    36   ar
    15    30    26    1
    16     6     5   ar
    17    16    15   ar
    18    16    17   ar
    19    15    14   ar
    20    27    26   ar
    21    27    28   ar
    22    26    25   ar
    23     8     2    1
    24    42    39    1
    25     2     3   ar
    26    39    38   ar
    27    36    28    1
    28    36    37   ar
    29    28    29   ar
    30     5    14    1
    31     5     4   ar
    32    25    17    1
    33    25    24   ar
    34    14    13   ar
    35    17    18   ar
    36    29    24   ar
    37    24    32    1
    38    38    37   ar
    39    38    45    1
    40    37    41    1
    41     3     4   ar
    42     3     7    1
    43    18    13   ar
    44    13    21    1
    45     4    11    1
    46    32    31    3
    47    45    46    1
    48    21    20    3
    49    11    12    1
