@<TRIPOS>MOLECULE
mol_data/opt/b3lyp/geoms/mol2/6df6hd6fl4fh-.out
 52 55 0 0 0
SMALL
GASTEIGER

@<TRIPOS>ATOM
      1 C          -4.1569   -2.2853   -0.4192 C.ar    1  LIG1        0.1410
      2 C          -2.9008   -2.3389    0.1971 C.ar    1  LIG1       -0.0223
      3 C          -2.4478   -1.2016    0.8492 C.ar    1  LIG1       -0.0154
      4 C          -3.2325   -0.0470    0.8449 C.ar    1  LIG1        0.1429
      5 C          -4.4597   -0.0461    0.1249 C.ar    1  LIG1        0.1170
      6 N          -4.9046   -1.1725   -0.4522 N.ar    1  LIG1       -0.2326
      7 H          -1.5058   -1.1888    1.3864 H       1  LIG1        0.0655
      8 H          -2.3192   -3.2534    0.1840 H       1  LIG1        0.0647
      9 N          -5.1417   -4.4099   -1.5552 N.1     1  LIG1       -0.1893
     10 C          -4.7096   -3.4544   -1.0533 C.1     1  LIG1        0.1191
     11 O          -2.7682    1.0113    1.5512 O.3     1  LIG1       -0.5046
     12 H          -3.4727    1.6668    1.6647 H       1  LIG1        0.2922
     13 C          -6.7375    1.1182   -0.0043 C.ar    1  LIG1        0.1263
     14 C          -5.3034    1.1674    0.0079 C.ar    1  LIG1        0.0447
     15 C          -4.7521    2.4366   -0.1321 C.ar    1  LIG1       -0.0297
     16 C          -5.5309    3.6043   -0.2073 C.ar    1  LIG1        0.0786
     17 C          -6.9511    3.4766   -0.1440 C.ar    1  LIG1        0.0956
     18 N          -7.4783    2.2357   -0.0496 N.ar    1  LIG1       -0.2303
     19 H          -3.6750    2.5504   -0.2060 H       1  LIG1        0.0639
     20 N          -7.4095   -0.0540    0.0563 N.pl3   1  LIG1       -0.3426
     21 H          -8.4078   -0.0183   -0.0851 H       1  LIG1        0.1437
     22 H          -6.9019   -0.8888   -0.2135 H       1  LIG1        0.1437
     23 N          -4.1413    5.7872   -0.3347 N.1     1  LIG1       -0.1908
     24 C          -4.8063    4.8314   -0.2827 C.1     1  LIG1        0.1013
     25 C          -9.2759    4.4120    0.2292 C.ar    1  LIG1        0.2225
     26 C          -7.9117    4.5868   -0.1649 C.ar    1  LIG1        0.0665
     27 C          -7.5564    5.8883   -0.5812 C.ar    1  LIG1       -0.0035
     28 C          -8.4646    6.9326   -0.5216 C.ar    1  LIG1        0.1469
     29 C          -9.7504    6.6732    0.0216 C.ar    1  LIG1        0.1198
     30 N         -10.1256    5.4324    0.3356 N.ar    1  LIG1       -0.2087
     31 H          -6.5717    6.0723   -0.9806 H       1  LIG1        0.0663
     32 O          -9.7967    3.2203    0.5412 O.3     1  LIG1       -0.4919
     33 H          -9.0835    2.5552    0.3568 H       1  LIG1        0.2937
     34 O          -8.2267    8.1871   -0.9898 O.3     1  LIG1       -0.4929
     35 C          -6.9024    8.5119   -1.3864 C.3     1  LIG1        0.0789
     36 H          -6.9143    9.5757   -1.6269 H       1  LIG1        0.0660
     37 H          -6.1810    8.3256   -0.5818 H       1  LIG1        0.0660
     38 H          -6.5954    7.9476   -2.2771 H       1  LIG1        0.0660
     39 C         -10.5022    8.9449    0.8687 C.ar    1  LIG1        0.1262
     40 C         -11.5175    9.8950    0.9983 C.ar    1  LIG1       -0.0178
     41 C         -10.7714    7.7375    0.1964 C.ar    1  LIG1        0.0472
     42 C         -12.7917    9.6598    0.4894 C.ar    1  LIG1       -0.0376
     43 H         -11.3117   10.8294    1.5169 H       1  LIG1        0.0655
     44 C         -12.0677    7.5026   -0.2788 C.ar    1  LIG1       -0.0282
     45 C         -13.0902    8.4496   -0.1535 C.ar    1  LIG1        0.0254
     46 H         -12.2674    6.5476   -0.7552 H       1  LIG1        0.0644
     47 H         -13.5645   10.4149    0.6078 H       1  LIG1        0.0637
     48 O          -9.2640    9.1280    1.4262 O.3     1  LIG1       -0.5061
     49 H          -9.2493    9.9872    1.8666 H       1  LIG1        0.2922
     50 N         -14.3927    8.1716   -0.6010 N.pl3   1  LIG1       -0.3579
     51 H         -14.9218    8.9920   -0.8668 H       1  LIG1        0.1423
     52 H         -14.4348    7.4698   -1.3285 H       1  LIG1        0.1423
@<TRIPOS>BOND
     1    38    35    1
     2    36    35    1
     3     9    10    3
     4    35    34    1
     5    35    37    1
     6    52    50    1
     7    10     1    1
     8    34    28    1
     9    31    27    1
    10    51    50    1
    11    46    44    1
    12    50    45    1
    13    27    28   ar
    14    27    26   ar
    15    28    29   ar
    16     6     1   ar
    17     6     5   ar
    18     1     2   ar
    19    23    24    3
    20    24    16    1
    21    44    45   ar
    22    44    41   ar
    23    22    20    1
    24    16    17   ar
    25    16    15   ar
    26    19    15    1
    27    26    17    1
    28    26    25   ar
    29    45    42   ar
    30    17    18   ar
    31    15    14   ar
    32    21    20    1
    33    18    13   ar
    34    13    14   ar
    35    13    20    1
    36    14     5    1
    37    29    41    1
    38    29    30   ar
    39     5     4   ar
    40     8     2    1
    41    41    39   ar
    42     2     3   ar
    43    25    30   ar
    44    25    32    1
    45    33    32    1
    46    42    47    1
    47    42    40   ar
    48     4     3   ar
    49     4    11    1
    50     3     7    1
    51    39    40   ar
    52    39    48    1
    53    40    43    1
    54    48    49    1
    55    11    12    1
