@<TRIPOS>MOLECULE
mol_data/opt/b3lyp/geoms/mol2/6df6df-6df-6df.out
 46 49 0 0 0
SMALL
GASTEIGER

@<TRIPOS>ATOM
      1 C          -4.0147   -1.9249    1.0007 C.ar    1  LIG1        0.1410
      2 C          -3.1739   -2.4150   -0.0097 C.ar    1  LIG1       -0.0223
      3 C          -2.9682   -1.6129   -1.1183 C.ar    1  LIG1       -0.0154
      4 C          -3.5739   -0.3515   -1.2034 C.ar    1  LIG1        0.1429
      5 C          -4.4027    0.0651   -0.1264 C.ar    1  LIG1        0.1165
      6 N          -4.6106   -0.7314    0.9341 N.ar    1  LIG1       -0.2326
      7 H          -2.3439   -1.9313   -1.9458 H       1  LIG1        0.0655
      8 H          -2.7099   -3.3906    0.0813 H       1  LIG1        0.0647
      9 N          -4.5070   -3.3903    3.0963 N.1     1  LIG1       -0.1893
     10 C          -4.2924   -2.7240    2.1684 C.1     1  LIG1        0.1191
     11 O          -3.4000    0.3198   -2.3663 O.3     1  LIG1       -0.5046
     12 H          -3.1358    1.2448   -2.2217 H       1  LIG1        0.2922
     13 C          -4.7971    2.6126   -0.4645 C.ar    1  LIG1        0.1502
     14 C          -5.2144    1.3186   -0.0853 C.ar    1  LIG1        0.0433
     15 C          -6.5127    1.2301    0.4295 C.ar    1  LIG1       -0.0060
     16 C          -7.3278    2.3526    0.5128 C.ar    1  LIG1        0.1435
     17 C          -6.8231    3.6014    0.0663 C.ar    1  LIG1        0.1166
     18 N          -5.5799    3.6974   -0.3960 N.ar    1  LIG1       -0.2319
     19 H          -6.8656    0.2654    0.7811 H       1  LIG1        0.0662
     20 N          -2.3745    2.9791   -1.3372 N.1     1  LIG1       -0.1893
     21 C          -3.4586    2.8559   -0.9300 C.1     1  LIG1        0.1198
     22 O          -8.5888    2.3006    1.0088 O.3     1  LIG1       -0.5046
     23 H          -8.7698    1.4129    1.3495 H       1  LIG1        0.2922
     24 C          -7.0489    6.0827    0.5179 C.ar    1  LIG1        0.1502
     25 C          -7.6173    4.8555    0.1039 C.ar    1  LIG1        0.0433
     26 C          -8.9562    4.8861   -0.2906 C.ar    1  LIG1       -0.0060
     27 C          -9.6573    6.0902   -0.3082 C.ar    1  LIG1        0.1435
     28 C          -8.9743    7.2787    0.0354 C.ar    1  LIG1        0.1166
     29 N          -7.7155    7.2431    0.4763 N.ar    1  LIG1       -0.2319
     30 H          -9.4590    3.9675   -0.5736 H       1  LIG1        0.0662
     31 N          -4.6754    6.2690    1.5717 N.1     1  LIG1       -0.1893
     32 C          -5.7202    6.1657    1.0735 C.1     1  LIG1        0.1198
     33 O         -10.9747    6.1728   -0.6035 O.3     1  LIG1       -0.5046
     34 H         -11.2810    5.3575   -1.0236 H       1  LIG1        0.2922
     35 C         -10.3222    9.1114   -1.1386 C.ar    1  LIG1        0.1495
     36 C          -9.6154    8.6211   -0.0146 C.ar    1  LIG1        0.0432
     37 C          -9.4679    9.4775    1.0763 C.ar    1  LIG1       -0.0066
     38 C         -10.0470   10.7450    1.0362 C.ar    1  LIG1        0.1356
     39 C         -10.7559   11.1194   -0.1162 C.ar    1  LIG1        0.0705
     40 N         -10.8786   10.3321   -1.1778 N.ar    1  LIG1       -0.2403
     41 H          -8.9051    9.1640    1.9479 H       1  LIG1        0.0662
     42 H         -11.2292   12.1000   -0.1771 H       1  LIG1        0.0867
     43 N         -10.4964    7.7326   -3.3406 N.1     1  LIG1       -0.1893
     44 C         -10.4312    8.3465   -2.3555 C.1     1  LIG1        0.1198
     45 O          -9.9023   11.5546    2.1129 O.3     1  LIG1       -0.5052
     46 H         -10.3403   12.4012    1.9482 H       1  LIG1        0.2922
@<TRIPOS>BOND
     1    43    44    3
     2    11    12    1
     3    11     4    1
     4    44    35    1
     5     7     3    1
     6    20    21    3
     7     4     3   ar
     8     4     5   ar
     9    40    35   ar
    10    40    39   ar
    11    35    36   ar
    12     3     2   ar
    13    34    33    1
    14    21    13    1
    15    33    27    1
    16    30    26    1
    17    13    18   ar
    18    13    14   ar
    19    18    17   ar
    20    27    26   ar
    21    27    28   ar
    22    26    25   ar
    23    42    39    1
    24     5    14    1
    25     5     6   ar
    26    39    38   ar
    27    14    15   ar
    28    36    28    1
    29    36    37   ar
    30     2     8    1
    31     2     1   ar
    32    28    29   ar
    33    17    25    1
    34    17    16   ar
    35    25    24   ar
    36    15    16   ar
    37    15    19    1
    38    29    24   ar
    39    16    22    1
    40    24    32    1
    41     6     1   ar
    42     1    10    1
    43    22    23    1
    44    38    37   ar
    45    38    45    1
    46    32    31    3
    47    37    41    1
    48    46    45    1
    49    10     9    3
