@<TRIPOS>MOLECULE
mol_data/opt/b3lyp/geoms/mol2/6df6df6df-6df.out
 46 49 0 0 0
SMALL
GASTEIGER

@<TRIPOS>ATOM
      1 C          -4.6174   -2.2968   -0.1184 C.ar    1  LIG1        0.1410
      2 C          -3.2224   -2.4205   -0.0108 C.ar    1  LIG1       -0.0223
      3 C          -2.4649   -1.2684    0.1242 C.ar    1  LIG1       -0.0154
      4 C          -3.1106   -0.0281    0.1389 C.ar    1  LIG1        0.1429
      5 C          -4.5189    0.0003    0.0066 C.ar    1  LIG1        0.1165
      6 N          -5.2450   -1.1148   -0.1074 N.ar    1  LIG1       -0.2326
      7 H          -1.3858   -1.3013    0.2266 H       1  LIG1        0.0655
      8 H          -2.7574   -3.3997   -0.0274 H       1  LIG1        0.0647
      9 N          -6.0602   -4.4470   -0.3831 N.1     1  LIG1       -0.1893
     10 C          -5.4357   -3.4744   -0.2609 C.1     1  LIG1        0.1191
     11 O          -2.3412    1.0760    0.2880 O.3     1  LIG1       -0.5046
     12 H          -2.8989    1.8614    0.3902 H       1  LIG1        0.2922
     13 C          -6.3874    1.5194    0.8253 C.ar    1  LIG1        0.1502
     14 C          -5.2719    1.2844   -0.0130 C.ar    1  LIG1        0.0433
     15 C          -4.9330    2.3124   -0.8888 C.ar    1  LIG1       -0.0060
     16 C          -5.6632    3.5083   -0.9338 C.ar    1  LIG1        0.1435
     17 C          -6.7736    3.6407   -0.0599 C.ar    1  LIG1        0.1166
     18 N          -7.0986    2.6464    0.7805 N.ar    1  LIG1       -0.2319
     19 H          -4.1179    2.2017   -1.5973 H       1  LIG1        0.0662
     20 N          -7.1600   -0.1738    2.6460 N.1     1  LIG1       -0.1893
     21 C          -6.8135    0.5584    1.8130 C.1     1  LIG1        0.1198
     22 O          -5.2851    4.3823   -1.8907 O.3     1  LIG1       -0.5046
     23 H          -5.3768    5.3066   -1.6104 H       1  LIG1        0.2922
     24 C          -7.4311    6.1494   -0.0729 C.ar    1  LIG1        0.1502
     25 C          -7.7454    4.7741   -0.0398 C.ar    1  LIG1        0.0433
     26 C          -9.1024    4.4616    0.0948 C.ar    1  LIG1       -0.0060
     27 C         -10.0614    5.4685    0.1379 C.ar    1  LIG1        0.1435
     28 C          -9.6426    6.8182    0.0085 C.ar    1  LIG1        0.1166
     29 N          -8.3509    7.1271   -0.0550 N.ar    1  LIG1       -0.2319
     30 H          -9.3909    3.4198    0.1920 H       1  LIG1        0.0662
     31 N          -4.9447    6.9087   -0.1666 N.1     1  LIG1       -0.1893
     32 C          -6.0659    6.5988   -0.1039 C.1     1  LIG1        0.1198
     33 O         -11.3738    5.2319    0.3311 O.3     1  LIG1       -0.5046
     34 H         -11.5617    4.2839    0.2828 H       1  LIG1        0.2922
     35 C         -11.7126    8.0324   -0.8713 C.ar    1  LIG1        0.1495
     36 C         -10.6005    7.9578   -0.0001 C.ar    1  LIG1        0.0432
     37 C         -10.3725    9.0389    0.8502 C.ar    1  LIG1       -0.0066
     38 C         -11.2572   10.1169    0.8385 C.ar    1  LIG1        0.1356
     39 C         -12.3483   10.0755   -0.0439 C.ar    1  LIG1        0.0705
     40 N         -12.5629    9.0701   -0.8838 N.ar    1  LIG1       -0.2403
     41 H          -9.5175    9.0459    1.5163 H       1  LIG1        0.0662
     42 H         -13.0646   10.8973   -0.0721 H       1  LIG1        0.0867
     43 N         -12.1337    6.1936   -2.6656 N.1     1  LIG1       -0.1893
     44 C         -11.9608    7.0124   -1.8587 C.1     1  LIG1        0.1198
     45 O         -11.0233   11.1510    1.6811 O.3     1  LIG1       -0.5052
     46 H         -11.7044   11.8287    1.5675 H       1  LIG1        0.2922
@<TRIPOS>BOND
     1    43    44    3
     2    22    23    1
     3    22    16    1
     4    44    35    1
     5    19    15    1
     6    16    15   ar
     7    16    17   ar
     8    15    14   ar
     9    40    35   ar
    10    40    39   ar
    11    35    36   ar
    12     9    10    3
    13    10     1    1
    14    31    32    3
    15     1     6   ar
    16     1     2   ar
    17     6     5   ar
    18    32    24    1
    19    24    29   ar
    20    24    25   ar
    21    42    39    1
    22    17    25    1
    23    17    18   ar
    24    29    28   ar
    25    39    38   ar
    26    25    26   ar
    27     8     2    1
    28    14     5    1
    29    14    13   ar
    30     2     3   ar
    31    36    28    1
    32    36    37   ar
    33     5     4   ar
    34    28    27   ar
    35    26    27   ar
    36    26    30    1
    37     3     4   ar
    38     3     7    1
    39    27    33    1
    40     4    11    1
    41    34    33    1
    42    11    12    1
    43    18    13   ar
    44    13    21    1
    45    38    37   ar
    46    38    45    1
    47    37    41    1
    48    46    45    1
    49    21    20    3
