@<TRIPOS>MOLECULE
mol_data/opt/b3lyp/geoms/mol2/6df6ia-12el-6ie12al-12fa-13id13li.out
 98 105 0 0 0
SMALL
GASTEIGER

@<TRIPOS>ATOM
      1 C          -3.1360   -1.2980   -2.6559 C.ar    1  LIG1        0.1410
      2 C          -2.1205   -1.7266   -1.7884 C.ar    1  LIG1       -0.0223
      3 C          -2.0319   -1.1351   -0.5370 C.ar    1  LIG1       -0.0154
      4 C          -2.9436   -0.1333   -0.1966 C.ar    1  LIG1        0.1428
      5 C          -3.9230    0.2580   -1.1446 C.ar    1  LIG1        0.1154
      6 N          -4.0113   -0.3322   -2.3401 N.ar    1  LIG1       -0.2326
      7 H          -1.2815   -1.4353    0.1862 H       1  LIG1        0.0655
      8 H          -1.4326   -2.5076   -2.0922 H       1  LIG1        0.0647
      9 N          -3.3575   -2.4073   -5.0009 N.1     1  LIG1       -0.1893
     10 C          -3.2726   -1.9009   -3.9579 C.1     1  LIG1        0.1191
     11 O          -2.8506    0.4112    1.0406 O.3     1  LIG1       -0.5046
     12 H          -3.5919    1.0221    1.1754 H       1  LIG1        0.2922
     13 C          -6.2902    1.1875   -0.9429 C.ar    1  LIG1        0.0483
     14 C          -4.8850    1.3525   -0.8339 C.ar    1  LIG1        0.0250
     15 C          -4.4122    2.6131   -0.4400 C.ar    1  LIG1       -0.0486
     16 C          -5.2977    3.6478   -0.1703 C.ar    1  LIG1       -0.0320
     17 C          -6.6710    3.3905   -0.3037 C.ar    1  LIG1        0.1076
     18 N          -7.1400    2.1818   -0.6786 N.ar    1  LIG1       -0.2481
     19 H          -3.3419    2.7916   -0.3735 H       1  LIG1        0.0625
     20 C          -6.9138   -0.1211   -1.3581 C.3     1  LIG1       -0.0217
     21 H          -6.5276   -0.9577   -0.7665 H       1  LIG1        0.0293
     22 H          -6.6867   -0.3437   -2.4043 H       1  LIG1        0.0293
     23 H          -7.9946   -0.0532   -1.2285 H       1  LIG1        0.0293
     24 H          -4.9392    4.6264    0.1219 H       1  LIG1        0.0640
     25 C          -7.6712    4.4177   -0.0442 C.ar    1  LIG1        0.1728
     26 C          -7.6117    5.7507    0.3447 C.ar    1  LIG1        0.1142
     27 C          -8.9778    6.1951    0.4155 C.ar    1  LIG1        0.1818
     28 C          -9.7808    5.1255    0.0711 C.ar    1  LIG1        0.1801
     29 O          -8.9710    4.0588   -0.2083 O.2     1  LIG1       -0.4482
     30 C          -6.4740    6.5562    0.5937 C.1     1  LIG1       -0.0621
     31 C          -5.5240    7.2745    0.8149 C.1     1  LIG1       -0.1137
     32 H          -4.6889    7.9124    0.9922 H       1  LIG1        0.1232
     33 O          -9.4099    7.4506    0.7101 O.3     1  LIG1       -0.4901
     34 C          -9.1823    7.8777    2.0630 C.3     1  LIG1        0.0790
     35 H          -9.5812    8.8907    2.1299 H       1  LIG1        0.0660
     36 H          -9.7101    7.2261    2.7686 H       1  LIG1        0.0660
     37 H          -8.1142    7.8881    2.2987 H       1  LIG1        0.0660
     38 C         -11.8987    3.7197   -0.0767 C.ar    1  LIG1        0.0499
     39 C         -11.2209    4.9736   -0.0644 C.ar    1  LIG1        0.0432
     40 C         -12.0128    6.1229   -0.1837 C.ar    1  LIG1       -0.0316
     41 C         -13.4021    6.0459   -0.3169 C.ar    1  LIG1        0.0543
     42 C         -13.9873    4.7466   -0.3398 C.ar    1  LIG1        0.1217
     43 N         -13.2199    3.6438   -0.2137 N.ar    1  LIG1       -0.2468
     44 H         -11.5426    7.0982   -0.1742 H       1  LIG1        0.0638
     45 C         -11.1948    2.3939    0.0828 C.3     1  LIG1       -0.0216
     46 H         -10.5799    2.3720    0.9880 H       1  LIG1        0.0293
     47 H         -10.5155    2.1899   -0.7497 H       1  LIG1        0.0293
     48 H         -11.9504    1.6094    0.1435 H       1  LIG1        0.0293
     49 C         -14.1307    7.2676   -0.4275 C.1     1  LIG1       -0.0674
     50 C         -14.6832    8.3422   -0.5133 C.1     1  LIG1       -0.1138
     51 H         -15.1741    9.2846   -0.5914 H       1  LIG1        0.1232
     52 C         -15.4078    4.5060   -0.4921 C.ar    1  LIG1        0.1588
     53 C         -16.5185    5.3102   -0.6741 C.ar    1  LIG1        0.0283
     54 C         -17.6377    4.4468   -0.7610 C.ar    1  LIG1        0.1695
     55 C         -17.1573    3.1482   -0.6275 C.ar    1  LIG1        0.2156
     56 O         -15.8036    3.1966   -0.4654 O.2     1  LIG1       -0.4462
     57 H         -16.5138    6.3844   -0.7370 H       1  LIG1        0.0693
     58 O         -18.9453    4.7488   -0.9368 O.3     1  LIG1       -0.4912
     59 C         -19.2573    6.1286   -1.0640 C.3     1  LIG1        0.0790
     60 H         -20.3378    6.1837   -1.2008 H       1  LIG1        0.0660
     61 H         -18.9763    6.6884   -0.1625 H       1  LIG1        0.0660
     62 H         -18.7577    6.5743   -1.9338 H       1  LIG1        0.0660
     63 C         -17.7421    1.8460   -0.6195 C.ar    1  LIG1        0.2154
     64 C         -19.0117    1.3112   -0.7620 C.ar    1  LIG1        0.1665
     65 C         -18.8960   -0.1037   -0.6502 C.ar    1  LIG1        0.0280
     66 C         -17.5605   -0.3684   -0.4469 C.ar    1  LIG1        0.1558
     67 O         -16.8600    0.8021   -0.4265 O.2     1  LIG1       -0.4463
     68 O         -20.1402    2.0352   -0.9708 O.3     1  LIG1       -0.5031
     69 H         -20.8865    1.4274   -1.0442 H       1  LIG1        0.2923
     70 H         -19.6962   -0.8267   -0.7118 H       1  LIG1        0.0693
     71 C         -16.7673   -1.5458   -0.2537 C.ar    1  LIG1        0.0869
     72 C         -17.0847   -2.8970   -0.2155 C.ar    1  LIG1       -0.0041
     73 C         -15.8553   -3.5947    0.0201 C.ar    1  LIG1        0.0821
     74 C         -14.8182   -2.6502    0.1270 C.ar    1  LIG1        0.0848
     75 N         -15.4011   -1.4244   -0.0534 N.ar    1  LIG1       -0.3493
     76 H         -14.9438   -0.5346    0.0822 H       1  LIG1        0.1661
     77 C         -18.4341   -3.5188   -0.4024 C.3     1  LIG1       -0.0364
     78 H         -18.3628   -4.6084   -0.3721 H       1  LIG1        0.0279
     79 H         -18.8766   -3.2387   -1.3657 H       1  LIG1        0.0279
     80 H         -19.1346   -3.2080    0.3826 H       1  LIG1        0.0279
     81 N         -15.7299   -6.1727    0.0864 N.1     1  LIG1       -0.1908
     82 C         -15.7425   -5.0077    0.0645 C.1     1  LIG1        0.1016
     83 C         -13.3962   -2.7751    0.3306 C.ar    1  LIG1        0.1066
     84 C         -12.6203   -3.6913    1.0381 C.ar    1  LIG1        0.1496
     85 C         -11.2491   -3.3148    0.9311 C.ar    1  LIG1        0.0092
     86 C         -11.2228   -2.1732    0.1573 C.ar    1  LIG1        0.0087
     87 N         -12.5117   -1.8257   -0.1708 N.ar    1  LIG1       -0.3563
     88 H         -12.7467   -1.1837   -0.9121 H       1  LIG1        0.1655
     89 H         -10.3852   -1.5825   -0.1839 H       1  LIG1        0.0811
     90 O         -13.0578   -4.7920    1.7190 O.3     1  LIG1       -0.4927
     91 C         -13.7171   -4.5281    2.9594 C.3     1  LIG1        0.0789
     92 H         -13.9849   -5.5005    3.3757 H       1  LIG1        0.0660
     93 H         -13.0544   -3.9984    3.6558 H       1  LIG1        0.0660
     94 H         -14.6287   -3.9376    2.8129 H       1  LIG1        0.0660
     95 C         -10.0901   -4.0344    1.5513 C.3     1  LIG1       -0.0348
     96 H          -9.1393   -3.6072    1.2201 H       1  LIG1        0.0279
     97 H         -10.0978   -5.0959    1.2842 H       1  LIG1        0.0279
     98 H         -10.1150   -3.9811    2.6461 H       1  LIG1        0.0279
@<TRIPOS>BOND
     1     9    10    3
     2    10     1    1
     3     1     6   ar
     4     1     2   ar
     5    22    20    1
     6     6     5   ar
     7     8     2    1
     8    62    59    1
     9     2     3   ar
    10    79    77    1
    11    20    23    1
    12    20    13    1
    13    20    21    1
    14    60    59    1
    15     5    14    1
    16     5     4   ar
    17    59    58    1
    18    59    61    1
    19    69    68    1
    20    68    64    1
    21    13    14   ar
    22    13    18   ar
    23    58    54    1
    24    88    87    1
    25    14    15   ar
    26    64    65   ar
    27    64    63   ar
    28    54    53   ar
    29    54    55   ar
    30    47    45    1
    31    57    53    1
    32    70    65    1
    33    18    17   ar
    34    53    52   ar
    35    65    66   ar
    36    55    63    1
    37    55    56   ar
    38    63    67   ar
    39    51    50    1
    40     3     4   ar
    41     3     7    1
    42    50    49    3
    43    52    56   ar
    44    52    42    1
    45    66    67   ar
    46    66    71    1
    47    15    19    1
    48    15    16   ar
    49    49    41    1
    50    77    78    1
    51    77    72    1
    52    77    80    1
    53    42    41   ar
    54    42    43   ar
    55    41    40   ar
    56    17    16   ar
    57    17    25    1
    58    71    72   ar
    59    71    75   ar
    60    72    73   ar
    61    43    38   ar
    62    29    25   ar
    63    29    28   ar
    64     4    11    1
    65    89    86    1
    66    40    44    1
    67    40    39   ar
    68    87    86   ar
    69    87    83   ar
    70    16    24    1
    71    38    39   ar
    72    38    45    1
    73    39    28    1
    74    75    76    1
    75    75    74   ar
    76    25    26   ar
    77    73    82    1
    78    73    74   ar
    79    82    81    3
    80    28    27   ar
    81    45    48    1
    82    45    46    1
    83    74    83    1
    84    86    85   ar
    85    83    84   ar
    86    26    27   ar
    87    26    30    1
    88    27    33    1
    89    30    31    3
    90    33    34    1
    91    31    32    1
    92    85    84   ar
    93    85    95    1
    94    84    90    1
    95    11    12    1
    96    96    95    1
    97    97    95    1
    98    95    98    1
    99    90    91    1
   100    34    35    1
   101    34    37    1
   102    34    36    1
   103    94    91    1
   104    91    92    1
   105    91    93    1
