@<TRIPOS>MOLECULE
mol_data/opt/b3lyp/geoms/mol2/6df6df-4df6df.out
 47 50 0 0 0
SMALL
GASTEIGER

@<TRIPOS>ATOM
      1 C          -4.4367   -2.1933    0.4533 C.ar    1  LIG1        0.1410
      2 C          -3.1305   -2.4036   -0.0140 C.ar    1  LIG1       -0.0223
      3 C          -2.4290   -1.3053   -0.4764 C.ar    1  LIG1       -0.0154
      4 C          -3.0140   -0.0303   -0.4582 C.ar    1  LIG1        0.1429
      5 C          -4.3406    0.0882    0.0396 C.ar    1  LIG1        0.1165
      6 N          -5.0161   -0.9899    0.4681 N.ar    1  LIG1       -0.2326
      7 H          -1.4202   -1.3931   -0.8641 H       1  LIG1        0.0655
      8 H          -2.6951   -3.3965   -0.0117 H       1  LIG1        0.0647
      9 N          -5.8489   -4.2098    1.3018 N.1     1  LIG1       -0.1893
     10 C          -5.2285   -3.3004    0.9283 C.1     1  LIG1        0.1191
     11 O          -2.2804    0.9584   -1.0141 O.3     1  LIG1       -0.5046
     12 H          -2.3587    1.7995   -0.5362 H       1  LIG1        0.2922
     13 C          -4.7533    2.6232    0.4300 C.ar    1  LIG1        0.1502
     14 C          -5.1664    1.3329    0.0366 C.ar    1  LIG1        0.0433
     15 C          -6.5095    1.2172   -0.3392 C.ar    1  LIG1       -0.0060
     16 C          -7.3483    2.3257   -0.3483 C.ar    1  LIG1        0.1435
     17 C          -6.8200    3.5891    0.0266 C.ar    1  LIG1        0.1151
     18 N          -5.5526    3.6989    0.4136 N.ar    1  LIG1       -0.2320
     19 H          -6.8877    0.2386   -0.6186 H       1  LIG1        0.0662
     20 N          -2.3265    3.0008    1.2887 N.1     1  LIG1       -0.1893
     21 C          -3.4237    2.8605    0.9244 C.1     1  LIG1        0.1198
     22 O          -8.6495    2.2501   -0.7170 O.3     1  LIG1       -0.5046
     23 H          -8.8634    1.3449   -0.9847 H       1  LIG1        0.2922
     24 C          -7.0802    6.0394   -0.5152 C.ar    1  LIG1        0.0618
     25 C          -7.8479    7.2129   -0.4887 C.ar    1  LIG1       -0.0324
     26 C          -7.6228    4.8407    0.0053 C.ar    1  LIG1        0.0248
     27 C          -9.1391    7.2434    0.0384 C.ar    1  LIG1        0.0276
     28 H          -7.4322    8.1173   -0.9196 H       1  LIG1        0.0638
     29 C          -8.9119    4.8702    0.5394 C.ar    1  LIG1       -0.0090
     30 C          -9.6621    6.0480    0.5725 C.ar    1  LIG1        0.1253
     31 H          -9.3379    3.9624    0.9533 H       1  LIG1        0.0661
     32 N          -4.7725    6.2109   -1.6898 N.1     1  LIG1       -0.1908
     33 C          -5.7911    6.0979   -1.1391 C.1     1  LIG1        0.0998
     34 O         -10.8900    6.1035    1.1444 O.3     1  LIG1       -0.5061
     35 H         -11.2184    5.2106    1.3153 H       1  LIG1        0.2922
     36 C         -11.1827    8.6355   -0.5812 C.ar    1  LIG1        0.1480
     37 C          -9.9157    8.5110    0.0395 C.ar    1  LIG1        0.0250
     38 C          -9.3820    9.6557    0.6321 C.ar    1  LIG1       -0.0081
     39 C         -10.1061   10.8487    0.6049 C.ar    1  LIG1        0.1355
     40 C         -11.3607   10.8540   -0.0226 C.ar    1  LIG1        0.0705
     41 N         -11.8817    9.7798   -0.6042 N.ar    1  LIG1       -0.2404
     42 H          -8.4184    9.6274    1.1294 H       1  LIG1        0.0661
     43 H         -11.9568   11.7665   -0.0551 H       1  LIG1        0.0867
     44 N         -12.2548    6.6258   -1.8429 N.1     1  LIG1       -0.1893
     45 C         -11.7841    7.5235   -1.2737 C.1     1  LIG1        0.1197
     46 O          -9.5646   11.9428    1.1926 O.3     1  LIG1       -0.5052
     47 H         -10.1686   12.6937    1.1074 H       1  LIG1        0.2922
@<TRIPOS>BOND
     1    44    45    3
     2    32    33    3
     3    45    36    1
     4    33    24    1
     5    11    12    1
     6    11     4    1
     7    23    22    1
     8    28    25    1
     9     7     3    1
    10    22    16    1
    11    19    15    1
    12    41    36   ar
    13    41    40   ar
    14    36    37   ar
    15    24    25   ar
    16    24    26   ar
    17    25    27   ar
    18     3     4   ar
    19     3     2   ar
    20     4     5   ar
    21    16    15   ar
    22    16    17   ar
    23    15    14   ar
    24    43    40    1
    25    40    39   ar
    26     2     8    1
    27     2     1   ar
    28    26    17    1
    29    26    29   ar
    30    17    18   ar
    31    14     5    1
    32    14    13   ar
    33    27    37    1
    34    27    30   ar
    35    37    38   ar
    36     5     6   ar
    37    18    13   ar
    38    13    21    1
    39     1     6   ar
    40     1    10    1
    41    29    30   ar
    42    29    31    1
    43    30    34    1
    44    39    38   ar
    45    39    46    1
    46    38    42    1
    47    21    20    3
    48    10     9    3
    49    47    46    1
    50    34    35    1
