@<TRIPOS>MOLECULE
mol_data/opt/b3lyp/geoms/mol2/6df6df.out
 24 25 0 0 0
SMALL
GASTEIGER

@<TRIPOS>ATOM
      1 C          -4.4424   -2.0104   -0.6268 C.ar    1  LIG1        0.1410
      2 C          -3.1235   -2.0980   -0.1529 C.ar    1  LIG1       -0.0223
      3 C          -2.5527   -0.9758    0.4262 C.ar    1  LIG1       -0.0154
      4 C          -3.3044    0.1997    0.5104 C.ar    1  LIG1        0.1429
      5 C          -4.6212    0.1984   -0.0059 C.ar    1  LIG1        0.1165
      6 N          -5.1702   -0.8889   -0.5515 N.ar    1  LIG1       -0.2326
      7 H          -1.5434   -0.9867    0.8227 H       1  LIG1        0.0655
      8 H          -2.5730   -3.0283   -0.2369 H       1  LIG1        0.0647
      9 N          -5.5238   -4.1012   -1.7379 N.1     1  LIG1       -0.1893
     10 C          -5.0632   -3.1572   -1.2402 C.1     1  LIG1        0.1191
     11 O          -2.7257    1.2774    1.0929 O.3     1  LIG1       -0.5046
     12 H          -3.3746    1.9916    1.1797 H       1  LIG1        0.2922
     13 C          -6.7484    1.4284    0.6397 C.ar    1  LIG1        0.1495
     14 C          -5.4675    1.4257    0.0381 C.ar    1  LIG1        0.0432
     15 C          -5.0258    2.6182   -0.5411 C.ar    1  LIG1       -0.0066
     16 C          -5.8567    3.7415   -0.5221 C.ar    1  LIG1        0.1356
     17 C          -7.1151    3.6276    0.0871 C.ar    1  LIG1        0.0705
     18 N          -7.5460    2.5067    0.6548 N.ar    1  LIG1       -0.2403
     19 H          -4.0656    2.6779   -1.0443 H       1  LIG1        0.0662
     20 H          -7.7931    4.4811    0.1133 H       1  LIG1        0.0867
     21 N          -7.6663   -0.6504    1.9095 N.1     1  LIG1       -0.1893
     22 C          -7.2570    0.2640    1.3208 C.1     1  LIG1        0.1198
     23 O          -5.4080    4.8808   -1.0991 O.3     1  LIG1       -0.5052
     24 H          -6.0857    5.5691   -1.0422 H       1  LIG1        0.2922
@<TRIPOS>BOND
     1     9    10    3
     2    10     1    1
     3    23    24    1
     4    23    16    1
     5    19    15    1
     6     1     6   ar
     7     1     2   ar
     8     6     5   ar
     9    15    16   ar
    10    15    14   ar
    11    16    17   ar
    12     8     2    1
    13     2     3   ar
    14     5    14    1
    15     5     4   ar
    16    14    13   ar
    17    17    20    1
    18    17    18   ar
    19     3     4   ar
    20     3     7    1
    21     4    11    1
    22    13    18   ar
    23    13    22    1
    24    11    12    1
    25    22    21    3
