@<TRIPOS>MOLECULE
mol_data/opt/b3lyp/geoms/mol2/6df6df-.out
 24 25 0 0 0
SMALL
GASTEIGER

@<TRIPOS>ATOM
      1 C          -4.5189   -1.9988    0.4296 C.ar    1  LIG1        0.1410
      2 C          -3.2112   -2.1573   -0.0513 C.ar    1  LIG1       -0.0223
      3 C          -2.5554   -1.0285   -0.5106 C.ar    1  LIG1       -0.0154
      4 C          -3.1877    0.2218   -0.4748 C.ar    1  LIG1        0.1429
      5 C          -4.5133    0.2868    0.0338 C.ar    1  LIG1        0.1165
      6 N          -5.1443   -0.8183    0.4601 N.ar    1  LIG1       -0.2326
      7 H          -1.5480   -1.0756   -0.9092 H       1  LIG1        0.0655
      8 H          -2.7398   -3.1336   -0.0619 H       1  LIG1        0.0647
      9 N          -5.8440   -4.0765    1.2720 N.1     1  LIG1       -0.1893
     10 C          -5.2637   -3.1398    0.9019 C.1     1  LIG1        0.1191
     11 O          -2.5079    1.2527   -1.0313 O.3     1  LIG1       -0.5046
     12 H          -2.5127    2.0428   -0.4647 H       1  LIG1        0.2922
     13 C          -5.0040    2.8005    0.4497 C.ar    1  LIG1        0.1495
     14 C          -5.3827    1.5032    0.0439 C.ar    1  LIG1        0.0432
     15 C          -6.7214    1.3391   -0.3362 C.ar    1  LIG1       -0.0066
     16 C          -7.5861    2.4285   -0.3309 C.ar    1  LIG1        0.1356
     17 C          -7.0865    3.6851    0.0639 C.ar    1  LIG1        0.0705
     18 N          -5.8346    3.8614    0.4516 N.ar    1  LIG1       -0.2403
     19 H          -7.0660    0.3495   -0.6196 H       1  LIG1        0.0662
     20 H          -7.7456    4.5493    0.0650 H       1  LIG1        0.0867
     21 N          -2.5793    3.2394    1.2815 N.1     1  LIG1       -0.1893
     22 C          -3.6782    3.0687    0.9339 C.1     1  LIG1        0.1198
     23 O          -8.8884    2.3622   -0.6885 O.3     1  LIG1       -0.5052
     24 H          -9.1256    1.4517   -0.9136 H       1  LIG1        0.2922
@<TRIPOS>BOND
     1    11     4    1
     2    11    12    1
     3    24    23    1
     4     7     3    1
     5    23    16    1
     6    19    15    1
     7     3     4   ar
     8     3     2   ar
     9     4     5   ar
    10    15    16   ar
    11    15    14   ar
    12    16    17   ar
    13     8     2    1
    14     2     1   ar
    15     5    14    1
    16     5     6   ar
    17    14    13   ar
    18    17    20    1
    19    17    18   ar
    20     1     6   ar
    21     1    10    1
    22    13    18   ar
    23    13    22    1
    24    10     9    3
    25    22    21    3
