@<TRIPOS>MOLECULE
mol_data/opt/b3lyp/geoms/mol2/6df6df-6df.out
 35 37 0 0 0
SMALL
GASTEIGER

@<TRIPOS>ATOM
      1 C          -4.2960   -1.9629   -0.8146 C.ar    1  LIG1        0.1410
      2 C          -3.2063   -2.2934    0.0047 C.ar    1  LIG1       -0.0223
      3 C          -2.7344   -1.3214    0.8685 C.ar    1  LIG1       -0.0154
      4 C          -3.3288   -0.0521    0.8998 C.ar    1  LIG1        0.1429
      5 C          -4.4289    0.1922    0.0336 C.ar    1  LIG1        0.1165
      6 N          -4.8866   -0.7650   -0.7887 N.ar    1  LIG1       -0.2326
      7 H          -1.9033   -1.5079    1.5396 H       1  LIG1        0.0655
      8 H          -2.7572   -3.2791   -0.0429 H       1  LIG1        0.0647
      9 N          -5.2693   -3.7424   -2.4478 N.1     1  LIG1       -0.1893
     10 C          -4.8443   -2.9374   -1.7249 C.1     1  LIG1        0.1191
     11 O          -2.8565    0.8023    1.8374 O.3     1  LIG1       -0.5046
     12 H          -2.7271    1.6991    1.4878 H       1  LIG1        0.2922
     13 C          -4.7882    2.7634    0.0309 C.ar    1  LIG1        0.1502
     14 C          -5.2602    1.4335    0.0121 C.ar    1  LIG1        0.0433
     15 C          -6.6463    1.2827   -0.1038 C.ar    1  LIG1       -0.0060
     16 C          -7.4817    2.3940   -0.1424 C.ar    1  LIG1        0.1435
     17 C          -6.9079    3.6856   -0.0224 C.ar    1  LIG1        0.1166
     18 N          -5.5881    3.8416    0.0211 N.ar    1  LIG1       -0.2319
     19 H          -7.0555    0.2812   -0.1909 H       1  LIG1        0.0662
     20 N          -2.2308    3.2368    0.0700 N.1     1  LIG1       -0.1893
     21 C          -3.3807    3.0541    0.0330 C.1     1  LIG1        0.1198
     22 O          -8.8156    2.3103   -0.3225 O.3     1  LIG1       -0.5046
     23 H          -9.1100    1.3904   -0.2654 H       1  LIG1        0.2922
     24 C          -8.8172    5.1307    0.8745 C.ar    1  LIG1        0.1495
     25 C          -7.7260    4.9292   -0.0033 C.ar    1  LIG1        0.0432
     26 C          -7.3777    5.9800   -0.8510 C.ar    1  LIG1       -0.0066
     27 C          -8.1296    7.1542   -0.8305 C.ar    1  LIG1        0.1356
     28 C          -9.2133    7.2378    0.0578 C.ar    1  LIG1        0.0705
     29 N          -9.5400    6.2610    0.8953 N.ar    1  LIG1       -0.2403
     30 H          -6.5310    5.8891   -1.5216 H       1  LIG1        0.0662
     31 H          -9.8280    8.1379    0.0929 H       1  LIG1        0.0867
     32 N          -9.4477    3.3530    2.6693 N.1     1  LIG1       -0.1893
     33 C          -9.1798    4.1449    1.8615 C.1     1  LIG1        0.1198
     34 O          -7.7810    8.1573   -1.6714 O.3     1  LIG1       -0.5052
     35 H          -8.3784    8.9088   -1.5520 H       1  LIG1        0.2922
@<TRIPOS>BOND
     1     9    10    3
     2    10     1    1
     3    34    35    1
     4    34    27    1
     5    30    26    1
     6    26    27   ar
     7    26    25   ar
     8    27    28   ar
     9     1     6   ar
    10     1     2   ar
    11     6     5   ar
    12    22    23    1
    13    22    16    1
    14    19    15    1
    15    16    15   ar
    16    16    17   ar
    17    15    14   ar
    18     8     2    1
    19    17    25    1
    20    17    18   ar
    21    25    24   ar
    22     2     3   ar
    23    14    13   ar
    24    14     5    1
    25    18    13   ar
    26    13    21    1
    27    21    20    3
    28     5     4   ar
    29    28    31    1
    30    28    29   ar
    31     3     4   ar
    32     3     7    1
    33    24    29   ar
    34    24    33    1
    35     4    11    1
    36    12    11    1
    37    33    32    3
