@<TRIPOS>MOLECULE
mol_data/opt/b3lyp/geoms/mol2/6df6df-6df-6df-.out
 46 49 0 0 0
SMALL
GASTEIGER

@<TRIPOS>ATOM
      1 C          -4.4915   -2.2073    0.3814 C.ar    1  LIG1        0.1410
      2 C          -3.1760   -2.4246   -0.0562 C.ar    1  LIG1       -0.0223
      3 C          -2.4494   -1.3259   -0.4766 C.ar    1  LIG1       -0.0154
      4 C          -3.0181   -0.0435   -0.4461 C.ar    1  LIG1        0.1429
      5 C          -4.3553    0.0815    0.0212 C.ar    1  LIG1        0.1165
      6 N          -5.0553   -0.9971    0.4080 N.ar    1  LIG1       -0.2326
      7 H          -1.4322   -1.4186   -0.8405 H       1  LIG1        0.0655
      8 H          -2.7533   -3.4229   -0.0643 H       1  LIG1        0.0647
      9 N          -5.9570   -4.2205    1.1430 N.1     1  LIG1       -0.1893
     10 C          -5.3115   -3.3133    0.8089 C.1     1  LIG1        0.1191
     11 O          -2.2597    0.9460   -0.9648 O.3     1  LIG1       -0.5046
     12 H          -2.3241    1.7742   -0.4622 H       1  LIG1        0.2922
     13 C          -4.7487    2.6155    0.4485 C.ar    1  LIG1        0.1502
     14 C          -5.1674    1.3352    0.0263 C.ar    1  LIG1        0.0433
     15 C          -6.5056    1.2381   -0.3720 C.ar    1  LIG1       -0.0060
     16 C          -7.3329    2.3546   -0.3757 C.ar    1  LIG1        0.1435
     17 C          -6.7985    3.6051    0.0267 C.ar    1  LIG1        0.1166
     18 N          -5.5369    3.6985    0.4366 N.ar    1  LIG1       -0.2319
     19 H          -6.8881    0.2670   -0.6711 H       1  LIG1        0.0662
     20 N          -2.3338    2.9439    1.3588 N.1     1  LIG1       -0.1893
     21 C          -3.4259    2.8290    0.9715 C.1     1  LIG1        0.1198
     22 O          -8.6319    2.2974   -0.7638 O.3     1  LIG1       -0.5046
     23 H          -8.8493    1.3956   -1.0401 H       1  LIG1        0.2922
     24 C          -7.0506    6.0713   -0.4823 C.ar    1  LIG1        0.1502
     25 C          -7.5895    4.8621    0.0130 C.ar    1  LIG1        0.0433
     26 C          -8.8907    4.9148    0.5161 C.ar    1  LIG1       -0.0060
     27 C          -9.5893    6.1192    0.5358 C.ar    1  LIG1        0.1435
     28 C          -8.9565    7.2827    0.0398 C.ar    1  LIG1        0.1166
     29 N          -7.7215    7.2286   -0.4599 N.ar    1  LIG1       -0.2319
     30 H          -9.3570    4.0140    0.9027 H       1  LIG1        0.0662
     31 N          -4.7455    6.1694   -1.6892 N.1     1  LIG1       -0.1893
     32 C          -5.7580    6.1202   -1.1213 C.1     1  LIG1        0.1198
     33 O         -10.8528    6.2229    1.0255 O.3     1  LIG1       -0.5046
     34 H         -11.1323    5.3711    1.3890 H       1  LIG1        0.2922
     35 C          -8.9511    9.7699    0.5066 C.ar    1  LIG1        0.1495
     36 C          -9.6187    8.6143    0.0450 C.ar    1  LIG1        0.0432
     37 C         -10.9186    8.7766   -0.4433 C.ar    1  LIG1       -0.0066
     38 C         -11.4868   10.0479   -0.4777 C.ar    1  LIG1        0.1356
     39 C         -10.7275   11.1341   -0.0121 C.ar    1  LIG1        0.0705
     40 N          -9.5015   10.9963    0.4736 N.ar    1  LIG1       -0.2403
     41 H         -11.4755    7.9147   -0.7978 H       1  LIG1        0.0662
     42 H         -11.1516   12.1347   -0.0392 H       1  LIG1        0.0867
     43 N          -6.6113    9.6712    1.6440 N.1     1  LIG1       -0.1893
     44 C          -7.6436    9.7003    1.1108 C.1     1  LIG1        0.1198
     45 O         -12.7347   10.3072   -0.9421 O.3     1  LIG1       -0.5052
     46 H         -13.1564    9.4862   -1.2301 H       1  LIG1        0.2922
@<TRIPOS>BOND
     1    31    32    3
     2    46    45    1
     3    32    24    1
     4    23    22    1
     5    11    12    1
     6    11     4    1
     7    45    38    1
     8     7     3    1
     9    41    37    1
    10    22    16    1
    11    19    15    1
    12    24    29   ar
    13    24    25   ar
    14    38    37   ar
    15    38    39   ar
    16     3     4   ar
    17     3     2   ar
    18    29    28   ar
    19     4     5   ar
    20    37    36   ar
    21    16    15   ar
    22    16    17   ar
    23    15    14   ar
    24     8     2    1
    25     2     1   ar
    26    42    39    1
    27    39    40   ar
    28    25    17    1
    29    25    26   ar
    30     5    14    1
    31     5     6   ar
    32    14    13   ar
    33    17    18   ar
    34    28    36    1
    35    28    27   ar
    36    36    35   ar
    37     1     6   ar
    38     1    10    1
    39    18    13   ar
    40    13    21    1
    41    40    35   ar
    42    35    44    1
    43    26    27   ar
    44    26    30    1
    45    27    33    1
    46    10     9    3
    47    21    20    3
    48    33    34    1
    49    44    43    3
