@<TRIPOS>MOLECULE
mol_data/opt/b3lyp/geoms/mol2/6dg.out
 13 13 0 0 0
SMALL
GASTEIGER

@<TRIPOS>ATOM
      1 C          -4.5967   -2.0494    0.0001 C.ar    1  LIG1        0.1401
      2 C          -3.1951   -2.0498   -0.0000 C.ar    1  LIG1       -0.0248
      3 C          -2.5304   -0.8301   -0.0002 C.ar    1  LIG1       -0.0444
      4 C          -3.2808    0.3521   -0.0003 C.ar    1  LIG1        0.0230
      5 C          -4.6833    0.2378   -0.0002 C.ar    1  LIG1        0.0422
      6 N          -5.3299   -0.9229   -0.0000 N.ar    1  LIG1       -0.2436
      7 H          -1.4454   -0.7982   -0.0002 H       1  LIG1        0.0630
      8 H          -2.6480   -2.9860    0.0001 H       1  LIG1        0.0646
      9 H          -5.3067    1.1301   -0.0003 H       1  LIG1        0.0841
     10 N          -5.8645   -4.3235    0.0004 N.1     1  LIG1       -0.1893
     11 C          -5.3162   -3.2984    0.0002 C.1     1  LIG1        0.1191
     12 S          -2.4368    1.9142   -0.0005 S.3     1  LIG1       -0.1412
     13 H          -3.5415    2.6860   -0.0004 H       1  LIG1        0.1072
@<TRIPOS>BOND
     1    12    13    1
     2    12     4    1
     3     4     5   ar
     4     4     3   ar
     5     9     5    1
     6     7     3    1
     7     5     6   ar
     8     3     2   ar
     9     6     1   ar
    10     2     1   ar
    11     2     8    1
    12     1    11    1
    13    11    10    3
