@<TRIPOS>MOLECULE
mol_data/opt/b3lyp/geoms/mol2/6dh12fi-12ea6fe-.out
 46 49 0 0 0
SMALL
GASTEIGER

@<TRIPOS>ATOM
      1 C          -4.0650   -1.7350   -1.3762 C.ar    1  LIG1        0.1410
      2 C          -2.8212   -1.9360   -0.7585 C.ar    1  LIG1       -0.0240
      3 C          -2.3631   -0.9671    0.1158 C.ar    1  LIG1       -0.0362
      4 C          -3.1309    0.1827    0.3771 C.ar    1  LIG1        0.0542
      5 C          -4.3762    0.2976   -0.3180 C.ar    1  LIG1        0.1316
      6 N          -4.8118   -0.6471   -1.1600 N.ar    1  LIG1       -0.2313
      7 H          -1.4107   -1.0938    0.6237 H       1  LIG1        0.0637
      8 H          -2.2402   -2.8275   -0.9661 H       1  LIG1        0.0646
      9 N          -4.9564   -3.5273   -3.0402 N.1     1  LIG1       -0.1893
     10 C          -4.5793   -2.7159   -2.2972 C.1     1  LIG1        0.1191
     11 N          -2.7169    1.0924    1.3211 N.pl3   1  LIG1       -0.3562
     12 H          -1.7615    0.9924    1.6323 H       1  LIG1        0.1424
     13 H          -3.0177    2.0548    1.2206 H       1  LIG1        0.1424
     14 C          -5.2934    1.4243   -0.1315 C.ar    1  LIG1        0.1972
     15 C          -5.1769    2.7720    0.1327 C.ar    1  LIG1        0.1679
     16 C          -6.4787    3.3548    0.1511 C.ar    1  LIG1        0.0406
     17 C          -7.3291    2.3098   -0.1424 C.ar    1  LIG1        0.1784
     18 O          -6.6263    1.1531   -0.3082 O.2     1  LIG1       -0.4460
     19 O          -3.9937    3.4352    0.3301 O.3     1  LIG1       -0.5030
     20 H          -4.1823    4.3542    0.5617 H       1  LIG1        0.2923
     21 C          -6.7935    4.7820    0.4769 C.3     1  LIG1       -0.0325
     22 H          -7.8200    4.8879    0.8309 H       1  LIG1        0.0280
     23 H          -6.6838    5.4421   -0.3909 H       1  LIG1        0.0280
     24 H          -6.1359    5.1572    1.2725 H       1  LIG1        0.0280
     25 C          -8.7558    2.1948   -0.2673 C.ar    1  LIG1        0.1862
     26 C          -9.7798    3.0321   -0.6795 C.ar    1  LIG1        0.0740
     27 C         -10.9931    2.2738   -0.5607 C.ar    1  LIG1        0.0005
     28 C         -10.6557    1.0289   -0.1045 C.ar    1  LIG1        0.1422
     29 O          -9.2922    0.9813    0.0788 O.2     1  LIG1       -0.4503
     30 C          -9.6754    4.3448   -1.2039 C.1     1  LIG1       -0.0657
     31 C          -9.6279    5.4614   -1.6689 C.1     1  LIG1       -0.1138
     32 H          -9.5845    6.4378   -2.0933 H       1  LIG1        0.1232
     33 H         -11.9782    2.6283   -0.8219 H       1  LIG1        0.0668
     34 C         -10.8287   -1.4353    0.5061 C.ar    1  LIG1        0.2233
     35 C         -11.4197   -0.1710    0.2058 C.ar    1  LIG1        0.0797
     36 C         -12.8173   -0.1115    0.2089 C.ar    1  LIG1       -0.0291
     37 C         -13.5852   -1.2469    0.4886 C.ar    1  LIG1        0.0437
     38 C         -12.8793   -2.4327    0.7706 C.ar    1  LIG1        0.0468
     39 N         -11.5550   -2.5189    0.7800 N.ar    1  LIG1       -0.2196
     40 H         -13.3183    0.8275   -0.0004 H       1  LIG1        0.0639
     41 H         -13.4275   -3.3438    0.9993 H       1  LIG1        0.0843
     42 O          -9.5041   -1.6508    0.5420 O.3     1  LIG1       -0.4919
     43 H          -9.0147   -0.8383    0.3361 H       1  LIG1        0.2937
     44 C         -15.0107   -1.2119    0.4981 C.1     1  LIG1       -0.0681
     45 C         -16.2206   -1.1891    0.5077 C.1     1  LIG1       -0.1139
     46 H         -17.2858   -1.1726    0.5156 H       1  LIG1        0.1232
@<TRIPOS>BOND
     1     9    10    3
     2    10     1    1
     3    32    31    1
     4    31    30    3
     5     1     6   ar
     6     1     2   ar
     7    30    26    1
     8     6     5   ar
     9     8     2    1
    10    33    27    1
    11     2     3   ar
    12    26    27   ar
    13    26    25   ar
    14    27    28   ar
    15    23    21    1
    16     5    14    1
    17     5     4   ar
    18    18    17   ar
    19    18    14   ar
    20    25    17    1
    21    25    29   ar
    22    17    16   ar
    23    14    15   ar
    24    28    29   ar
    25    28    35    1
    26    40    36    1
    27     3     4   ar
    28     3     7    1
    29    15    16   ar
    30    15    19    1
    31    16    21    1
    32    35    36   ar
    33    35    34   ar
    34    36    37   ar
    35    19    20    1
    36    43    42    1
    37     4    11    1
    38    21    22    1
    39    21    24    1
    40    37    44    1
    41    37    38   ar
    42    44    45    3
    43    34    42    1
    44    34    39   ar
    45    45    46    1
    46    38    39   ar
    47    38    41    1
    48    13    11    1
    49    11    12    1
