@<TRIPOS>MOLECULE
mol_data/opt/b3lyp/geoms/mol2/6dh13ia-13fl13ae.out
 48 51 0 0 0
SMALL
GASTEIGER

@<TRIPOS>ATOM
      1 C          -4.4895   -2.0134    0.6247 C.ar    1  LIG1        0.1409
      2 C          -3.2084   -2.2698    0.1234 C.ar    1  LIG1       -0.0240
      3 C          -2.5397   -1.2325   -0.5127 C.ar    1  LIG1       -0.0362
      4 C          -3.1347    0.0315   -0.6196 C.ar    1  LIG1        0.0524
      5 C          -4.4007    0.2276    0.0163 C.ar    1  LIG1        0.1093
      6 N          -5.0593   -0.7996    0.5764 N.ar    1  LIG1       -0.2330
      7 H          -1.5659   -1.4042   -0.9634 H       1  LIG1        0.0637
      8 H          -2.7691   -3.2572    0.2072 H       1  LIG1        0.0646
      9 N          -5.8807   -3.9375    1.6914 N.1     1  LIG1       -0.1893
     10 C          -5.2647   -3.0696    1.2216 C.1     1  LIG1        0.1191
     11 N          -2.5198    1.0496   -1.3198 N.pl3   1  LIG1       -0.3563
     12 H          -1.8235    0.7659   -1.9945 H       1  LIG1        0.1424
     13 H          -3.1359    1.7786   -1.6533 H       1  LIG1        0.1424
     14 C          -5.1268    1.4986    0.0205 C.ar    1  LIG1        0.0702
     15 C          -4.7931    2.8589    0.1132 C.ar    1  LIG1       -0.0230
     16 C          -6.0141    3.5760    0.1874 C.ar    1  LIG1       -0.0313
     17 C          -7.0666    2.6649    0.1669 C.ar    1  LIG1        0.0674
     18 N          -6.5102    1.4163    0.0510 N.ar    1  LIG1       -0.3515
     19 H          -6.9562    0.5332    0.2564 H       1  LIG1        0.1660
     20 C          -3.4401    3.5078    0.2419 C.3     1  LIG1       -0.0376
     21 H          -3.5167    4.3782    0.9003 H       1  LIG1        0.0278
     22 H          -3.0456    3.8733   -0.7155 H       1  LIG1        0.0278
     23 H          -2.6935    2.8320    0.6617 H       1  LIG1        0.0278
     24 H          -6.1244    4.6480    0.2654 H       1  LIG1        0.0642
     25 C          -8.4874    2.8710    0.2290 C.ar    1  LIG1        0.1091
     26 C          -9.2263    3.9913    0.5680 C.ar    1  LIG1        0.1865
     27 C         -10.6065    3.6605    0.4833 C.ar    1  LIG1        0.1888
     28 C         -10.7133    2.3325    0.0989 C.ar    1  LIG1        0.1094
     29 N          -9.4123    1.8468   -0.0178 N.ar    1  LIG1       -0.3460
     30 H          -9.2047    1.1282   -0.6978 H       1  LIG1        0.1662
     31 O          -8.7303    5.1935    0.9697 O.3     1  LIG1       -0.5019
     32 H          -9.4589    5.6658    1.4005 H       1  LIG1        0.2924
     33 O         -11.6050    4.5275    0.8517 O.3     1  LIG1       -0.4895
     34 C         -12.0602    5.3770   -0.2108 C.3     1  LIG1        0.0791
     35 H         -12.8231    6.0286    0.2195 H       1  LIG1        0.0660
     36 H         -11.2412    5.9856   -0.6133 H       1  LIG1        0.0660
     37 H         -12.4977    4.7913   -1.0272 H       1  LIG1        0.0660
     38 C         -11.8594    1.4758   -0.0914 C.ar    1  LIG1        0.0678
     39 C         -13.1733    1.7489   -0.4269 C.ar    1  LIG1       -0.0194
     40 C         -13.8831    0.5069   -0.4741 C.ar    1  LIG1        0.0426
     41 C         -12.9712   -0.4924   -0.1611 C.ar    1  LIG1        0.0177
     42 N         -11.7561    0.0989    0.0528 N.ar    1  LIG1       -0.3583
     43 H         -10.9532   -0.3661    0.4471 H       1  LIG1        0.1654
     44 H         -13.1082   -1.5594   -0.0796 H       1  LIG1        0.0819
     45 H         -13.5898    2.7219   -0.6353 H       1  LIG1        0.0651
     46 C         -15.2540    0.3192   -0.7929 C.1     1  LIG1       -0.0682
     47 C         -16.4238    0.1704   -1.0661 C.1     1  LIG1       -0.1139
     48 H         -17.4532    0.0358   -1.3036 H       1  LIG1        0.1232
@<TRIPOS>BOND
     1    12    11    1
     2    13    11    1
     3    11     4    1
     4    48    47    1
     5    47    46    3
     6    37    34    1
     7     7     3    1
     8    46    40    1
     9    22    20    1
    10    30    29    1
    11    45    39    1
    12     4     3   ar
    13     4     5   ar
    14    36    34    1
    15     3     2   ar
    16    40    39   ar
    17    40    41   ar
    18    39    38   ar
    19    34    35    1
    20    34    33    1
    21    41    44    1
    22    41    42   ar
    23    38    42   ar
    24    38    28    1
    25    29    28   ar
    26    29    25   ar
    27     5    14    1
    28     5     6   ar
    29    14    18   ar
    30    14    15   ar
    31    18    17   ar
    32    18    19    1
    33    42    43    1
    34    28    27   ar
    35    15    16   ar
    36    15    20    1
    37     2     8    1
    38     2     1   ar
    39    17    16   ar
    40    17    25    1
    41    16    24    1
    42    25    26   ar
    43    20    23    1
    44    20    21    1
    45    27    26   ar
    46    27    33    1
    47    26    31    1
    48     6     1   ar
    49     1    10    1
    50    31    32    1
    51    10     9    3
