@<TRIPOS>MOLECULE
mol_data/opt/b3lyp/geoms/mol2/6dh4ia13lh-13fe-.out
 52 55 0 0 0
SMALL
GASTEIGER

@<TRIPOS>ATOM
      1 C          -3.6889   -1.9607    1.0533 C.ar    1  LIG1        0.1408
      2 C          -2.9598   -2.4140   -0.0534 C.ar    1  LIG1       -0.0240
      3 C          -2.9848   -1.6552   -1.2130 C.ar    1  LIG1       -0.0363
      4 C          -3.7196   -0.4602   -1.2467 C.ar    1  LIG1        0.0510
      5 C          -4.3952   -0.0596   -0.0553 C.ar    1  LIG1        0.0932
      6 N          -4.3880   -0.8126    1.0453 N.ar    1  LIG1       -0.2345
      7 H          -2.4493   -1.9861   -2.0988 H       1  LIG1        0.0637
      8 H          -2.4021   -3.3426   -0.0016 H       1  LIG1        0.0646
      9 N          -3.7157   -3.3874    3.2302 N.1     1  LIG1       -0.1893
     10 C          -3.7147   -2.7356    2.2667 C.1     1  LIG1        0.1191
     11 N          -3.7685    0.3147   -2.3877 N.pl3   1  LIG1       -0.3563
     12 H          -3.5560   -0.1447   -3.2612 H       1  LIG1        0.1424
     13 H          -4.5267    0.9813   -2.4404 H       1  LIG1        0.1424
     14 C          -4.6504    2.4822   -0.1204 C.ar    1  LIG1       -0.0406
     15 C          -5.4943    3.5937   -0.0707 C.ar    1  LIG1       -0.0490
     16 C          -5.2159    1.1892   -0.0126 C.ar    1  LIG1        0.0051
     17 C          -6.8873    3.4765    0.1027 C.ar    1  LIG1        0.0022
     18 H          -5.0663    4.5865   -0.1563 H       1  LIG1        0.0627
     19 C          -6.5987    1.0682    0.1896 C.ar    1  LIG1       -0.0516
     20 C          -7.4242    2.1829    0.2473 C.ar    1  LIG1       -0.0519
     21 H          -7.0216    0.0763    0.3174 H       1  LIG1        0.0624
     22 C          -3.1568    2.6900   -0.2396 C.3     1  LIG1       -0.0391
     23 H          -2.9080    3.7507   -0.1554 H       1  LIG1        0.0278
     24 H          -2.7675    2.3246   -1.1957 H       1  LIG1        0.0278
     25 H          -2.6212    2.1536    0.5508 H       1  LIG1        0.0278
     26 H          -8.4851    2.0506    0.4381 H       1  LIG1        0.0624
     27 C          -7.7399    4.6552    0.1338 C.ar    1  LIG1        0.0911
     28 C          -7.4519    6.0031    0.3124 C.ar    1  LIG1        0.1664
     29 C          -8.6573    6.7612    0.2300 C.ar    1  LIG1        0.0947
     30 C          -9.6810    5.8541   -0.0132 C.ar    1  LIG1        0.0916
     31 N          -9.1205    4.5713   -0.0182 N.ar    1  LIG1       -0.3485
     32 H          -9.5227    3.8468   -0.5967 H       1  LIG1        0.1661
     33 O          -6.2229    6.5623    0.5679 O.3     1  LIG1       -0.4911
     34 C          -5.9764    6.7975    1.9632 C.3     1  LIG1        0.0790
     35 H          -5.0046    7.2916    2.0278 H       1  LIG1        0.0660
     36 H          -6.7486    7.4442    2.3948 H       1  LIG1        0.0660
     37 H          -5.9446    5.8525    2.5176 H       1  LIG1        0.0660
     38 N          -8.7405    8.1328    0.4719 N.pl3   1  LIG1       -0.3534
     39 H          -7.8714    8.5981    0.2353 H       1  LIG1        0.1425
     40 H          -9.5255    8.5711   -0.0007 H       1  LIG1        0.1425
     41 C         -11.1001    6.0522   -0.1698 C.ar    1  LIG1        0.1081
     42 C         -11.8377    7.1183   -0.6541 C.ar    1  LIG1        0.1589
     43 C         -13.2304    6.7928   -0.5774 C.ar    1  LIG1        0.0840
     44 C         -13.3072    5.5112   -0.0446 C.ar    1  LIG1        0.0213
     45 N         -12.0335    5.0757    0.1797 N.ar    1  LIG1       -0.3554
     46 H         -11.7922    4.2566    0.7145 H       1  LIG1        0.1655
     47 H         -14.1699    4.9041    0.1799 H       1  LIG1        0.0820
     48 O         -11.3076    8.2785   -1.1473 O.3     1  LIG1       -0.5035
     49 H         -12.0466    8.8572   -1.3889 H       1  LIG1        0.2923
     50 C         -14.2698    7.6521   -1.0085 C.1     1  LIG1       -0.0645
     51 C         -15.0960    8.4506   -1.3957 C.1     1  LIG1       -0.1137
     52 H         -15.8491    9.1262   -1.7291 H       1  LIG1        0.1232
@<TRIPOS>BOND
     1    12    11    1
     2    13    11    1
     3    11     4    1
     4     7     3    1
     5    52    51    1
     6    51    50    3
     7    49    48    1
     8     4     3   ar
     9     4     5   ar
    10     3     2   ar
    11    24    22    1
    12    48    42    1
    13    50    43    1
    14    42    43   ar
    15    42    41   ar
    16    32    31    1
    17    43    44   ar
    18    22    23    1
    19    22    14    1
    20    22    25    1
    21    41    30    1
    22    41    45   ar
    23    18    15    1
    24    14    15   ar
    25    14    16   ar
    26    15    17   ar
    27     5    16    1
    28     5     6   ar
    29     2     8    1
    30     2     1   ar
    31    44    45   ar
    32    44    47    1
    33    31    30   ar
    34    31    27   ar
    35    30    29   ar
    36    16    19   ar
    37    40    38    1
    38    17    27    1
    39    17    20   ar
    40    27    28   ar
    41    45    46    1
    42    19    20   ar
    43    19    21    1
    44    29    28   ar
    45    29    38    1
    46    39    38    1
    47    20    26    1
    48    28    33    1
    49    33    34    1
    50     6     1   ar
    51     1    10    1
    52    34    35    1
    53    34    36    1
    54    34    37    1
    55    10     9    3
