@<TRIPOS>MOLECULE
mol_data/opt/b3lyp/geoms/mol2/6dh4ii-6ll6ad.out
 57 60 0 0 0
SMALL
GASTEIGER

@<TRIPOS>ATOM
      1 C          -3.3272   -1.4939    1.4226 C.ar    1  LIG1        0.1408
      2 C          -2.8676   -2.2102    0.3099 C.ar    1  LIG1       -0.0240
      3 C          -3.2185   -1.7619   -0.9538 C.ar    1  LIG1       -0.0363
      4 C          -4.0073   -0.6089   -1.0885 C.ar    1  LIG1        0.0510
      5 C          -4.3997    0.0683    0.1032 C.ar    1  LIG1        0.0933
      6 N          -4.0776   -0.3837    1.3144 N.ar    1  LIG1       -0.2345
      7 H          -2.8940   -2.3022   -1.8391 H       1  LIG1        0.0637
      8 H          -2.2608   -3.0993    0.4414 H       1  LIG1        0.0646
      9 N          -2.7243   -2.3260    3.8137 N.1     1  LIG1       -0.1893
     10 C          -3.0034   -1.9390    2.7529 C.1     1  LIG1        0.1191
     11 N          -4.3668   -0.1285   -2.3312 N.pl3   1  LIG1       -0.3563
     12 H          -4.3344   -0.7817   -3.1004 H       1  LIG1        0.1424
     13 H          -5.1554    0.5033   -2.3552 H       1  LIG1        0.1424
     14 C          -4.7910    2.5220   -0.4561 C.ar    1  LIG1       -0.0406
     15 C          -5.6765    3.6045   -0.4522 C.ar    1  LIG1       -0.0501
     16 C          -5.2611    1.2918    0.0471 C.ar    1  LIG1        0.0054
     17 C          -6.9915    3.5120    0.0229 C.ar    1  LIG1       -0.0095
     18 H          -5.3321    4.5606   -0.8381 H       1  LIG1        0.0627
     19 C          -6.5649    1.2066    0.5516 C.ar    1  LIG1       -0.0488
     20 C          -7.4499    2.2872    0.5526 C.ar    1  LIG1       -0.0419
     21 H          -6.8908    0.2603    0.9744 H       1  LIG1        0.0627
     22 C          -3.3718    2.7039   -0.9434 C.3     1  LIG1       -0.0391
     23 H          -3.1713    3.7546   -1.1688 H       1  LIG1        0.0278
     24 H          -3.1748    2.1203   -1.8490 H       1  LIG1        0.0278
     25 H          -2.6499    2.3782   -0.1871 H       1  LIG1        0.0278
     26 C          -8.8347    2.1275    1.1304 C.3     1  LIG1       -0.0391
     27 H          -8.9157    1.1954    1.6952 H       1  LIG1        0.0278
     28 H          -9.5907    2.1164    0.3388 H       1  LIG1        0.0278
     29 H          -9.0859    2.9536    1.8035 H       1  LIG1        0.0278
     30 C          -9.0179    4.8621   -0.7649 C.ar    1  LIG1        0.2232
     31 C          -7.8357    4.7392    0.0021 C.ar    1  LIG1        0.0474
     32 C          -7.4582    5.8737    0.7167 C.ar    1  LIG1       -0.0050
     33 C          -8.2285    7.0445    0.6874 C.ar    1  LIG1        0.1468
     34 C          -9.4044    7.0519   -0.0903 C.ar    1  LIG1        0.1178
     35 N          -9.7513    5.9588   -0.7995 N.ar    1  LIG1       -0.2086
     36 H          -6.5543    5.8265    1.3117 H       1  LIG1        0.0662
     37 O          -9.3917    3.7905   -1.5088 O.3     1  LIG1       -0.4792
     38 C         -10.5658    3.9322   -2.3129 C.3     1  LIG1        0.0804
     39 H         -10.6951    2.9679   -2.8058 H       1  LIG1        0.0660
     40 H         -11.4411    4.1673   -1.7011 H       1  LIG1        0.0660
     41 H         -10.4390    4.7221   -3.0592 H       1  LIG1        0.0660
     42 O          -7.8950    8.1810    1.3676 O.3     1  LIG1       -0.4929
     43 C          -6.6686    8.2146    2.0888 C.3     1  LIG1        0.0789
     44 H          -6.6006    9.2178    2.5104 H       1  LIG1        0.0660
     45 H          -6.6581    7.4795    2.9025 H       1  LIG1        0.0660
     46 H          -5.8101    8.0400    1.4292 H       1  LIG1        0.0660
     47 C         -11.1507    8.2978   -1.3629 C.ar    1  LIG1        0.0369
     48 C         -10.3154    8.2167   -0.2296 C.ar    1  LIG1        0.0234
     49 C         -10.4293    9.2471    0.7105 C.ar    1  LIG1       -0.0321
     50 C         -11.3438   10.2834    0.4775 C.ar    1  LIG1        0.0704
     51 C         -12.1166   10.2592   -0.6937 C.ar    1  LIG1        0.0449
     52 N         -12.0211    9.2828   -1.5978 N.ar    1  LIG1       -0.2613
     53 H          -9.8291    9.2496    1.6089 H       1  LIG1        0.0638
     54 H         -12.8291   11.0550   -0.8963 H       1  LIG1        0.0842
     55 H         -11.0951    7.5123   -2.1095 H       1  LIG1        0.0836
     56 N         -11.6140   12.2240    2.1808 N.1     1  LIG1       -0.1908
     57 C         -11.4915   11.3530    1.4195 C.1     1  LIG1        0.1007
@<TRIPOS>BOND
     1    12    11    1
     2    41    38    1
     3    39    38    1
     4    13    11    1
     5    11     4    1
     6    38    40    1
     7    38    37    1
     8    55    47    1
     9    24    22    1
    10     7     3    1
    11    52    47   ar
    12    52    51   ar
    13    37    30    1
    14    47    48   ar
    15    23    22    1
    16     4     3   ar
    17     4     5   ar
    18     3     2   ar
    19    22    14    1
    20    22    25    1
    21    54    51    1
    22    18    15    1
    23    35    30   ar
    24    35    34   ar
    25    30    31   ar
    26    51    50   ar
    27    14    15   ar
    28    14    16   ar
    29    15    17   ar
    30    48    34    1
    31    48    49   ar
    32    34    33   ar
    33    31    17    1
    34    31    32   ar
    35    17    20   ar
    36    16     5    1
    37    16    19   ar
    38     5     6   ar
    39     2     8    1
    40     2     1   ar
    41    28    26    1
    42    50    49   ar
    43    50    57    1
    44    19    20   ar
    45    19    21    1
    46    20    26    1
    47    33    32   ar
    48    33    42    1
    49    49    53    1
    50    32    36    1
    51    26    27    1
    52    26    29    1
    53     6     1   ar
    54    42    43    1
    55    57    56    3
    56     1    10    1
    57    46    43    1
    58    43    44    1
    59    43    45    1
    60    10     9    3
