@<TRIPOS>MOLECULE
mol_data/opt/b3lyp/geoms/mol2/6dh6af12fd4df12il-12dh-4ha-13fh-.out
 92 99 0 0 0
SMALL
GASTEIGER

@<TRIPOS>ATOM
      1 C          -4.2294   -1.8783    0.0439 C.ar    1  LIG1        0.1408
      2 C          -2.8959   -2.0338   -0.3592 C.ar    1  LIG1       -0.0240
      3 C          -2.2060   -0.9102   -0.7813 C.ar    1  LIG1       -0.0363
      4 C          -2.8348    0.3464   -0.7863 C.ar    1  LIG1        0.0510
      5 C          -4.1811    0.4096   -0.3123 C.ar    1  LIG1        0.0946
      6 N          -4.8436   -0.6877    0.0646 N.ar    1  LIG1       -0.2345
      7 H          -1.1773   -0.9941   -1.1213 H       1  LIG1        0.0637
      8 H          -2.4270   -3.0114   -0.3500 H       1  LIG1        0.0646
      9 N          -5.6003   -3.9615    0.7895 N.1     1  LIG1       -0.1893
     10 C          -5.0008   -3.0206    0.4609 C.1     1  LIG1        0.1191
     11 N          -2.1482    1.4638   -1.2148 N.pl3   1  LIG1       -0.3563
     12 H          -1.3291    1.2941   -1.7810 H       1  LIG1        0.1424
     13 H          -2.6999    2.2520   -1.5225 H       1  LIG1        0.1424
     14 C          -6.3349    1.6576   -0.5412 C.ar    1  LIG1        0.0379
     15 C          -4.9574    1.6741   -0.2420 C.ar    1  LIG1        0.0238
     16 C          -4.4164    2.8978    0.1558 C.ar    1  LIG1       -0.0072
     17 C          -5.2198    4.0413    0.2403 C.ar    1  LIG1        0.1465
     18 C          -6.5892    3.9171   -0.1037 C.ar    1  LIG1        0.1509
     19 N          -7.1086    2.7297   -0.4807 N.ar    1  LIG1       -0.2474
     20 H          -3.3798    2.9963    0.4594 H       1  LIG1        0.0662
     21 H          -6.8070    0.7252   -0.8358 H       1  LIG1        0.0836
     22 O          -4.6067    5.1583    0.6924 O.3     1  LIG1       -0.5045
     23 H          -5.1534    5.9584    0.5883 H       1  LIG1        0.2922
     24 C          -7.5535    5.0145   -0.0408 C.ar    1  LIG1        0.1998
     25 C          -7.5053    6.3828    0.0738 C.ar    1  LIG1        0.1827
     26 C          -8.8502    6.8765    0.0945 C.ar    1  LIG1        0.1395
     27 C          -9.6651    5.7616   -0.0336 C.ar    1  LIG1        0.1581
     28 O          -8.8819    4.6605   -0.1121 O.2     1  LIG1       -0.4480
     29 O          -6.3760    7.1425    0.1373 O.3     1  LIG1       -0.5023
     30 H          -6.5986    8.0538    0.3839 H       1  LIG1        0.2923
     31 N          -9.2102    9.3665    0.6397 N.1     1  LIG1       -0.1906
     32 C          -9.1353    8.2370    0.3647 C.1     1  LIG1        0.1067
     33 C         -12.0614    6.4120   -0.5452 C.ar    1  LIG1        0.0633
     34 C         -13.4226    6.0883   -0.4602 C.ar    1  LIG1       -0.0295
     35 C         -11.0997    5.5164   -0.0164 C.ar    1  LIG1        0.0395
     36 C         -13.8857    4.9033    0.1241 C.ar    1  LIG1        0.0603
     37 H         -14.1384    6.7670   -0.9075 H       1  LIG1        0.0639
     38 C         -11.5536    4.3124    0.5411 C.ar    1  LIG1       -0.0075
     39 C         -12.9082    3.9984    0.6192 C.ar    1  LIG1        0.1283
     40 H         -10.8228    3.6160    0.9408 H       1  LIG1        0.0662
     41 N         -11.4413    8.5231   -1.9185 N.1     1  LIG1       -0.1908
     42 C         -11.6968    7.5832   -1.2812 C.1     1  LIG1        0.0999
     43 O         -13.3341    2.8524    1.1982 O.3     1  LIG1       -0.5060
     44 H         -12.5707    2.3300    1.4804 H       1  LIG1        0.2922
     45 C         -15.3159    4.6436    0.2053 C.ar    1  LIG1        0.1459
     46 C         -16.3961    5.4790    0.4144 C.ar    1  LIG1        0.0379
     47 C         -17.5421    4.6260    0.3914 C.ar    1  LIG1        0.1722
     48 C         -17.0979    3.3349    0.1681 C.ar    1  LIG1        0.2135
     49 O         -15.7369    3.3497    0.0608 O.2     1  LIG1       -0.4475
     50 C         -16.4123    6.9451    0.7238 C.3     1  LIG1       -0.0326
     51 H         -17.2320    7.1690    1.4128 H       1  LIG1        0.0280
     52 H         -16.5615    7.5601   -0.1722 H       1  LIG1        0.0280
     53 H         -15.4774    7.2652    1.1911 H       1  LIG1        0.0280
     54 O         -18.8259    4.9723    0.6654 O.3     1  LIG1       -0.4909
     55 C         -19.4935    5.7643   -0.3290 C.3     1  LIG1        0.0790
     56 H         -20.5206    5.8753    0.0172 H       1  LIG1        0.0660
     57 H         -19.0258    6.7496   -0.4342 H       1  LIG1        0.0660
     58 H         -19.4966    5.2520   -1.2963 H       1  LIG1        0.0660
     59 C         -17.7448    2.0623    0.0676 C.ar    1  LIG1        0.1934
     60 C         -19.0701    1.6526   -0.0320 C.ar    1  LIG1        0.1218
     61 C         -19.0569    0.2109   -0.1025 C.ar    1  LIG1        0.0894
     62 C         -17.7236   -0.1659   -0.0844 C.ar    1  LIG1        0.1594
     63 O         -16.9430    0.9772    0.0356 O.2     1  LIG1       -0.4483
     64 N         -21.2872    2.9520   -0.2218 N.1     1  LIG1       -0.1907
     65 C         -20.2567    2.4175   -0.1111 C.1     1  LIG1        0.1050
     66 N         -20.1803   -0.5871   -0.0790 N.pl3   1  LIG1       -0.3540
     67 H         -21.0351   -0.1205   -0.3530 H       1  LIG1        0.1425
     68 H         -20.0466   -1.5049   -0.5002 H       1  LIG1        0.1425
     69 C         -17.4579   -2.5794   -0.7493 C.ar    1  LIG1        0.0360
     70 C         -16.7869   -3.7945   -0.6163 C.ar    1  LIG1       -0.0311
     71 C         -17.0192   -1.4371   -0.0338 C.ar    1  LIG1        0.0398
     72 C         -15.6418   -3.9242    0.1891 C.ar    1  LIG1        0.0037
     73 H         -17.1402   -4.6572   -1.1717 H       1  LIG1        0.0643
     74 C         -15.8536   -1.5673    0.7449 C.ar    1  LIG1       -0.0486
     75 C         -15.1803   -2.7723    0.8608 C.ar    1  LIG1       -0.0517
     76 H         -15.4969   -0.6970    1.2856 H       1  LIG1        0.0625
     77 N         -18.5895   -2.4874   -1.5967 N.pl3   1  LIG1       -0.3574
     78 H         -18.5549   -1.6573   -2.1829 H       1  LIG1        0.1423
     79 H         -18.6946   -3.3098   -2.1803 H       1  LIG1        0.1423
     80 H         -14.3129   -2.8210    1.5127 H       1  LIG1        0.0624
     81 C         -14.9572   -5.2015    0.2881 C.ar    1  LIG1        0.0904
     82 C         -15.3171   -6.4801   -0.1276 C.ar    1  LIG1        0.1628
     83 C         -14.2879   -7.3921    0.2244 C.ar    1  LIG1        0.0848
     84 C         -13.2954   -6.6576    0.8513 C.ar    1  LIG1        0.0267
     85 N         -13.7119   -5.3563    0.8974 N.ar    1  LIG1       -0.3561
     86 H         -13.1347   -4.5875    1.1939 H       1  LIG1        0.1655
     87 H         -12.3408   -6.9591    1.2568 H       1  LIG1        0.0827
     88 O         -16.4618   -6.8587   -0.7558 O.3     1  LIG1       -0.5031
     89 H         -16.3656   -7.8230   -0.8661 H       1  LIG1        0.2923
     90 N         -14.4288   -8.7805   -0.0795 N.pl3   1  LIG1       -0.3540
     91 H         -13.6926   -9.1167   -0.6940 H       1  LIG1        0.1425
     92 H         -14.4212   -9.3600    0.7552 H       1  LIG1        0.1425
@<TRIPOS>BOND
     1    78    77    1
     2    79    77    1
     3    41    42    3
     4    12    11    1
     5    77    69    1
     6    13    11    1
     7    58    55    1
     8    42    33    1
     9    11     4    1
    10    73    70    1
    11     7     3    1
    12    37    34    1
    13    89    88    1
    14    21    14    1
    15     4     3   ar
    16     4     5   ar
    17     3     2   ar
    18    88    82    1
    19    69    70   ar
    20    69    71   ar
    21    91    90    1
    22    70    72   ar
    23    33    34   ar
    24    33    35   ar
    25    14    19   ar
    26    14    15   ar
    27    68    66    1
    28    19    18   ar
    29    34    36   ar
    30    57    55    1
    31     2     8    1
    32     2     1   ar
    33    67    66    1
    34    55    56    1
    35    55    54    1
    36     5    15    1
    37     5     6   ar
    38    15    16   ar
    39    64    65    3
    40    52    50    1
    41    82    83   ar
    42    82    81   ar
    43    28    24   ar
    44    28    27   ar
    45    65    60    1
    46    18    24    1
    47    18    17   ar
    48    61    62   ar
    49    61    66    1
    50    61    60   ar
    51    62    71    1
    52    62    63   ar
    53    90    83    1
    54    90    92    1
    55    24    25   ar
    56    71    74   ar
    57    27    35    1
    58    27    26   ar
    59    60    59   ar
    60    35    38   ar
    61    63    59   ar
    62     1     6   ar
    63     1    10    1
    64    49    48   ar
    65    49    45   ar
    66    59    48    1
    67    25    26   ar
    68    25    29    1
    69    26    32    1
    70    36    45    1
    71    36    39   ar
    72    29    30    1
    73    16    17   ar
    74    16    20    1
    75    48    47   ar
    76    72    81    1
    77    72    75   ar
    78    45    46   ar
    79    83    84   ar
    80    17    22    1
    81    81    85   ar
    82    32    31    3
    83    47    46   ar
    84    47    54    1
    85    46    50    1
    86    10     9    3
    87    38    39   ar
    88    38    40    1
    89    23    22    1
    90    39    43    1
    91    50    53    1
    92    50    51    1
    93    74    75   ar
    94    74    76    1
    95    84    85   ar
    96    84    87    1
    97    75    80    1
    98    85    86    1
    99    43    44    1
