@<TRIPOS>MOLECULE
mol_data/opt/b3lyp/geoms/mol2/6dh6dh-6dh.out
 38 40 0 0 0
SMALL
GASTEIGER

@<TRIPOS>ATOM
      1 C          -4.4832   -2.1116    0.4529 C.ar    1  LIG1        0.1408
      2 C          -3.1208   -2.2376    0.1413 C.ar    1  LIG1       -0.0240
      3 C          -2.4386   -1.1125   -0.2812 C.ar    1  LIG1       -0.0363
      4 C          -3.1002    0.1266   -0.3800 C.ar    1  LIG1        0.0511
      5 C          -4.4691    0.1600    0.0178 C.ar    1  LIG1        0.0958
      6 N          -5.1288   -0.9401    0.3886 N.ar    1  LIG1       -0.2344
      7 H          -1.3900   -1.1787   -0.5576 H       1  LIG1        0.0637
      8 H          -2.6245   -3.1982    0.2223 H       1  LIG1        0.0646
      9 N          -5.8340   -4.2171    1.1692 N.1     1  LIG1       -0.1893
     10 C          -5.2464   -3.2639    0.8554 C.1     1  LIG1        0.1191
     11 N          -2.4479    1.2079   -0.9278 N.pl3   1  LIG1       -0.3563
     12 H          -1.4384    1.1727   -0.9056 H       1  LIG1        0.1424
     13 H          -2.8059    2.1275   -0.7224 H       1  LIG1        0.1424
     14 C          -4.9896    2.6087    0.6367 C.ar    1  LIG1        0.1500
     15 C          -5.3100    1.3949   -0.0155 C.ar    1  LIG1        0.0398
     16 C          -6.5306    1.3524   -0.6794 C.ar    1  LIG1       -0.0270
     17 C          -7.3905    2.4619   -0.7168 C.ar    1  LIG1        0.0517
     18 C          -6.9718    3.6278   -0.0074 C.ar    1  LIG1        0.0958
     19 N          -5.7997    3.6773    0.6222 N.ar    1  LIG1       -0.2337
     20 H          -6.8182    0.4350   -1.1829 H       1  LIG1        0.0644
     21 N          -2.7821    2.8920    1.9872 N.1     1  LIG1       -0.1893
     22 C          -3.7795    2.7674    1.4006 C.1     1  LIG1        0.1198
     23 N          -8.5261    2.4183   -1.4879 N.pl3   1  LIG1       -0.3563
     24 H          -9.2655    3.0720   -1.2826 H       1  LIG1        0.1424
     25 H          -8.8706    1.4972   -1.7198 H       1  LIG1        0.1424
     26 C          -9.0953    4.9992    0.4773 C.ar    1  LIG1        0.1493
     27 C          -7.7547    4.9000    0.0385 C.ar    1  LIG1        0.0398
     28 C          -7.1101    6.0855   -0.3140 C.ar    1  LIG1       -0.0276
     29 C          -7.7890    7.3099   -0.2554 C.ar    1  LIG1        0.0436
     30 C          -9.1395    7.2745    0.1671 C.ar    1  LIG1        0.0497
     31 N          -9.7643    6.1676    0.5275 N.ar    1  LIG1       -0.2421
     32 H          -6.0694    6.0464   -0.6196 H       1  LIG1        0.0644
     33 H          -9.7148    8.1983    0.2197 H       1  LIG1        0.0849
     34 N         -10.4170    2.9088    1.2883 N.1     1  LIG1       -0.1893
     35 C          -9.8273    3.8505    0.9419 C.1     1  LIG1        0.1198
     36 N          -7.1753    8.5006   -0.5530 N.pl3   1  LIG1       -0.3568
     37 H          -6.3032    8.4817   -1.0579 H       1  LIG1        0.1424
     38 H          -7.7529    9.3093   -0.7231 H       1  LIG1        0.1424
@<TRIPOS>BOND
     1    25    23    1
     2    23    24    1
     3    23    17    1
     4    20    16    1
     5    37    36    1
     6    11    12    1
     7    11    13    1
     8    11     4    1
     9    38    36    1
    10    17    16   ar
    11    17    18   ar
    12    16    15   ar
    13    32    28    1
    14     7     3    1
    15    36    29    1
    16     4     3   ar
    17     4     5   ar
    18    28    29   ar
    19    28    27   ar
    20     3     2   ar
    21    29    30   ar
    22    15     5    1
    23    15    14   ar
    24    18    27    1
    25    18    19   ar
    26     5     6   ar
    27    27    26   ar
    28     2     8    1
    29     2     1   ar
    30    30    33    1
    31    30    31   ar
    32     6     1   ar
    33     1    10    1
    34    26    31   ar
    35    26    35    1
    36    19    14   ar
    37    14    22    1
    38    10     9    3
    39    35    34    3
    40    22    21    3
