@<TRIPOS>MOLECULE
mol_data/opt/b3lyp/geoms/mol2/6dh6dh.out
 26 27 0 0 0
SMALL
GASTEIGER

@<TRIPOS>ATOM
      1 C          -4.4208   -1.9379    0.8251 C.ar    1  LIG1        0.1408
      2 C          -3.1304   -2.0989    0.3001 C.ar    1  LIG1       -0.0240
      3 C          -2.5682   -1.0514   -0.4102 C.ar    1  LIG1       -0.0363
      4 C          -3.2909    0.1402   -0.5852 C.ar    1  LIG1        0.0511
      5 C          -4.5879    0.2035   -0.0058 C.ar    1  LIG1        0.0958
      6 N          -5.1282   -0.8090    0.6684 N.ar    1  LIG1       -0.2344
      7 H          -1.5736   -1.1474   -0.8368 H       1  LIG1        0.0637
      8 H          -2.5921   -3.0288    0.4463 H       1  LIG1        0.0646
      9 N          -5.4870   -3.8839    2.1840 N.1     1  LIG1       -0.1893
     10 C          -5.0331   -3.0035    1.5749 C.1     1  LIG1        0.1191
     11 N          -2.7446    1.2162   -1.2587 N.pl3   1  LIG1       -0.3563
     12 H          -1.9863    1.0065   -1.8924 H       1  LIG1        0.1424
     13 H          -3.3970    1.8961   -1.6229 H       1  LIG1        0.1424
     14 C          -6.6415    1.4295   -0.8535 C.ar    1  LIG1        0.1493
     15 C          -5.4288    1.4336   -0.1311 C.ar    1  LIG1        0.0398
     16 C          -5.0471    2.6222    0.4897 C.ar    1  LIG1       -0.0276
     17 C          -5.8729    3.7547    0.4116 C.ar    1  LIG1        0.0436
     18 C          -7.0692    3.6233   -0.3295 C.ar    1  LIG1        0.0497
     19 N          -7.4370    2.5098   -0.9440 N.ar    1  LIG1       -0.2421
     20 H          -4.1211    2.6595    1.0569 H       1  LIG1        0.0644
     21 H          -7.7456    4.4731   -0.4171 H       1  LIG1        0.0849
     22 N          -7.3946   -0.6686   -2.1966 N.1     1  LIG1       -0.1893
     23 C          -7.0681    0.2608   -1.5790 C.1     1  LIG1        0.1198
     24 N          -5.5690    4.9271    1.0631 N.pl3   1  LIG1       -0.3568
     25 H          -4.6179    5.0752    1.3634 H       1  LIG1        0.1424
     26 H          -6.0607    5.7632    0.7871 H       1  LIG1        0.1424
@<TRIPOS>BOND
     1    22    23    3
     2    12    11    1
     3    13    11    1
     4    23    14    1
     5    11     4    1
     6    19    14   ar
     7    19    18   ar
     8    14    15   ar
     9     7     3    1
    10     4     3   ar
    11     4     5   ar
    12    21    18    1
    13     3     2   ar
    14    18    17   ar
    15    15     5    1
    16    15    16   ar
    17     5     6   ar
    18     2     8    1
    19     2     1   ar
    20    17    16   ar
    21    17    24    1
    22    16    20    1
    23     6     1   ar
    24    26    24    1
    25     1    10    1
    26    24    25    1
    27    10     9    3
