@<TRIPOS>MOLECULE
mol_data/opt/b3lyp/geoms/mol2/6dh6al-12ef12dh.out
 47 50 0 0 0
SMALL
GASTEIGER

@<TRIPOS>ATOM
      1 C          -4.3611   -2.2206    0.1397 C.ar    1  LIG1        0.1408
      2 C          -2.9879   -2.2811   -0.1344 C.ar    1  LIG1       -0.0240
      3 C          -2.3315   -1.1026   -0.4480 C.ar    1  LIG1       -0.0363
      4 C          -3.0353    0.1120   -0.4721 C.ar    1  LIG1        0.0510
      5 C          -4.4210    0.0771   -0.1308 C.ar    1  LIG1        0.0946
      6 N          -5.0487   -1.0704    0.1407 N.ar    1  LIG1       -0.2345
      7 H          -1.2719   -1.1127   -0.6891 H       1  LIG1        0.0637
      8 H          -2.4626   -3.2293   -0.1127 H       1  LIG1        0.0646
      9 N          -5.6495   -4.4174    0.6765 N.1     1  LIG1       -0.1893
     10 C          -5.0919   -3.4248    0.4399 C.1     1  LIG1        0.1191
     11 N          -2.3829    1.2900   -0.7936 N.pl3   1  LIG1       -0.3563
     12 H          -1.5145    1.1816   -1.2995 H       1  LIG1        0.1424
     13 H          -2.9621    2.0352   -1.1557 H       1  LIG1        0.1424
     14 C          -6.5905    1.2386   -0.5696 C.ar    1  LIG1        0.0379
     15 C          -5.2702    1.2965   -0.0936 C.ar    1  LIG1        0.0238
     16 C          -4.8334    2.5139    0.4506 C.ar    1  LIG1       -0.0070
     17 C          -5.7021    3.6067    0.4779 C.ar    1  LIG1        0.1496
     18 C          -6.9887    3.4620   -0.0983 C.ar    1  LIG1        0.1487
     19 N          -7.4121    2.2839   -0.5832 N.ar    1  LIG1       -0.2475
     20 H          -3.8481    2.5874    0.8939 H       1  LIG1        0.0662
     21 H          -6.9783    0.3028   -0.9606 H       1  LIG1        0.0836
     22 O          -5.4188    4.7967    1.0556 O.3     1  LIG1       -0.4928
     23 C          -4.1250    5.0100    1.6032 C.3     1  LIG1        0.0789
     24 H          -4.1240    6.0387    1.9629 H       1  LIG1        0.0660
     25 H          -3.9256    4.3295    2.4400 H       1  LIG1        0.0660
     26 H          -3.3423    4.8911    0.8438 H       1  LIG1        0.0660
     27 C          -7.9395    4.5726   -0.1697 C.ar    1  LIG1        0.1765
     28 C          -7.8258    5.9286   -0.4394 C.ar    1  LIG1        0.1142
     29 C          -9.1660    6.4465   -0.4326 C.ar    1  LIG1        0.1822
     30 C         -10.0061    5.3756   -0.1647 C.ar    1  LIG1        0.2143
     31 O          -9.2426    4.2408   -0.0138 O.2     1  LIG1       -0.4449
     32 C          -6.6809    6.6939   -0.7678 C.1     1  LIG1       -0.0621
     33 C          -5.7382    7.3854   -1.0786 C.1     1  LIG1       -0.1137
     34 H          -4.9162    8.0006   -1.3617 H       1  LIG1        0.1232
     35 O          -9.3991    7.7483   -0.6548 O.3     1  LIG1       -0.5023
     36 H         -10.3454    7.9609   -0.7073 H       1  LIG1        0.2923
     37 C         -11.4164    5.2056    0.0125 C.ar    1  LIG1        0.1925
     38 C         -12.5147    6.0521   -0.1296 C.ar    1  LIG1        0.1212
     39 C         -13.6881    5.2738    0.2042 C.ar    1  LIG1        0.0812
     40 C         -13.2229    4.0298    0.5125 C.ar    1  LIG1        0.1146
     41 O         -11.8473    3.9906    0.4017 O.2     1  LIG1       -0.4565
     42 H         -13.6960    3.1135    0.8227 H       1  LIG1        0.1049
     43 N         -12.4692    8.5106   -0.8991 N.1     1  LIG1       -0.1907
     44 C         -12.4982    7.3971   -0.5450 C.1     1  LIG1        0.1049
     45 N         -14.9827    5.7754    0.2558 N.pl3   1  LIG1       -0.3545
     46 H         -15.1609    6.5317   -0.3928 H       1  LIG1        0.1424
     47 H         -15.7067    5.0715    0.2037 H       1  LIG1        0.1424
@<TRIPOS>BOND
     1    34    33    1
     2    12    11    1
     3    13    11    1
     4    33    32    3
     5    21    14    1
     6    43    44    3
     7    11     4    1
     8    32    28    1
     9    36    35    1
    10     7     3    1
    11    35    29    1
    12    19    14   ar
    13    19    18   ar
    14    14    15   ar
    15    44    38    1
    16     4     3   ar
    17     4     5   ar
    18     3     2   ar
    19    28    29   ar
    20    28    27   ar
    21    29    30   ar
    22    46    45    1
    23    27    18    1
    24    27    31   ar
    25    30    31   ar
    26    30    37    1
    27     2     8    1
    28     2     1   ar
    29     5    15    1
    30     5     6   ar
    31    38    37   ar
    32    38    39   ar
    33    18    17   ar
    34    15    16   ar
    35    37    41   ar
    36     1     6   ar
    37     1    10    1
    38    47    45    1
    39    39    45    1
    40    39    40   ar
    41    41    40   ar
    42    10     9    3
    43    16    17   ar
    44    16    20    1
    45    17    22    1
    46    40    42    1
    47    26    23    1
    48    22    23    1
    49    23    24    1
    50    23    25    1
