@<TRIPOS>MOLECULE
mol_data/opt/b3lyp/geoms/mol2/6dh6dh-6dh-6dh-.out
 50 53 0 0 0
SMALL
GASTEIGER

@<TRIPOS>ATOM
      1 C          -4.3163   -2.2032   -0.1705 C.ar    1  LIG1        0.1408
      2 C          -2.9728   -2.2547    0.2327 C.ar    1  LIG1       -0.0240
      3 C          -2.3344   -1.0706    0.5493 C.ar    1  LIG1       -0.0363
      4 C          -3.0302    0.1523    0.4786 C.ar    1  LIG1        0.0511
      5 C          -4.4103    0.0866    0.1230 C.ar    1  LIG1        0.0958
      6 N          -5.0074   -1.0563   -0.2198 N.ar    1  LIG1       -0.2344
      7 H          -1.2867   -1.0713    0.8361 H       1  LIG1        0.0637
      8 H          -2.4502   -3.2036    0.2812 H       1  LIG1        0.0646
      9 N          -5.5414   -4.3924   -0.8611 N.1     1  LIG1       -0.1893
     10 C          -5.0097   -3.4051   -0.5520 C.1     1  LIG1        0.1191
     11 N          -2.3618    1.3360    0.6639 N.pl3   1  LIG1       -0.3563
     12 H          -1.4970    1.2992    1.1832 H       1  LIG1        0.1424
     13 H          -2.8940    2.1765    0.8263 H       1  LIG1        0.1424
     14 C          -5.4768    2.2042    1.1057 C.ar    1  LIG1        0.1500
     15 C          -5.2826    1.2948    0.0399 C.ar    1  LIG1        0.0398
     16 C          -5.9959    1.5349   -1.1308 C.ar    1  LIG1       -0.0270
     17 C          -6.8362    2.6507   -1.2516 C.ar    1  LIG1        0.0517
     18 C          -6.9210    3.5208   -0.1265 C.ar    1  LIG1        0.0958
     19 N          -6.2648    3.2846    1.0041 N.ar    1  LIG1       -0.2337
     20 H          -5.8920    0.8404   -1.9587 H       1  LIG1        0.0644
     21 N          -4.3646    1.8142    3.4272 N.1     1  LIG1       -0.1893
     22 C          -4.8703    1.9948    2.3952 C.1     1  LIG1        0.1198
     23 N          -7.5582    2.8735   -2.4005 N.pl3   1  LIG1       -0.3563
     24 H          -7.8921    3.8101   -2.5746 H       1  LIG1        0.1424
     25 H          -7.2768    2.3674   -3.2272 H       1  LIG1        0.1424
     26 C          -7.1768    6.0322    0.0853 C.ar    1  LIG1        0.1500
     27 C          -7.7463    4.7620   -0.1584 C.ar    1  LIG1        0.0398
     28 C          -9.1151    4.7161   -0.3994 C.ar    1  LIG1       -0.0270
     29 C          -9.8938    5.8871   -0.3969 C.ar    1  LIG1        0.0517
     30 C          -9.2028    7.1183   -0.2034 C.ar    1  LIG1        0.0958
     31 N          -7.8961    7.1607    0.0568 N.ar    1  LIG1       -0.2337
     32 H          -9.6001    3.7564   -0.5546 H       1  LIG1        0.0644
     33 N          -4.6218    6.3230    0.4898 N.1     1  LIG1       -0.1893
     34 C          -5.7649    6.1870    0.3262 C.1     1  LIG1        0.1198
     35 N         -11.2608    5.8052   -0.4918 N.pl3   1  LIG1       -0.3563
     36 H         -11.7730    6.6372   -0.7395 H       1  LIG1        0.1424
     37 H         -11.6425    4.9614   -0.8936 H       1  LIG1        0.1424
     38 C         -10.6432    8.9160   -1.3230 C.ar    1  LIG1        0.1493
     39 C          -9.8834    8.4469   -0.2260 C.ar    1  LIG1        0.0398
     40 C          -9.7185    9.3090    0.8562 C.ar    1  LIG1       -0.0276
     41 C         -10.3169   10.5771    0.8480 C.ar    1  LIG1        0.0436
     42 C         -11.0855   10.9181   -0.2921 C.ar    1  LIG1        0.0497
     43 N         -11.2347   10.1260   -1.3393 N.ar    1  LIG1       -0.2421
     44 H          -9.1098    8.9896    1.6961 H       1  LIG1        0.0644
     45 H         -11.5803   11.8876   -0.3399 H       1  LIG1        0.0849
     46 N         -10.8980    7.4671   -3.4705 N.1     1  LIG1       -0.1893
     47 C         -10.7860    8.1312   -2.5213 C.1     1  LIG1        0.1198
     48 N         -10.1454   11.4703    1.8725 N.pl3   1  LIG1       -0.3568
     49 H         -10.7581   12.2684    1.9305 H       1  LIG1        0.1424
     50 H          -9.7712   11.1432    2.7491 H       1  LIG1        0.1424
@<TRIPOS>BOND
     1    46    47    3
     2    25    23    1
     3    24    23    1
     4    47    38    1
     5    23    17    1
     6    20    16    1
     7    43    38   ar
     8    43    42   ar
     9    38    39   ar
    10    17    16   ar
    11    17    18   ar
    12    16    15   ar
    13    37    35    1
    14     9    10    3
    15    36    35    1
    16    32    28    1
    17    10     1    1
    18    35    29    1
    19    28    29   ar
    20    28    27   ar
    21    29    30   ar
    22    45    42    1
    23    42    41   ar
    24    39    30    1
    25    39    40   ar
    26     6     1   ar
    27     6     5   ar
    28    30    31   ar
    29     1     2   ar
    30    27    18    1
    31    27    26   ar
    32    18    19   ar
    33    15     5    1
    34    15    14   ar
    35    31    26   ar
    36    26    34    1
    37     5     4   ar
    38     2     8    1
    39     2     3   ar
    40    34    33    3
    41     4     3   ar
    42     4    11    1
    43     3     7    1
    44    11    13    1
    45    11    12    1
    46    41    40   ar
    47    41    48    1
    48    40    44    1
    49    19    14   ar
    50    14    22    1
    51    48    49    1
    52    48    50    1
    53    22    21    3
