@<TRIPOS>MOLECULE
mol_data/opt/b3lyp/geoms/mol2/6dh6dh6dh6dh.out
 50 53 0 0 0
SMALL
GASTEIGER

@<TRIPOS>ATOM
      1 C          -2.2539   -0.7230    0.0534 C.ar    1  LIG1        0.1408
      2 C          -2.6751   -2.0491    0.2377 C.ar    1  LIG1       -0.0240
      3 C          -4.0310   -2.3021    0.3238 C.ar    1  LIG1       -0.0363
      4 C          -4.9576   -1.2447    0.2406 C.ar    1  LIG1        0.0511
      5 C          -4.4235    0.0717    0.1162 C.ar    1  LIG1        0.0958
      6 N          -3.1143    0.3021   -0.0041 N.ar    1  LIG1       -0.2344
      7 H          -4.3935   -3.3198    0.4372 H       1  LIG1        0.0637
      8 H          -1.9494   -2.8524    0.2993 H       1  LIG1        0.0646
      9 N           0.2831   -0.2011   -0.1946 N.1     1  LIG1       -0.1893
     10 C          -0.8545   -0.4157   -0.0822 C.1     1  LIG1        0.1191
     11 N          -6.3041   -1.5133    0.1964 N.pl3   1  LIG1       -0.3563
     12 H          -6.6041   -2.3969    0.5819 H       1  LIG1        0.1424
     13 H          -6.9494   -0.7601    0.3747 H       1  LIG1        0.1424
     14 C          -6.2366    1.6546    1.0199 C.ar    1  LIG1        0.1500
     15 C          -5.2770    1.2948    0.0435 C.ar    1  LIG1        0.0398
     16 C          -5.0810    2.1919   -0.9996 C.ar    1  LIG1       -0.0270
     17 C          -5.8328    3.3740   -1.1007 C.ar    1  LIG1        0.0517
     18 C          -6.8375    3.5860   -0.1089 C.ar    1  LIG1        0.0958
     19 N          -6.9861    2.7632    0.9259 N.ar    1  LIG1       -0.2337
     20 H          -4.3086    1.9801   -1.7321 H       1  LIG1        0.0644
     21 N          -6.6133    0.2153    3.1562 N.1     1  LIG1       -0.1893
     22 C          -6.4424    0.8679    2.2079 C.1     1  LIG1        0.1198
     23 N          -5.5427    4.2943   -2.0703 N.pl3   1  LIG1       -0.3563
     24 H          -4.9960    3.9881   -2.8607 H       1  LIG1        0.1424
     25 H          -6.2079    5.0220   -2.2762 H       1  LIG1        0.1424
     26 C          -8.5886    5.1182   -1.1877 C.ar    1  LIG1        0.1500
     27 C          -7.7422    4.7724   -0.1080 C.ar    1  LIG1        0.0398
     28 C          -7.8310    5.5603    1.0330 C.ar    1  LIG1       -0.0270
     29 C          -8.6877    6.6720    1.0906 C.ar    1  LIG1        0.0517
     30 C          -9.4286    6.9788   -0.0909 C.ar    1  LIG1        0.0958
     31 N          -9.3929    6.1909   -1.1631 N.ar    1  LIG1       -0.2337
     32 H          -7.2396    5.2902    1.9023 H       1  LIG1        0.0644
     33 N          -8.7288    3.6357   -3.3232 N.1     1  LIG1       -0.1893
     34 C          -8.6748    4.3013   -2.3702 C.1     1  LIG1        0.1198
     35 N          -8.8425    7.3592    2.2662 N.pl3   1  LIG1       -0.3563
     36 H          -8.1219    7.2414    2.9632 H       1  LIG1        0.1424
     37 H          -9.2284    8.2896    2.2352 H       1  LIG1        0.1424
     38 C          -9.9835    9.4824    0.0367 C.ar    1  LIG1        0.1493
     39 C         -10.3618    8.1400   -0.1975 C.ar    1  LIG1        0.0398
     40 C         -11.6735    7.9064   -0.6079 C.ar    1  LIG1       -0.0276
     41 C         -12.5732    8.9720   -0.7484 C.ar    1  LIG1        0.0436
     42 C         -12.0854   10.2676   -0.4501 C.ar    1  LIG1        0.0497
     43 N         -10.8406   10.5150   -0.0829 N.ar    1  LIG1       -0.2421
     44 H         -11.9817    6.8895   -0.8290 H       1  LIG1        0.0644
     45 H         -12.7492   11.1276   -0.5327 H       1  LIG1        0.0849
     46 N          -7.5340   10.0952    0.6686 N.1     1  LIG1       -0.1893
     47 C          -8.6297    9.8336    0.3762 C.1     1  LIG1        0.1198
     48 N         -13.8585    8.7885   -1.1894 N.pl3   1  LIG1       -0.3568
     49 H         -14.2442    7.8573   -1.1865 H       1  LIG1        0.1424
     50 H         -14.5255    9.5326   -1.0560 H       1  LIG1        0.1424
@<TRIPOS>BOND
     1    33    34    3
     2    24    23    1
     3    34    26    1
     4    25    23    1
     5    23    17    1
     6    20    16    1
     7    48    49    1
     8    48    50    1
     9    48    41    1
    10    26    31   ar
    11    26    27   ar
    12    31    30   ar
    13    17    16   ar
    14    17    18   ar
    15    16    15   ar
    16    44    40    1
    17    41    40   ar
    18    41    42   ar
    19    40    39   ar
    20    45    42    1
    21    42    43   ar
    22    39    30    1
    23    39    38   ar
    24     9    10    3
    25    18    27    1
    26    18    19   ar
    27    27    28   ar
    28    30    29   ar
    29    43    38   ar
    30    10     1    1
    31     6     1   ar
    32     6     5   ar
    33    38    47    1
    34    15     5    1
    35    15    14   ar
    36     1     2   ar
    37     5     4   ar
    38    11     4    1
    39    11    13    1
    40    11    12    1
    41     2     8    1
    42     2     3   ar
    43     4     3   ar
    44     3     7    1
    45    47    46    3
    46    19    14   ar
    47    14    22    1
    48    28    29   ar
    49    28    32    1
    50    29    35    1
    51    22    21    3
    52    37    35    1
    53    35    36    1
