@<TRIPOS>MOLECULE
mol_data/opt/b3lyp/geoms/mol2/6dh6dh-6dh6dh-.out
 50 53 0 0 0
SMALL
GASTEIGER

@<TRIPOS>ATOM
      1 C          -4.3727   -2.1529   -0.8256 C.ar    1  LIG1        0.1408
      2 C          -3.0366   -2.3081   -0.4252 C.ar    1  LIG1       -0.0240
      3 C          -2.3925   -1.2248    0.1414 C.ar    1  LIG1       -0.0363
      4 C          -3.0643    0.0032    0.2961 C.ar    1  LIG1        0.0511
      5 C          -4.3998    0.0737   -0.1992 C.ar    1  LIG1        0.0958
      6 N          -5.0256   -0.9895   -0.7102 N.ar    1  LIG1       -0.2344
      7 H          -1.3672   -1.3169    0.4886 H       1  LIG1        0.0637
      8 H          -2.5317   -3.2594   -0.5507 H       1  LIG1        0.0646
      9 N          -5.6605   -4.1851   -1.8165 N.1     1  LIG1       -0.1893
     10 C          -5.0999   -3.2643   -1.3802 C.1     1  LIG1        0.1191
     11 N          -2.4583    1.0314    0.9814 N.pl3   1  LIG1       -0.3563
     12 H          -1.4500    0.9942    1.0334 H       1  LIG1        0.1424
     13 H          -2.8018    1.9668    0.8296 H       1  LIG1        0.1424
     14 C          -4.8809    2.5687   -0.6421 C.ar    1  LIG1        0.1500
     15 C          -5.2461    1.3030   -0.1257 C.ar    1  LIG1        0.0398
     16 C          -6.5164    1.2051    0.4303 C.ar    1  LIG1       -0.0270
     17 C          -7.3828    2.3081    0.4945 C.ar    1  LIG1        0.0517
     18 C          -6.9126    3.5317   -0.0700 C.ar    1  LIG1        0.0958
     19 N          -5.6939    3.6337   -0.5968 N.ar    1  LIG1       -0.2337
     20 H          -6.8393    0.2472    0.8254 H       1  LIG1        0.0644
     21 N          -2.5757    2.9574   -1.7874 N.1     1  LIG1       -0.1893
     22 C          -3.6155    2.7890   -1.2927 C.1     1  LIG1        0.1198
     23 N          -8.5789    2.1956    1.1617 N.pl3   1  LIG1       -0.3563
     24 H          -9.3093    2.8538    0.9390 H       1  LIG1        0.1424
     25 H          -8.9281    1.2554    1.2851 H       1  LIG1        0.1424
     26 C          -8.9904    4.9679   -0.5954 C.ar    1  LIG1        0.1500
     27 C          -7.6896    4.8082   -0.0633 C.ar    1  LIG1        0.0398
     28 C          -7.0851    5.9514    0.4474 C.ar    1  LIG1       -0.0270
     29 C          -7.7383    7.1944    0.4518 C.ar    1  LIG1        0.0517
     30 C          -9.0389    7.2416   -0.1346 C.ar    1  LIG1        0.0958
     31 N          -9.6270    6.1479   -0.6146 N.ar    1  LIG1       -0.2337
     32 H          -6.0836    5.8731    0.8582 H       1  LIG1        0.0644
     33 N         -10.3010    2.9770   -1.6410 N.1     1  LIG1       -0.1893
     34 C          -9.7117    3.8749   -1.1926 C.1     1  LIG1        0.1198
     35 N          -7.1586    8.2676    1.0815 N.pl3   1  LIG1       -0.3563
     36 H          -6.1577    8.2230    1.2110 H       1  LIG1        0.1424
     37 H          -7.4832    9.1919    0.8440 H       1  LIG1        0.1424
     38 C          -9.4570    9.6936   -0.7941 C.ar    1  LIG1        0.1493
     39 C          -9.8754    8.4776   -0.2057 C.ar    1  LIG1        0.0398
     40 C         -11.1841    8.4187    0.2733 C.ar    1  LIG1       -0.0276
     41 C         -12.0229    9.5375    0.1918 C.ar    1  LIG1        0.0436
     42 C         -11.4769   10.7079   -0.3867 C.ar    1  LIG1        0.0497
     43 N         -10.2488   10.7809   -0.8690 N.ar    1  LIG1       -0.2421
     44 H         -11.5458    7.4883    0.6992 H       1  LIG1        0.0644
     45 H         -12.0841   11.6095   -0.4608 H       1  LIG1        0.0849
     46 N          -7.0955    9.9417   -1.8600 N.1     1  LIG1       -0.1893
     47 C          -8.1587    9.8346   -1.3991 C.1     1  LIG1        0.1198
     48 N         -13.3033    9.5285    0.6932 N.pl3   1  LIG1       -0.3568
     49 H         -13.9316   10.2534    0.3798 H       1  LIG1        0.1424
     50 H         -13.7441    8.6320    0.8357 H       1  LIG1        0.1424
@<TRIPOS>BOND
     1    46    47    3
     2     9    10    3
     3    21    22    3
     4    33    34    3
     5    47    38    1
     6    10     1    1
     7    22    14    1
     8    34    26    1
     9    43    38   ar
    10    43    42   ar
    11     1     6   ar
    12     1     2   ar
    13    38    39   ar
    14     6     5   ar
    15    14    19   ar
    16    14    15   ar
    17    31    26   ar
    18    31    30   ar
    19    19    18   ar
    20    26    27   ar
    21     8     2    1
    22    45    42    1
    23     2     3   ar
    24    42    41   ar
    25    39    30    1
    26    39    40   ar
    27     5    15    1
    28     5     4   ar
    29    30    29   ar
    30    15    16   ar
    31    18    27    1
    32    18    17   ar
    33    27    28   ar
    34     3     4   ar
    35     3     7    1
    36    41    40   ar
    37    41    48    1
    38    40    44    1
    39     4    11    1
    40    49    48    1
    41    16    17   ar
    42    16    20    1
    43    28    29   ar
    44    28    32    1
    45    29    35    1
    46    17    23    1
    47    48    50    1
    48    13    11    1
    49    37    35    1
    50    24    23    1
    51    11    12    1
    52    35    36    1
    53    23    25    1
