@<TRIPOS>MOLECULE
mol_data/opt/b3lyp/geoms/mol2/6dh6dh6dh6dh-.out
 50 53 0 0 0
SMALL
GASTEIGER

@<TRIPOS>ATOM
      1 C          -2.4461   -0.8030    1.0057 C.ar    1  LIG1        0.1408
      2 C          -2.6045   -1.9958    0.2825 C.ar    1  LIG1       -0.0240
      3 C          -3.6708   -2.0995   -0.5903 C.ar    1  LIG1       -0.0363
      4 C          -4.5793   -1.0322   -0.7326 C.ar    1  LIG1        0.0511
      5 C          -4.3679    0.1067    0.1004 C.ar    1  LIG1        0.0958
      6 N          -3.3122    0.2146    0.9095 N.ar    1  LIG1       -0.2344
      7 H          -3.8057   -2.9965   -1.1879 H       1  LIG1        0.0637
      8 H          -1.8963   -2.8082    0.4017 H       1  LIG1        0.0646
      9 N          -0.4030   -0.5163    2.5910 N.1     1  LIG1       -0.1893
     10 C          -1.3244   -0.6300    1.8904 C.1     1  LIG1        0.1191
     11 N          -5.5537   -1.0837   -1.6974 N.pl3   1  LIG1       -0.3563
     12 H          -5.8204   -1.9986   -2.0305 H       1  LIG1        0.1424
     13 H          -6.3243   -0.4359   -1.6464 H       1  LIG1        0.1424
     14 C          -6.6619    1.2444    0.3065 C.ar    1  LIG1        0.1500
     15 C          -5.2653    1.2992    0.0889 C.ar    1  LIG1        0.0398
     16 C          -4.7081    2.5616   -0.0949 C.ar    1  LIG1       -0.0270
     17 C          -5.5062    3.7134   -0.1007 C.ar    1  LIG1        0.0517
     18 C          -6.9064    3.5329    0.0880 C.ar    1  LIG1        0.0958
     19 N          -7.4429    2.3336    0.2896 N.ar    1  LIG1       -0.2337
     20 H          -3.6348    2.6433   -0.2352 H       1  LIG1        0.0644
     21 N          -7.8485   -1.0100    0.8439 N.1     1  LIG1       -0.1893
     22 C          -7.3288    0.0043    0.6109 C.1     1  LIG1        0.1198
     23 N          -4.9450    4.9612   -0.2609 N.pl3   1  LIG1       -0.3563
     24 H          -4.0056    4.9937   -0.6294 H       1  LIG1        0.1424
     25 H          -5.5466    5.7033   -0.5869 H       1  LIG1        0.1424
     26 C          -8.9832    4.6731   -0.8045 C.ar    1  LIG1        0.1500
     27 C          -7.8643    4.6741    0.0603 C.ar    1  LIG1        0.0398
     28 C          -7.7167    5.7759    0.8951 C.ar    1  LIG1       -0.0270
     29 C          -8.6588    6.8214    0.9021 C.ar    1  LIG1        0.0517
     30 C          -9.7896    6.6751    0.0475 C.ar    1  LIG1        0.0958
     31 N          -9.9004    5.6453   -0.7947 N.ar    1  LIG1       -0.2337
     32 H          -6.8630    5.8312    1.5649 H       1  LIG1        0.0644
     33 N          -9.2946    2.8362   -2.6224 N.1     1  LIG1       -0.1893
     34 C          -9.1666    3.6391   -1.7912 C.1     1  LIG1        0.1198
     35 N          -8.4147    7.9513    1.6484 N.pl3   1  LIG1       -0.3563
     36 H          -7.7745    7.8402    2.4224 H       1  LIG1        0.1424
     37 H          -9.2009    8.5376    1.8829 H       1  LIG1        0.1424
     38 C         -11.6404    8.1569    1.0501 C.ar    1  LIG1        0.1493
     39 C         -10.8960    7.6740   -0.0516 C.ar    1  LIG1        0.0398
     40 C         -11.2731    8.1177   -1.3192 C.ar    1  LIG1       -0.0276
     41 C         -12.3281    9.0272   -1.4705 C.ar    1  LIG1        0.0436
     42 C         -12.9703    9.4674   -0.2878 C.ar    1  LIG1        0.0497
     43 N         -12.6475    9.0427    0.9206 N.ar    1  LIG1       -0.2421
     44 H         -10.7471    7.7323   -2.1867 H       1  LIG1        0.0644
     45 H         -13.7880   10.1847   -0.3504 H       1  LIG1        0.0849
     46 N         -11.1677    7.3337    3.4735 N.1     1  LIG1       -0.1893
     47 C         -11.3967    7.6955    2.3912 C.1     1  LIG1        0.1198
     48 N         -12.7542    9.4522   -2.7023 N.pl3   1  LIG1       -0.3568
     49 H         -13.3530   10.2611   -2.7562 H       1  LIG1        0.1424
     50 H         -12.1646    9.2932   -3.5038 H       1  LIG1        0.1424
@<TRIPOS>BOND
     1    50    48    1
     2    49    48    1
     3    48    41    1
     4    33    34    3
     5    44    40    1
     6    12    11    1
     7    34    26    1
     8    11    13    1
     9    11     4    1
    10    41    40   ar
    11    41    42   ar
    12    40    39   ar
    13     7     3    1
    14    26    31   ar
    15    26    27   ar
    16    31    30   ar
    17     4     3   ar
    18     4     5   ar
    19    24    23    1
    20     3     2   ar
    21    25    23    1
    22    45    42    1
    23    42    43   ar
    24    23    17    1
    25    20    16    1
    26    17    16   ar
    27    17    18   ar
    28    16    15   ar
    29    39    30    1
    30    39    38   ar
    31    30    29   ar
    32    27    18    1
    33    27    28   ar
    34    18    19   ar
    35    15     5    1
    36    15    14   ar
    37     5     6   ar
    38     2     8    1
    39     2     1   ar
    40    19    14   ar
    41    14    22    1
    42    22    21    3
    43    28    29   ar
    44    28    32    1
    45    29    35    1
    46     6     1   ar
    47    43    38   ar
    48     1    10    1
    49    38    47    1
    50    35    37    1
    51    35    36    1
    52    10     9    3
    53    47    46    3
