@<TRIPOS>MOLECULE
mol_data/opt/b3lyp/geoms/mol2/6dh6dh6dh.out
 38 40 0 0 0
SMALL
GASTEIGER

@<TRIPOS>ATOM
      1 C          -3.0356   -1.0746    1.3424 C.ar    1  LIG1        0.1408
      2 C          -3.1053   -2.1826    0.4837 C.ar    1  LIG1       -0.0240
      3 C          -3.9196   -2.1012   -0.6302 C.ar    1  LIG1       -0.0363
      4 C          -4.6669   -0.9338   -0.8795 C.ar    1  LIG1        0.0511
      5 C          -4.5731    0.1100    0.0879 C.ar    1  LIG1        0.0958
      6 N          -3.7554    0.0371    1.1399 N.ar    1  LIG1       -0.2344
      7 H          -3.9746   -2.9289   -1.3314 H       1  LIG1        0.0637
      8 H          -2.5232   -3.0741    0.6891 H       1  LIG1        0.0646
      9 N          -1.4601   -1.1443    3.4120 N.1     1  LIG1       -0.1893
     10 C          -2.1718   -1.0976    2.4933 C.1     1  LIG1        0.1191
     11 N          -5.3729   -0.8057   -2.0503 N.pl3   1  LIG1       -0.3563
     12 H          -5.6298   -1.6590   -2.5246 H       1  LIG1        0.1424
     13 H          -6.0744   -0.0849   -2.1125 H       1  LIG1        0.1424
     14 C          -6.7351    1.4800   -0.1403 C.ar    1  LIG1        0.1500
     15 C          -5.3277    1.3935   -0.0238 C.ar    1  LIG1        0.0398
     16 C          -4.6349    2.5948    0.0678 C.ar    1  LIG1       -0.0270
     17 C          -5.2979    3.8310    0.0024 C.ar    1  LIG1        0.0517
     18 C          -6.7100    3.7965   -0.2039 C.ar    1  LIG1        0.0958
     19 N          -7.3850    2.6499   -0.2308 N.ar    1  LIG1       -0.2337
     20 H          -3.5605    2.5674    0.2196 H       1  LIG1        0.0644
     21 N          -8.2347   -0.6482   -0.1245 N.1     1  LIG1       -0.1893
     22 C          -7.5706    0.3074   -0.1236 C.1     1  LIG1        0.1198
     23 N          -4.6042    4.9949    0.2114 N.pl3   1  LIG1       -0.3563
     24 H          -3.6010    4.9544    0.1066 H       1  LIG1        0.1424
     25 H          -5.0104    5.8623   -0.1015 H       1  LIG1        0.1424
     26 C          -7.3404    6.0437   -1.2720 C.ar    1  LIG1        0.1493
     27 C          -7.5532    5.0240   -0.3157 C.ar    1  LIG1        0.0398
     28 C          -8.6530    5.1585    0.5303 C.ar    1  LIG1       -0.0276
     29 C          -9.4848    6.2829    0.4385 C.ar    1  LIG1        0.0436
     30 C          -9.1472    7.2537   -0.5357 C.ar    1  LIG1        0.0497
     31 N          -8.1243    7.1357   -1.3638 N.ar    1  LIG1       -0.2421
     32 H          -8.8607    4.3738    1.2508 H       1  LIG1        0.0644
     33 H          -9.7560    8.1514   -0.6380 H       1  LIG1        0.0849
     34 N          -5.4154    5.8665   -3.0152 N.1     1  LIG1       -0.1893
     35 C          -6.2855    5.9510   -2.2470 C.1     1  LIG1        0.1198
     36 N         -10.5993    6.4319    1.2235 N.pl3   1  LIG1       -0.3568
     37 H         -10.6967    5.8515    2.0419 H       1  LIG1        0.1424
     38 H         -11.0255    7.3433    1.2879 H       1  LIG1        0.1424
@<TRIPOS>BOND
     1    34    35    3
     2    12    11    1
     3    35    26    1
     4    13    11    1
     5    11     4    1
     6    31    26   ar
     7    31    30   ar
     8     7     3    1
     9    26    27   ar
    10     4     3   ar
    11     4     5   ar
    12    33    30    1
    13     3     2   ar
    14    30    29   ar
    15    27    18    1
    16    27    28   ar
    17    19    18   ar
    18    19    14   ar
    19    18    17   ar
    20    14    22    1
    21    14    15   ar
    22    21    22    3
    23    25    23    1
    24    15    16   ar
    25    15     5    1
    26    17    16   ar
    27    17    23    1
    28    16    20    1
    29     5     6   ar
    30    24    23    1
    31    29    28   ar
    32    29    36    1
    33     2     8    1
    34     2     1   ar
    35    28    32    1
    36     6     1   ar
    37    36    38    1
    38    36    37    1
    39     1    10    1
    40    10     9    3
