@<TRIPOS>MOLECULE
mol_data/opt/b3lyp/geoms/mol2/6dh6af12di6dd-.out
 46 49 0 0 0
SMALL
GASTEIGER

@<TRIPOS>ATOM
      1 C          -4.4125   -2.1946   -0.3287 C.ar    1  LIG1        0.1408
      2 C          -3.0132   -2.2445   -0.4149 C.ar    1  LIG1       -0.0240
      3 C          -2.3157   -1.0500   -0.4234 C.ar    1  LIG1       -0.0363
      4 C          -3.0029    0.1733   -0.3321 C.ar    1  LIG1        0.0510
      5 C          -4.4232    0.1169   -0.1972 C.ar    1  LIG1        0.0946
      6 N          -5.0864   -1.0430   -0.2228 N.ar    1  LIG1       -0.2345
      7 H          -1.2326   -1.0482   -0.5108 H       1  LIG1        0.0637
      8 H          -2.4994   -3.1966   -0.4862 H       1  LIG1        0.0646
      9 N          -5.7729   -4.4125   -0.3787 N.1     1  LIG1       -0.1893
     10 C          -5.1833   -3.4106   -0.3523 C.1     1  LIG1        0.1191
     11 N          -2.3020    1.3619   -0.3500 N.pl3   1  LIG1       -0.3563
     12 H          -1.3593    1.3158   -0.7101 H       1  LIG1        0.1424
     13 H          -2.8034    2.1904   -0.6369 H       1  LIG1        0.1424
     14 C          -6.5570    1.3414   -0.6565 C.ar    1  LIG1        0.0378
     15 C          -5.2753    1.3268   -0.0597 C.ar    1  LIG1        0.0238
     16 C          -4.9030    2.4519    0.6751 C.ar    1  LIG1       -0.0072
     17 C          -5.7727    3.5444    0.7703 C.ar    1  LIG1        0.1464
     18 C          -7.0040    3.4776    0.0881 C.ar    1  LIG1        0.1485
     19 N          -7.3815    2.3742   -0.5894 N.ar    1  LIG1       -0.2475
     20 H          -3.9705    2.4975    1.2266 H       1  LIG1        0.0662
     21 H          -6.8995    0.4699   -1.2052 H       1  LIG1        0.0836
     22 O          -5.3571    4.5779    1.5418 O.3     1  LIG1       -0.5045
     23 H          -6.0456    5.2518    1.6228 H       1  LIG1        0.2922
     24 C          -7.9714    4.5793    0.0874 C.ar    1  LIG1        0.1749
     25 C          -7.8735    5.9565   -0.0507 C.ar    1  LIG1        0.1025
     26 C          -9.2140    6.4897   -0.0447 C.ar    1  LIG1        0.0135
     27 C         -10.0279    5.3951    0.0928 C.ar    1  LIG1        0.1427
     28 O          -9.2774    4.2479    0.1749 O.2     1  LIG1       -0.4515
     29 N          -5.7387    7.3759   -0.3738 N.1     1  LIG1       -0.1907
     30 C          -6.6923    6.7223   -0.2342 C.1     1  LIG1        0.1033
     31 C          -9.5758    7.9388   -0.1485 C.3     1  LIG1       -0.0349
     32 H         -10.5981    8.1222    0.1897 H       1  LIG1        0.0279
     33 H          -9.4883    8.2999   -1.1797 H       1  LIG1        0.0279
     34 H          -8.9020    8.5479    0.4611 H       1  LIG1        0.0279
     35 C         -12.1051    4.3575    1.0959 C.ar    1  LIG1        0.1507
     36 C         -11.4782    5.2379    0.1776 C.ar    1  LIG1        0.0546
     37 C         -12.3214    5.9712   -0.6650 C.ar    1  LIG1       -0.0295
     38 C         -13.7069    5.8085   -0.5728 C.ar    1  LIG1        0.0706
     39 C         -14.2142    4.8845    0.3597 C.ar    1  LIG1        0.0464
     40 N         -13.4334    4.1815    1.1717 N.ar    1  LIG1       -0.2426
     41 H         -11.9020    6.6434   -1.4044 H       1  LIG1        0.0639
     42 H         -15.2850    4.7210    0.4436 H       1  LIG1        0.0843
     43 N         -10.7316    3.0504    2.8807 N.1     1  LIG1       -0.1893
     44 C         -11.3353    3.6182    2.0664 C.1     1  LIG1        0.1198
     45 N         -15.3167    7.1483   -2.1041 N.1     1  LIG1       -0.1908
     46 C         -14.5935    6.5471   -1.4204 C.1     1  LIG1        0.1007
@<TRIPOS>BOND
     1    45    46    3
     2    46    38    1
     3    41    37    1
     4    21    14    1
     5    33    31    1
     6    12    11    1
     7    37    38   ar
     8    37    36   ar
     9    14    19   ar
    10    14    15   ar
    11    13    11    1
    12    19    18   ar
    13    38    39   ar
    14     7     3    1
    15     8     2    1
    16     3     2   ar
    17     3     4   ar
    18     2     1   ar
    19     9    10    3
    20    29    30    3
    21    10     1    1
    22    11     4    1
    23     4     5   ar
    24     1     6   ar
    25    30    25    1
    26     6     5   ar
    27     5    15    1
    28    31    26    1
    29    31    32    1
    30    31    34    1
    31    15    16   ar
    32    25    26   ar
    33    25    24   ar
    34    26    27   ar
    35    24    18    1
    36    24    28   ar
    37    18    17   ar
    38    27    28   ar
    39    27    36    1
    40    36    35   ar
    41    39    42    1
    42    39    40   ar
    43    16    17   ar
    44    16    20    1
    45    17    22    1
    46    35    40   ar
    47    35    44    1
    48    22    23    1
    49    44    43    3
