@<TRIPOS>MOLECULE
mol_data/opt/b3lyp/geoms/mol2/6dh6dh-4dh6dh.out
 51 54 0 0 0
SMALL
GASTEIGER

@<TRIPOS>ATOM
      1 C          -4.4847   -2.2867   -0.0263 C.ar    1  LIG1        0.1408
      2 C          -3.0854   -2.3637    0.0521 C.ar    1  LIG1       -0.0240
      3 C          -2.3617   -1.1864    0.0679 C.ar    1  LIG1       -0.0363
      4 C          -3.0244    0.0556    0.0199 C.ar    1  LIG1        0.0511
      5 C          -4.4509    0.0237    0.0132 C.ar    1  LIG1        0.0958
      6 N          -5.1396   -1.1179   -0.0434 N.ar    1  LIG1       -0.2344
      7 H          -1.2760   -1.2097    0.0972 H       1  LIG1        0.0637
      8 H          -2.5895   -3.3274    0.0870 H       1  LIG1        0.0646
      9 N          -5.8912   -4.4719   -0.1565 N.1     1  LIG1       -0.1893
     10 C          -5.2779   -3.4856   -0.0941 C.1     1  LIG1        0.1191
     11 N          -2.3014    1.2158   -0.1036 N.pl3   1  LIG1       -0.3563
     12 H          -1.3394    1.1893    0.2015 H       1  LIG1        0.1424
     13 H          -2.7574    2.0941    0.0889 H       1  LIG1        0.1424
     14 C          -5.1921    2.2960    0.9543 C.ar    1  LIG1        0.1500
     15 C          -5.2894    1.2582   -0.0013 C.ar    1  LIG1        0.0398
     16 C          -6.2699    1.3971   -0.9797 C.ar    1  LIG1       -0.0270
     17 C          -7.0909    2.5317   -1.0292 C.ar    1  LIG1        0.0516
     18 C          -6.8721    3.5360   -0.0413 C.ar    1  LIG1        0.0943
     19 N          -5.9557    3.3971    0.9109 N.ar    1  LIG1       -0.2338
     20 H          -6.3922    0.6054   -1.7123 H       1  LIG1        0.0644
     21 N          -3.5399    2.1229    2.9592 N.1     1  LIG1       -0.1893
     22 C          -4.2867    2.2092    2.0713 C.1     1  LIG1        0.1198
     23 N          -8.0732    2.6484   -1.9863 N.pl3   1  LIG1       -0.3563
     24 H          -8.4267    3.5736   -2.1810 H       1  LIG1        0.1424
     25 H          -8.0038    2.0431   -2.7909 H       1  LIG1        0.1424
     26 C          -6.9707    6.0595   -0.0058 C.ar    1  LIG1        0.0617
     27 C          -7.7249    7.2381    0.0619 C.ar    1  LIG1       -0.0341
     28 C          -7.6429    4.8136   -0.0229 C.ar    1  LIG1        0.0213
     29 C          -9.1195    7.2337    0.1149 C.ar    1  LIG1        0.0068
     30 H          -7.2038    8.1894    0.0871 H       1  LIG1        0.0637
     31 C          -9.0341    4.8049    0.0073 C.ar    1  LIG1       -0.0300
     32 C          -9.7987    5.9877    0.0731 C.ar    1  LIG1        0.0331
     33 H          -9.5555    3.8519    0.0004 H       1  LIG1        0.0643
     34 N          -4.3965    6.2814   -0.2404 N.1     1  LIG1       -0.1908
     35 C          -5.5462    6.1548   -0.1100 C.1     1  LIG1        0.0998
     36 N         -11.1744    5.9014    0.0189 N.pl3   1  LIG1       -0.3575
     37 H         -11.7008    6.6893    0.3654 H       1  LIG1        0.1423
     38 H         -11.5712    5.0169    0.3033 H       1  LIG1        0.1423
     39 C         -10.6666    8.9350    1.2364 C.ar    1  LIG1        0.1479
     40 C          -9.8317    8.5426    0.1632 C.ar    1  LIG1        0.0215
     41 C          -9.6455    9.4671   -0.8660 C.ar    1  LIG1       -0.0291
     42 C         -10.2700   10.7225   -0.8204 C.ar    1  LIG1        0.0436
     43 C         -11.0949   10.9872    0.2983 C.ar    1  LIG1        0.0497
     44 N         -11.2845   10.1302    1.2866 N.ar    1  LIG1       -0.2422
     45 H          -9.0129    9.2036   -1.7088 H       1  LIG1        0.0643
     46 H         -11.6095   11.9443    0.3769 H       1  LIG1        0.0849
     47 N         -11.0904    7.3432    3.2520 N.1     1  LIG1       -0.1893
     48 C         -10.8926    8.0660    2.3620 C.1     1  LIG1        0.1197
     49 N         -10.0708   11.6732   -1.7901 N.pl3   1  LIG1       -0.3568
     50 H          -9.6871   11.3845   -2.6766 H       1  LIG1        0.1424
     51 H         -10.7126   12.4497   -1.8363 H       1  LIG1        0.1424
@<TRIPOS>BOND
     1    25    23    1
     2    50    49    1
     3    24    23    1
     4    23    17    1
     5    51    49    1
     6    49    42    1
     7    20    16    1
     8    45    41    1
     9    17    16   ar
    10    17    18   ar
    11    16    15   ar
    12    41    42   ar
    13    41    40   ar
    14    42    43   ar
    15    34    35    3
    16     9    10    3
    17    35    26    1
    18    11     4    1
    19    11    13    1
    20    11    12    1
    21    10     1    1
    22     6     1   ar
    23     6     5   ar
    24    18    28    1
    25    18    19   ar
    26     1     2   ar
    27    28    26   ar
    28    28    31   ar
    29    26    27   ar
    30    15     5    1
    31    15    14   ar
    32    33    31    1
    33    31    32   ar
    34     5     4   ar
    35    36    32    1
    36    36    38    1
    37    36    37    1
    38     4     3   ar
    39     2     3   ar
    40     2     8    1
    41    27    30    1
    42    27    29   ar
    43     3     7    1
    44    32    29   ar
    45    29    40    1
    46    40    39   ar
    47    43    46    1
    48    43    44   ar
    49    19    14   ar
    50    14    22    1
    51    39    44   ar
    52    39    48    1
    53    22    21    3
    54    48    47    3
