@<TRIPOS>MOLECULE
mol_data/opt/b3lyp/geoms/mol2/6dh6dh6dh-6dh-.out
 50 53 0 0 0
SMALL
GASTEIGER

@<TRIPOS>ATOM
      1 C          -4.1568   -1.9497    1.2106 C.ar    1  LIG1        0.1408
      2 C          -3.0410   -2.2827    0.4282 C.ar    1  LIG1       -0.0240
      3 C          -2.6463   -1.4055   -0.5673 C.ar    1  LIG1       -0.0363
      4 C          -3.3547   -0.2092   -0.7700 C.ar    1  LIG1        0.0511
      5 C          -4.4610    0.0430    0.0900 C.ar    1  LIG1        0.0958
      6 N          -4.8442   -0.8131    1.0366 N.ar    1  LIG1       -0.2344
      7 H          -1.7932   -1.6388   -1.1984 H       1  LIG1        0.0637
      8 H          -2.5086   -3.2114    0.6003 H       1  LIG1        0.0646
      9 N          -4.9131   -3.5825    3.0900 N.1     1  LIG1       -0.1893
     10 C          -4.5975   -2.8390    2.2537 C.1     1  LIG1        0.1191
     11 N          -2.9607    0.6891   -1.7429 N.pl3   1  LIG1       -0.3563
     12 H          -2.3783    0.3200   -2.4811 H       1  LIG1        0.1424
     13 H          -3.6577    1.3444   -2.0669 H       1  LIG1        0.1424
     14 C          -6.6800    1.2513   -0.1525 C.ar    1  LIG1        0.1500
     15 C          -5.2720    1.2897   -0.0180 C.ar    1  LIG1        0.0398
     16 C          -4.6800    2.5467    0.0377 C.ar    1  LIG1       -0.0270
     17 C          -5.4506    3.7240   -0.0029 C.ar    1  LIG1        0.0517
     18 C          -6.8652    3.5614   -0.0423 C.ar    1  LIG1        0.0958
     19 N          -7.4303    2.3578   -0.1579 N.ar    1  LIG1       -0.2337
     20 H          -3.5996    2.6274    0.1174 H       1  LIG1        0.0644
     21 N          -7.9795   -0.9659   -0.5614 N.1     1  LIG1       -0.1893
     22 C          -7.3897    0.0131   -0.3481 C.1     1  LIG1        0.1198
     23 N          -4.8276    4.9449   -0.0851 N.pl3   1  LIG1       -0.3563
     24 H          -3.8771    4.9936    0.2527 H       1  LIG1        0.1424
     25 H          -5.3626    5.7743    0.1209 H       1  LIG1        0.1424
     26 C          -7.8345    5.7337    0.9310 C.ar    1  LIG1        0.1500
     27 C          -7.8279    4.7007   -0.0352 C.ar    1  LIG1        0.0398
     28 C          -8.8294    4.7389   -1.0028 C.ar    1  LIG1       -0.0270
     29 C          -9.7679    5.7781   -1.0317 C.ar    1  LIG1        0.0517
     30 C          -9.6472    6.7891   -0.0368 C.ar    1  LIG1        0.0958
     31 N          -8.7147    6.7462    0.9072 N.ar    1  LIG1       -0.2337
     32 H          -8.8748    3.9425   -1.7389 H       1  LIG1        0.0644
     33 N          -6.1625    5.7309    2.9265 N.1     1  LIG1       -0.1893
     34 C          -6.9189    5.7373    2.0426 C.1     1  LIG1        0.1198
     35 N         -10.7768    5.8024   -1.9687 N.pl3   1  LIG1       -0.3563
     36 H         -11.2124    6.6936   -2.1563 H       1  LIG1        0.1424
     37 H         -10.6615    5.2139   -2.7807 H       1  LIG1        0.1424
     38 C         -10.0714    9.2796   -0.1756 C.ar    1  LIG1        0.1493
     39 C         -10.5639    7.9674   -0.0047 C.ar    1  LIG1        0.0398
     40 C         -11.9308    7.8095    0.2192 C.ar    1  LIG1       -0.0276
     41 C         -12.7649    8.9368    0.2982 C.ar    1  LIG1        0.0436
     42 C         -12.1531   10.1993    0.1202 C.ar    1  LIG1        0.0497
     43 N         -10.8608   10.3659   -0.1135 N.ar    1  LIG1       -0.2421
     44 H         -12.3424    6.8143    0.3630 H       1  LIG1        0.0644
     45 H         -12.7581   11.1039    0.1740 H       1  LIG1        0.0849
     46 N          -7.5659    9.6874   -0.7509 N.1     1  LIG1       -0.1893
     47 C          -8.6817    9.5118   -0.4747 C.1     1  LIG1        0.1198
     48 N         -14.1041    8.8343    0.5824 N.pl3   1  LIG1       -0.3568
     49 H         -14.6933    9.6354    0.4168 H       1  LIG1        0.1424
     50 H         -14.5558    7.9392    0.4797 H       1  LIG1        0.1424
@<TRIPOS>BOND
     1    37    35    1
     2    12    11    1
     3    36    35    1
     4    13    11    1
     5    35    29    1
     6    11     4    1
     7    32    28    1
     8     7     3    1
     9    29    28   ar
    10    29    30   ar
    11    28    27   ar
    12     4     3   ar
    13     4     5   ar
    14    46    47    3
    15     3     2   ar
    16    21    22    3
    17    47    38    1
    18    22    14    1
    19    38    43   ar
    20    38    39   ar
    21    19    14   ar
    22    19    18   ar
    23    14    15   ar
    24    43    42   ar
    25    23    17    1
    26    23    25    1
    27    23    24    1
    28    18    27    1
    29    18    17   ar
    30    30    39    1
    31    30    31   ar
    32    27    26   ar
    33    15    16   ar
    34    15     5    1
    35    39    40   ar
    36    17    16   ar
    37    16    20    1
    38     5     6   ar
    39    42    45    1
    40    42    41   ar
    41    40    41   ar
    42    40    44    1
    43    41    48    1
    44    49    48    1
    45     2     8    1
    46     2     1   ar
    47    50    48    1
    48    31    26   ar
    49    26    34    1
    50     6     1   ar
    51     1    10    1
    52    34    33    3
    53    10     9    3
