@<TRIPOS>MOLECULE
mol_data/opt/b3lyp/geoms/mol2/6dh6dh-6dh-6dh.out
 50 53 0 0 0
SMALL
GASTEIGER

@<TRIPOS>ATOM
      1 C          -4.4843   -2.2631    0.1101 C.ar    1  LIG1        0.1408
      2 C          -3.0845   -2.3405    0.1823 C.ar    1  LIG1       -0.0240
      3 C          -2.3580   -1.1654    0.1519 C.ar    1  LIG1       -0.0363
      4 C          -3.0181    0.0762    0.0644 C.ar    1  LIG1        0.0511
      5 C          -4.4445    0.0471    0.0684 C.ar    1  LIG1        0.0958
      6 N          -5.1363   -1.0941    0.0560 N.ar    1  LIG1       -0.2344
      7 H          -1.2723   -1.1905    0.1751 H       1  LIG1        0.0637
      8 H          -2.5905   -3.3036    0.2479 H       1  LIG1        0.0646
      9 N          -5.8973   -4.4475    0.0659 N.1     1  LIG1       -0.1893
     10 C          -5.2808   -3.4615    0.0896 C.1     1  LIG1        0.1191
     11 N          -2.2933    1.2290   -0.1049 N.pl3   1  LIG1       -0.3563
     12 H          -1.3279    1.2107    0.1895 H       1  LIG1        0.1424
     13 H          -2.7447    2.1159    0.0560 H       1  LIG1        0.1424
     14 C          -5.1785    2.3504    0.9381 C.ar    1  LIG1        0.1500
     15 C          -5.2824    1.2810    0.0179 C.ar    1  LIG1        0.0398
     16 C          -6.2704    1.3864   -0.9573 C.ar    1  LIG1       -0.0270
     17 C          -7.0920    2.5185   -1.0388 C.ar    1  LIG1        0.0517
     18 C          -6.8694    3.5513   -0.0836 C.ar    1  LIG1        0.0958
     19 N          -5.9454    3.4473    0.8663 N.ar    1  LIG1       -0.2337
     20 H          -6.3975    0.5704   -1.6619 H       1  LIG1        0.0644
     21 N          -3.5095    2.2458    2.9337 N.1     1  LIG1       -0.1893
     22 C          -4.2635    2.3015    2.0496 C.1     1  LIG1        0.1198
     23 N          -8.0828    2.6056   -1.9923 N.pl3   1  LIG1       -0.3563
     24 H          -8.4131    3.5280   -2.2358 H       1  LIG1        0.1424
     25 H          -8.0208    1.9667   -2.7715 H       1  LIG1        0.1424
     26 C          -7.0028    6.0790   -0.1336 C.ar    1  LIG1        0.1500
     27 C          -7.6485    4.8216   -0.0924 C.ar    1  LIG1        0.0398
     28 C          -9.0376    4.8303   -0.0374 C.ar    1  LIG1       -0.0270
     29 C          -9.7613    6.0363    0.0123 C.ar    1  LIG1        0.0517
     30 C          -9.0024    7.2418    0.0486 C.ar    1  LIG1        0.0958
     31 N          -7.6721    7.2338   -0.0628 N.ar    1  LIG1       -0.2337
     32 H          -9.5800    3.8890   -0.0229 H       1  LIG1        0.0644
     33 N          -4.4336    6.2759   -0.5039 N.1     1  LIG1       -0.1893
     34 C          -5.5765    6.1832   -0.3109 C.1     1  LIG1        0.1198
     35 N         -11.1346    6.0087   -0.0605 N.pl3   1  LIG1       -0.3563
     36 H         -11.6383    6.8191    0.2657 H       1  LIG1        0.1424
     37 H         -11.5760    5.1433    0.2178 H       1  LIG1        0.1424
     38 C         -10.5284    9.0160    1.1211 C.ar    1  LIG1        0.1493
     39 C          -9.6058    8.6059    0.1302 C.ar    1  LIG1        0.0398
     40 C          -9.1878    9.5683   -0.7890 C.ar    1  LIG1       -0.0276
     41 C          -9.6956   10.8731   -0.7344 C.ar    1  LIG1        0.0436
     42 C         -10.6437   11.1505    0.2802 C.ar    1  LIG1        0.0497
     43 N         -11.0358   10.2630    1.1765 N.ar    1  LIG1       -0.2421
     44 H          -8.4494    9.2937   -1.5353 H       1  LIG1        0.0644
     45 H         -11.0785   12.1465    0.3574 H       1  LIG1        0.0849
     46 N         -11.3149    7.3947    2.9990 N.1     1  LIG1       -0.1893
     47 C         -10.9565    8.1311    2.1720 C.1     1  LIG1        0.1198
     48 N          -9.2766   11.8558   -1.5933 N.pl3   1  LIG1       -0.3568
     49 H          -8.7666   11.5944   -2.4221 H       1  LIG1        0.1424
     50 H          -9.8194   12.7020   -1.6650 H       1  LIG1        0.1424
@<TRIPOS>BOND
     1    25    23    1
     2    49    48    1
     3    24    23    1
     4    23    17    1
     5    50    48    1
     6    20    16    1
     7    48    41    1
     8    44    40    1
     9    17    16   ar
    10    17    18   ar
    11    16    15   ar
    12    40    41   ar
    13    40    39   ar
    14    41    42   ar
    15    33    34    3
    16    34    26    1
    17    26    27   ar
    18    26    31   ar
    19    11    13    1
    20    11     4    1
    21    11    12    1
    22    27    18    1
    23    27    28   ar
    24    18    19   ar
    25    31    30   ar
    26    35    29    1
    27    35    37    1
    28    35    36    1
    29    28    32    1
    30    28    29   ar
    31    29    30   ar
    32    15     5    1
    33    15    14   ar
    34    30    39    1
    35     6     5   ar
    36     6     1   ar
    37     4     5   ar
    38     4     3   ar
    39     9    10    3
    40    10     1    1
    41     1     2   ar
    42    39    38   ar
    43     3     7    1
    44     3     2   ar
    45     2     8    1
    46    42    45    1
    47    42    43   ar
    48    19    14   ar
    49    14    22    1
    50    38    43   ar
    51    38    47    1
    52    22    21    3
    53    47    46    3
