@<TRIPOS>MOLECULE
mol_data/opt/b3lyp/geoms/mol2/6dh6dh-.out
 26 27 0 0 0
SMALL
GASTEIGER

@<TRIPOS>ATOM
      1 C          -4.4640   -1.9986    0.5231 C.ar    1  LIG1        0.1408
      2 C          -3.1459   -2.1233    0.0586 C.ar    1  LIG1       -0.0240
      3 C          -2.5336   -1.0096   -0.4848 C.ar    1  LIG1       -0.0363
      4 C          -3.2208    0.2177   -0.5529 C.ar    1  LIG1        0.0511
      5 C          -4.5338    0.2535    0.0027 C.ar    1  LIG1        0.0958
      6 N          -5.1300   -0.8364    0.4910 N.ar    1  LIG1       -0.2344
      7 H          -1.5239   -1.0766   -0.8798 H       1  LIG1        0.0637
      8 H          -2.6297   -3.0750    0.1179 H       1  LIG1        0.0646
      9 N          -5.6990   -4.0799    1.4790 N.1     1  LIG1       -0.1893
     10 C          -5.1597   -3.1391    1.0585 C.1     1  LIG1        0.1191
     11 N          -2.6563    1.2846   -1.2110 N.pl3   1  LIG1       -0.3563
     12 H          -1.6504    1.2752   -1.3009 H       1  LIG1        0.1424
     13 H          -3.0258    2.2043   -1.0274 H       1  LIG1        0.1424
     14 C          -4.9913    2.7106    0.6073 C.ar    1  LIG1        0.1493
     15 C          -5.3830    1.4829    0.0249 C.ar    1  LIG1        0.0398
     16 C          -6.6750    1.4072   -0.4944 C.ar    1  LIG1       -0.0276
     17 C          -7.5229    2.5215   -0.4565 C.ar    1  LIG1        0.0436
     18 C          -7.0036    3.7043    0.1215 C.ar    1  LIG1        0.0497
     19 N          -5.7917    3.7939    0.6413 N.ar    1  LIG1       -0.2421
     20 H          -7.0162    0.4672   -0.9162 H       1  LIG1        0.0644
     21 H          -7.6194    4.6022    0.1629 H       1  LIG1        0.0849
     22 N          -2.6664    2.9850    1.7459 N.1     1  LIG1       -0.1893
     23 C          -3.7128    2.8672    1.2505 C.1     1  LIG1        0.1198
     24 N          -8.7867    2.4956   -0.9986 N.pl3   1  LIG1       -0.3568
     25 H          -9.4306    3.2181   -0.7129 H       1  LIG1        0.1424
     26 H          -9.2147    1.5930   -1.1420 H       1  LIG1        0.1424
@<TRIPOS>BOND
     1    12    11    1
     2    11    13    1
     3    11     4    1
     4    26    24    1
     5    24    25    1
     6    24    17    1
     7    20    16    1
     8     7     3    1
     9     4     3   ar
    10     4     5   ar
    11    16    17   ar
    12    16    15   ar
    13     3     2   ar
    14    17    18   ar
    15     5    15    1
    16     5     6   ar
    17    15    14   ar
    18     2     8    1
    19     2     1   ar
    20    18    21    1
    21    18    19   ar
    22     6     1   ar
    23     1    10    1
    24    14    19   ar
    25    14    23    1
    26    10     9    3
    27    23    22    3
