@<TRIPOS>MOLECULE
mol_data/opt/b3lyp/geoms/mol2/6dh6dh6dh-6dh.out
 50 53 0 0 0
SMALL
GASTEIGER

@<TRIPOS>ATOM
      1 C          -2.9590   -1.1501    1.3987 C.ar    1  LIG1        0.1408
      2 C          -2.7852   -2.1312    0.4104 C.ar    1  LIG1       -0.0240
      3 C          -3.4426   -1.9712   -0.7944 C.ar    1  LIG1       -0.0363
      4 C          -4.2745   -0.8554   -1.0100 C.ar    1  LIG1        0.0511
      5 C          -4.4320    0.0508    0.0799 C.ar    1  LIG1        0.0958
      6 N          -3.7624   -0.0928    1.2263 N.ar    1  LIG1       -0.2344
      7 H          -3.3092   -2.6963   -1.5922 H       1  LIG1        0.0637
      8 H          -2.1419   -2.9853    0.5904 H       1  LIG1        0.0646
      9 N          -1.6743   -1.3562    3.6520 N.1     1  LIG1       -0.1893
     10 C          -2.2605   -1.2494    2.6533 C.1     1  LIG1        0.1191
     11 N          -4.8151   -0.6379   -2.2568 N.pl3   1  LIG1       -0.3563
     12 H          -4.8877   -1.4493   -2.8544 H       1  LIG1        0.1424
     13 H          -5.6226   -0.0381   -2.3229 H       1  LIG1        0.1424
     14 C          -6.6600    1.2883   -0.3191 C.ar    1  LIG1        0.1500
     15 C          -5.2868    1.2750    0.0221 C.ar    1  LIG1        0.0398
     16 C          -4.7294    2.4947    0.3879 C.ar    1  LIG1       -0.0270
     17 C          -5.4826    3.6796    0.3986 C.ar    1  LIG1        0.0517
     18 C          -6.8617    3.5706    0.0476 C.ar    1  LIG1        0.0958
     19 N          -7.3996    2.4063   -0.3110 N.ar    1  LIG1       -0.2337
     20 H          -3.6818    2.5242    0.6703 H       1  LIG1        0.0644
     21 N          -7.9221   -0.8939   -0.9686 N.1     1  LIG1       -0.1893
     22 C          -7.3708    0.0841   -0.6625 C.1     1  LIG1        0.1198
     23 N          -4.8592    4.8789    0.6483 N.pl3   1  LIG1       -0.3563
     24 H          -3.9727    4.8210    1.1302 H       1  LIG1        0.1424
     25 H          -5.4250    5.6475    0.9732 H       1  LIG1        0.1424
     26 C          -8.0577    5.6356    1.0310 C.ar    1  LIG1        0.1500
     27 C          -7.8016    4.7302   -0.0250 C.ar    1  LIG1        0.0398
     28 C          -8.5348    4.9176   -1.1915 C.ar    1  LIG1       -0.0270
     29 C          -9.4657    5.9608   -1.3209 C.ar    1  LIG1        0.0517
     30 C          -9.6580    6.7989   -0.1816 C.ar    1  LIG1        0.0958
     31 N          -8.9509    6.6308    0.9339 N.ar    1  LIG1       -0.2337
     32 H          -8.3747    4.2389   -2.0231 H       1  LIG1        0.0644
     33 N          -6.8339    5.4514    3.3209 N.1     1  LIG1       -0.1893
     34 C          -7.3994    5.5274    2.3066 C.1     1  LIG1        0.1198
     35 N         -10.0721    6.1871   -2.5324 N.pl3   1  LIG1       -0.3563
     36 H         -10.9272    6.7210   -2.5423 H       1  LIG1        0.1424
     37 H         -10.0926    5.4052   -3.1718 H       1  LIG1        0.1424
     38 C         -11.9775    7.8802   -0.4524 C.ar    1  LIG1        0.1493
     39 C         -10.5980    7.9603   -0.1514 C.ar    1  LIG1        0.0398
     40 C         -10.1061    9.1983    0.2615 C.ar    1  LIG1       -0.0276
     41 C         -10.9545   10.3108    0.3408 C.ar    1  LIG1        0.0436
     42 C         -12.3085   10.1118   -0.0218 C.ar    1  LIG1        0.0497
     43 N         -12.8020    8.9441   -0.3933 N.ar    1  LIG1       -0.2421
     44 H          -9.0593    9.2824    0.5356 H       1  LIG1        0.0644
     45 H         -13.0063   10.9479    0.0113 H       1  LIG1        0.0849
     46 N         -13.0914    5.6240   -1.1177 N.1     1  LIG1       -0.1893
     47 C         -12.6046    6.6340   -0.8055 C.1     1  LIG1        0.1198
     48 N         -10.5169   11.5328    0.7830 N.pl3   1  LIG1       -0.3568
     49 H          -9.5254   11.7063    0.8313 H       1  LIG1        0.1424
     50 H         -11.0909   12.3433    0.6111 H       1  LIG1        0.1424
@<TRIPOS>BOND
     1    37    35    1
     2    12    11    1
     3    36    35    1
     4    35    29    1
     5    13    11    1
     6    11     4    1
     7    32    28    1
     8     7     3    1
     9    29    28   ar
    10    29    30   ar
    11    28    27   ar
    12    46    47    3
    13     4     3   ar
    14     4     5   ar
    15    21    22    3
    16    47    38    1
    17     3     2   ar
    18    22    14    1
    19    38    43   ar
    20    38    39   ar
    21    43    42   ar
    22    14    19   ar
    23    14    15   ar
    24    19    18   ar
    25    30    39    1
    26    30    31   ar
    27    39    40   ar
    28    27    18    1
    29    27    26   ar
    30    42    45    1
    31    42    41   ar
    32    15     5    1
    33    15    16   ar
    34    18    17   ar
    35     5     6   ar
    36    40    41   ar
    37    40    44    1
    38    41    48    1
    39    16    17   ar
    40    16    20    1
    41    17    23    1
    42     2     8    1
    43     2     1   ar
    44    50    48    1
    45    23    25    1
    46    23    24    1
    47    48    49    1
    48    31    26   ar
    49    26    34    1
    50     6     1   ar
    51     1    10    1
    52    34    33    3
    53    10     9    3
