@<TRIPOS>MOLECULE
mol_data/opt/b3lyp/geoms/mol2/6di13fh-12eh6aa-.out
 46 49 0 0 0
SMALL
GASTEIGER

@<TRIPOS>ATOM
      1 C          -4.7036   -2.0343    0.0108 C.ar    1  LIG1        0.1408
      2 C          -3.3343   -2.2508    0.1774 C.ar    1  LIG1       -0.0255
      3 C          -2.5271   -1.1228    0.2970 C.ar    1  LIG1       -0.0541
      4 C          -3.0570    0.1662    0.2296 C.ar    1  LIG1       -0.0228
      5 C          -4.4581    0.2755   -0.0043 C.ar    1  LIG1        0.0951
      6 N          -5.2488   -0.8168   -0.0810 N.ar    1  LIG1       -0.2345
      7 H          -1.4609   -1.2425    0.4682 H       1  LIG1        0.0622
      8 H          -2.9314   -3.2552    0.2320 H       1  LIG1        0.0646
      9 N          -6.3090   -4.0824   -0.1288 N.1     1  LIG1       -0.1893
     10 C          -5.6073   -3.1576   -0.0695 C.1     1  LIG1        0.1191
     11 C          -2.1554    1.3497    0.4536 C.3     1  LIG1       -0.0376
     12 H          -2.5765    2.0313    1.1982 H       1  LIG1        0.0278
     13 H          -2.0183    1.9394   -0.4552 H       1  LIG1        0.0278
     14 H          -1.1758    1.0159    0.8052 H       1  LIG1        0.0278
     15 C          -5.2082    1.5242   -0.1334 C.ar    1  LIG1        0.1096
     16 C          -4.9399    2.8723   -0.4155 C.ar    1  LIG1        0.1651
     17 C          -6.1595    3.5815   -0.4562 C.ar    1  LIG1        0.0960
     18 C          -7.1864    2.6593   -0.2035 C.ar    1  LIG1        0.1085
     19 N          -6.5868    1.4451   -0.0228 N.ar    1  LIG1       -0.3461
     20 H          -7.0488    0.5576    0.1182 H       1  LIG1        0.1662
     21 O          -3.7620    3.4865   -0.6785 O.3     1  LIG1       -0.5030
     22 H          -4.0192    4.4189   -0.8259 H       1  LIG1        0.2923
     23 N          -6.1452    4.9663   -0.7881 N.pl3   1  LIG1       -0.3534
     24 H          -6.5792    5.1393   -1.6923 H       1  LIG1        0.1425
     25 H          -6.6547    5.5268   -0.1107 H       1  LIG1        0.1425
     26 C          -8.6128    2.7954   -0.1270 C.ar    1  LIG1        0.1708
     27 C          -9.4825    3.8634    0.0551 C.ar    1  LIG1        0.0931
     28 C         -10.8135    3.3052    0.0493 C.ar    1  LIG1        0.0873
     29 C         -10.6772    1.9443   -0.1127 C.ar    1  LIG1        0.1590
     30 O          -9.3287    1.6461   -0.2337 O.2     1  LIG1       -0.4501
     31 C          -9.2145    5.2351    0.2716 C.1     1  LIG1       -0.0639
     32 C          -9.0929    6.4266    0.4679 C.1     1  LIG1       -0.1137
     33 H          -8.9675    7.4663    0.6656 H       1  LIG1        0.1232
     34 N         -11.9761    4.0480    0.2235 N.pl3   1  LIG1       -0.3541
     35 H         -11.8229    5.0430    0.1075 H       1  LIG1        0.1425
     36 H         -12.7608    3.7304   -0.3324 H       1  LIG1        0.1425
     37 C         -11.2485   -0.3954   -0.7572 C.ar    1  LIG1        0.0383
     38 C         -11.6191    0.8475   -0.1993 C.ar    1  LIG1        0.0372
     39 C         -12.9413    0.9663    0.2685 C.ar    1  LIG1       -0.0481
     40 C         -13.8047   -0.1163    0.1409 C.ar    1  LIG1       -0.0429
     41 C         -13.3299   -1.2930   -0.4389 C.ar    1  LIG1        0.0276
     42 N         -12.0711   -1.4370   -0.8759 N.ar    1  LIG1       -0.2626
     43 H         -13.2705    1.8775    0.7573 H       1  LIG1        0.0626
     44 H         -13.9813   -2.1568   -0.5540 H       1  LIG1        0.0829
     45 H         -10.2345   -0.5388   -1.1217 H       1  LIG1        0.0837
     46 H         -14.8279   -0.0545    0.4981 H       1  LIG1        0.0633
@<TRIPOS>BOND
     1    24    23    1
     2    45    37    1
     3    42    37   ar
     4    42    41   ar
     5    22    21    1
     6    23    17    1
     7    23    25    1
     8    37    38   ar
     9    21    16    1
    10    44    41    1
    11    17    16   ar
    12    17    18   ar
    13    13    11    1
    14    41    40   ar
    15    16    15   ar
    16    36    34    1
    17    30    26   ar
    18    30    29   ar
    19    18    26    1
    20    18    19   ar
    21    38    29    1
    22    38    39   ar
    23    15    19   ar
    24    15     5    1
    25     9    10    3
    26    26    27   ar
    27    29    28   ar
    28     6     5   ar
    29     6     1   ar
    30    10     1    1
    31    19    20    1
    32     5     4   ar
    33     1     2   ar
    34    28    27   ar
    35    28    34    1
    36    27    31    1
    37    35    34    1
    38    40    39   ar
    39    40    46    1
    40     2     8    1
    41     2     3   ar
    42     4     3   ar
    43     4    11    1
    44    39    43    1
    45    31    32    3
    46     3     7    1
    47    11    14    1
    48    11    12    1
    49    32    33    1
