@<TRIPOS>MOLECULE
mol_data/opt/b3lyp/geoms/mol2/6di12he6ah13li.out
 52 55 0 0 0
SMALL
GASTEIGER

@<TRIPOS>ATOM
      1 C          -4.2116   -2.0952   -1.1564 C.ar    1  LIG1        0.1409
      2 C          -2.9407   -2.3121   -0.6099 C.ar    1  LIG1       -0.0255
      3 C          -2.3962   -1.2959    0.1670 C.ar    1  LIG1       -0.0540
      4 C          -3.0914   -0.1010    0.3737 C.ar    1  LIG1       -0.0213
      5 C          -4.3407    0.0378   -0.2921 C.ar    1  LIG1        0.1122
      6 N          -4.8925   -0.9529   -1.0168 N.ar    1  LIG1       -0.2329
      7 H          -1.4335   -1.4414    0.6493 H       1  LIG1        0.0622
      8 H          -2.4205   -3.2490   -0.7734 H       1  LIG1        0.0646
      9 N          -5.3204   -3.9987   -2.5499 N.1     1  LIG1       -0.1893
     10 C          -4.8438   -3.1381   -1.9310 C.1     1  LIG1        0.1191
     11 C          -2.5655    0.9320    1.3348 C.3     1  LIG1       -0.0376
     12 H          -3.3130    1.1463    2.1066 H       1  LIG1        0.0278
     13 H          -2.3468    1.8907    0.8540 H       1  LIG1        0.0278
     14 H          -1.6582    0.5722    1.8265 H       1  LIG1        0.0278
     15 C          -5.1330    1.2646   -0.2089 C.ar    1  LIG1        0.1758
     16 C          -4.8518    2.6033   -0.3666 C.ar    1  LIG1        0.0888
     17 C          -6.1081    3.3046   -0.2604 C.ar    1  LIG1        0.0917
     18 C          -7.0827    2.3332   -0.0688 C.ar    1  LIG1        0.1544
     19 O          -6.4973    1.1131   -0.0563 O.2     1  LIG1       -0.4501
     20 N          -3.6279    3.2242   -0.5985 N.pl3   1  LIG1       -0.3540
     21 H          -3.0271    2.7248   -1.2428 H       1  LIG1        0.1425
     22 H          -3.7389    4.1913   -0.8821 H       1  LIG1        0.1425
     23 C          -6.2306    4.7072   -0.3960 C.1     1  LIG1       -0.0640
     24 C          -6.2414    5.9124   -0.5311 C.1     1  LIG1       -0.1137
     25 H          -6.2780    6.9714   -0.6421 H       1  LIG1        0.1232
     26 C          -9.2664    1.1764    0.1619 C.ar    1  LIG1        0.0391
     27 C          -8.5223    2.3709    0.1089 C.ar    1  LIG1        0.0384
     28 C          -9.2275    3.5727    0.2424 C.ar    1  LIG1       -0.0267
     29 C         -10.6182    3.5789    0.4100 C.ar    1  LIG1        0.0531
     30 C         -11.2830    2.3163    0.3845 C.ar    1  LIG1        0.1112
     31 N         -10.5864    1.1638    0.2902 N.ar    1  LIG1       -0.2508
     32 H          -8.6953    4.5182    0.2454 H       1  LIG1        0.0644
     33 H          -8.7696    0.2145    0.0858 H       1  LIG1        0.0837
     34 N         -11.2787    4.7595    0.6655 N.pl3   1  LIG1       -0.3563
     35 H         -10.7722    5.6092    0.4696 H       1  LIG1        0.1424
     36 H         -12.2824    4.7980    0.5149 H       1  LIG1        0.1424
     37 C         -12.7290    2.1212    0.5123 C.ar    1  LIG1        0.1092
     38 C         -13.8912    2.8858    0.3557 C.ar    1  LIG1        0.1497
     39 C         -15.0291    2.0751    0.6207 C.ar    1  LIG1        0.0092
     40 C         -14.5318    0.8188    0.9221 C.ar    1  LIG1        0.0087
     41 N         -13.1708    0.8612    0.8540 N.ar    1  LIG1       -0.3562
     42 H         -12.5098    0.1044    0.9580 H       1  LIG1        0.1655
     43 H         -15.0547   -0.0881    1.1890 H       1  LIG1        0.0811
     44 O         -13.9646    4.2220   -0.0006 O.3     1  LIG1       -0.4927
     45 C         -14.1332    4.4384   -1.4079 C.3     1  LIG1        0.0789
     46 H         -15.0438    3.9508   -1.7719 H       1  LIG1        0.0660
     47 H         -14.2180    5.5182   -1.5502 H       1  LIG1        0.0660
     48 H         -13.2735    4.0566   -1.9710 H       1  LIG1        0.0660
     49 C         -16.4636    2.5103    0.5850 C.3     1  LIG1       -0.0348
     50 H         -17.1103    1.7655    1.0574 H       1  LIG1        0.0279
     51 H         -16.8301    2.6565   -0.4392 H       1  LIG1        0.0279
     52 H         -16.6019    3.4598    1.1126 H       1  LIG1        0.0279
@<TRIPOS>BOND
     1     9    10    3
     2    48    45    1
     3    10     1    1
     4    46    45    1
     5    47    45    1
     6    45    44    1
     7    21    20    1
     8     1     6   ar
     9     1     2   ar
    10     6     5   ar
    11    22    20    1
    12     8     2    1
    13    25    24    1
    14     2     3   ar
    15    20    16    1
    16    24    23    3
    17    51    49    1
    18    23    17    1
    19    16    17   ar
    20    16    15   ar
    21     5    15    1
    22     5     4   ar
    23    17    18   ar
    24    15    19   ar
    25    18    19   ar
    26    18    27    1
    27    44    38    1
    28    33    26    1
    29    27    26   ar
    30    27    28   ar
    31    26    31   ar
    32     3     4   ar
    33     3     7    1
    34    28    32    1
    35    28    29   ar
    36    31    30   ar
    37    38    37   ar
    38    38    39   ar
    39     4    11    1
    40    30    29   ar
    41    30    37    1
    42    29    34    1
    43    35    34    1
    44    37    41   ar
    45    36    34    1
    46    49    39    1
    47    49    50    1
    48    49    52    1
    49    39    40   ar
    50    13    11    1
    51    41    40   ar
    52    41    42    1
    53    40    43    1
    54    11    14    1
    55    11    12    1
