@<TRIPOS>MOLECULE
mol_data/opt/b3lyp/geoms/mol2/6di13dd-12il-4he.out
 53 56 0 0 0
SMALL
GASTEIGER

@<TRIPOS>ATOM
      1 C          -4.7698   -2.0470    0.0215 C.ar    1  LIG1        0.1408
      2 C          -3.4537   -2.2940    0.4293 C.ar    1  LIG1       -0.0255
      3 C          -2.6722   -1.1967    0.7655 C.ar    1  LIG1       -0.0541
      4 C          -3.1672    0.1091    0.6644 C.ar    1  LIG1       -0.0229
      5 C          -4.4860    0.2446    0.1606 C.ar    1  LIG1        0.0928
      6 N          -5.2715   -0.8157   -0.1103 N.ar    1  LIG1       -0.2346
      7 H          -1.6634   -1.3485    1.1382 H       1  LIG1        0.0622
      8 H          -3.0790   -3.3082    0.5046 H       1  LIG1        0.0646
      9 N          -6.3375   -4.0588   -0.5077 N.1     1  LIG1       -0.1893
     10 C          -5.6534   -3.1484   -0.2766 C.1     1  LIG1        0.1191
     11 C          -2.3207    1.2573    1.1458 C.3     1  LIG1       -0.0376
     12 H          -2.9307    2.0496    1.5869 H       1  LIG1        0.0278
     13 H          -1.7447    1.7113    0.3346 H       1  LIG1        0.0278
     14 H          -1.6146    0.9073    1.9035 H       1  LIG1        0.0278
     15 C          -5.1834    1.5237   -0.0566 C.ar    1  LIG1        0.0846
     16 C          -4.8094    2.8026   -0.4794 C.ar    1  LIG1        0.0965
     17 C          -6.0069    3.5963   -0.5700 C.ar    1  LIG1        0.0980
     18 C          -7.0785    2.7755   -0.1943 C.ar    1  LIG1        0.1018
     19 N          -6.5458    1.5483    0.0923 N.ar    1  LIG1       -0.3485
     20 H          -7.0830    0.7176    0.3053 H       1  LIG1        0.1661
     21 N          -2.4910    3.6084   -1.2798 N.1     1  LIG1       -0.1908
     22 C          -3.5315    3.2416   -0.9078 C.1     1  LIG1        0.1027
     23 N          -6.1246    6.0042   -1.4901 N.1     1  LIG1       -0.1908
     24 C          -6.0743    4.9213   -1.0641 C.1     1  LIG1        0.1027
     25 C          -8.4963    2.9962   -0.0831 C.ar    1  LIG1        0.1596
     26 C          -9.3097    4.0875    0.1192 C.ar    1  LIG1        0.0391
     27 C         -10.6326    3.5457    0.1763 C.ar    1  LIG1        0.1692
     28 C         -10.5699    2.1742    0.0448 C.ar    1  LIG1        0.1792
     29 O          -9.2492    1.8421   -0.1179 O.2     1  LIG1       -0.4492
     30 C          -8.9704    5.5325    0.3164 C.3     1  LIG1       -0.0325
     31 H          -9.8070    6.0351    0.8082 H       1  LIG1        0.0280
     32 H          -8.7669    6.0453   -0.6284 H       1  LIG1        0.0280
     33 H          -8.0806    5.6528    0.9397 H       1  LIG1        0.0280
     34 O         -11.7649    4.2999    0.3686 O.3     1  LIG1       -0.4910
     35 C         -12.3751    4.7733   -0.8453 C.3     1  LIG1        0.0790
     36 H         -13.2454    5.3583   -0.5436 H       1  LIG1        0.0660
     37 H         -11.6806    5.4098   -1.4034 H       1  LIG1        0.0660
     38 H         -12.6892    3.9355   -1.4766 H       1  LIG1        0.0660
     39 C         -12.7377    1.0666    0.7544 C.ar    1  LIG1        0.0355
     40 C         -13.5665   -0.0723    0.6669 C.ar    1  LIG1       -0.0392
     41 C         -11.5254    1.0695    0.0051 C.ar    1  LIG1        0.0427
     42 C         -13.2246   -1.1697   -0.1008 C.ar    1  LIG1       -0.0446
     43 H         -14.4925   -0.0825    1.2364 H       1  LIG1        0.0636
     44 C         -11.1977   -0.0564   -0.7684 C.ar    1  LIG1       -0.0338
     45 C         -12.0228   -1.1839   -0.8389 C.ar    1  LIG1        0.0255
     46 H         -10.2726   -0.0482   -1.3329 H       1  LIG1        0.0637
     47 H         -13.8846   -2.0298   -0.1424 H       1  LIG1        0.0630
     48 N         -13.0819    2.0906    1.6101 N.pl3   1  LIG1       -0.3574
     49 H         -12.7454    3.0237    1.3996 H       1  LIG1        0.1423
     50 H         -14.0214    2.0567    1.9770 H       1  LIG1        0.1423
     51 C         -11.6585   -2.3104   -1.6365 C.1     1  LIG1       -0.0696
     52 C         -11.3503   -3.2680   -2.3099 C.1     1  LIG1       -0.1139
     53 H         -11.0652   -4.1120   -2.8939 H       1  LIG1        0.1232
@<TRIPOS>BOND
     1    53    52    1
     2    52    51    3
     3    51    45    1
     4    23    24    3
     5    38    35    1
     6    37    35    1
     7    46    44    1
     8    21    22    3
     9    24    17    1
    10    22    16    1
    11    35    36    1
    12    35    34    1
    13    45    44   ar
    14    45    42   ar
    15    44    41   ar
    16    32    30    1
    17    17    16   ar
    18    17    18   ar
    19     9    10    3
    20    16    15   ar
    21    10     1    1
    22    18    25    1
    23    18    19   ar
    24    47    42    1
    25    29    25   ar
    26    29    28   ar
    27     6     1   ar
    28     6     5   ar
    29    42    40   ar
    30    25    26   ar
    31    15    19   ar
    32    15     5    1
    33    41    28    1
    34    41    39   ar
    35     1     2   ar
    36    28    27   ar
    37    19    20    1
    38    26    27   ar
    39    26    30    1
    40     5     4   ar
    41    27    34    1
    42    30    31    1
    43    30    33    1
    44    13    11    1
    45     2     8    1
    46     2     3   ar
    47     4     3   ar
    48     4    11    1
    49    40    39   ar
    50    40    43    1
    51    39    48    1
    52     3     7    1
    53    11    12    1
    54    11    14    1
    55    49    48    1
    56    48    50    1
