@<TRIPOS>MOLECULE
mol_data/opt/b3lyp/geoms/mol2/6di6hi6dl-6hd.out
 55 58 0 0 0
SMALL
GASTEIGER

@<TRIPOS>ATOM
      1 C          -3.8461   -1.7948   -1.6182 C.ar    1  LIG1        0.1407
      2 C          -2.8886   -2.2355   -0.7018 C.ar    1  LIG1       -0.0255
      3 C          -2.7533   -1.5070    0.4738 C.ar    1  LIG1       -0.0541
      4 C          -3.5182   -0.3602    0.7083 C.ar    1  LIG1       -0.0243
      5 C          -4.4193    0.0404   -0.3173 C.ar    1  LIG1        0.0786
      6 N          -4.5874   -0.6950   -1.4314 N.ar    1  LIG1       -0.2360
      7 H          -2.0557   -1.8429    1.2360 H       1  LIG1        0.0622
      8 H          -2.3025   -3.1264   -0.8957 H       1  LIG1        0.0646
      9 N          -4.2621   -3.1504   -3.8039 N.1     1  LIG1       -0.1893
     10 C          -4.0853   -2.5363   -2.8330 C.1     1  LIG1        0.1191
     11 C          -3.3864    0.3430    2.0381 C.3     1  LIG1       -0.0377
     12 H          -4.3264    0.8039    2.3478 H       1  LIG1        0.0278
     13 H          -2.6263    1.1325    2.0115 H       1  LIG1        0.0278
     14 H          -3.0805   -0.3694    2.8093 H       1  LIG1        0.0278
     15 C          -6.6202    1.2977   -0.6470 C.ar    1  LIG1        0.1261
     16 C          -5.2505    1.2708   -0.2348 C.ar    1  LIG1        0.0404
     17 C          -4.7232    2.4729    0.2310 C.ar    1  LIG1       -0.0443
     18 C          -5.4802    3.6456    0.3419 C.ar    1  LIG1       -0.0236
     19 C          -6.8288    3.5320   -0.0396 C.ar    1  LIG1        0.0788
     20 N          -7.3677    2.4031   -0.5172 N.ar    1  LIG1       -0.2314
     21 H          -3.6763    2.5103    0.5159 H       1  LIG1        0.0628
     22 N          -7.2564    0.1971   -1.1433 N.pl3   1  LIG1       -0.3426
     23 H          -8.1841    0.3737   -1.4997 H       1  LIG1        0.1437
     24 H          -6.6813   -0.4762   -1.6304 H       1  LIG1        0.1437
     25 C          -4.8474    4.9090    0.8784 C.3     1  LIG1       -0.0377
     26 H          -5.5496    5.4986    1.4736 H       1  LIG1        0.0278
     27 H          -4.4705    5.5600    0.0792 H       1  LIG1        0.0278
     28 H          -3.9933    4.6662    1.5173 H       1  LIG1        0.0278
     29 C          -9.0198    4.5549    0.7132 C.ar    1  LIG1        0.1501
     30 C          -7.7906    4.6696    0.0456 C.ar    1  LIG1        0.0400
     31 C          -7.5366    5.9002   -0.5682 C.ar    1  LIG1       -0.0059
     32 C          -8.4735    6.9314   -0.5312 C.ar    1  LIG1        0.1468
     33 C          -9.7221    6.7141    0.1337 C.ar    1  LIG1        0.1173
     34 N          -9.9276    5.5424    0.7475 N.ar    1  LIG1       -0.2319
     35 H          -6.6010    6.0371   -1.0943 H       1  LIG1        0.0662
     36 N          -9.6956    2.4673    2.1144 N.1     1  LIG1       -0.1893
     37 C          -9.3775    3.3762    1.4633 C.1     1  LIG1        0.1198
     38 O          -8.2543    8.1465   -1.0882 O.3     1  LIG1       -0.4929
     39 C          -6.9891    8.4248   -1.6850 C.3     1  LIG1        0.0789
     40 H          -7.0409    9.4640   -2.0086 H       1  LIG1        0.0660
     41 H          -6.1750    8.3068   -0.9608 H       1  LIG1        0.0660
     42 H          -6.8067    7.7816   -2.5534 H       1  LIG1        0.0660
     43 C         -11.7734    7.7319    1.2836 C.ar    1  LIG1        0.1256
     44 C         -10.8048    7.7257    0.2147 C.ar    1  LIG1        0.0447
     45 C         -10.9592    8.7135   -0.7575 C.ar    1  LIG1       -0.0303
     46 C         -11.9678    9.6824   -0.6573 C.ar    1  LIG1        0.0706
     47 C         -12.8097    9.6282    0.4660 C.ar    1  LIG1        0.0471
     48 N         -12.7225    8.6907    1.3940 N.ar    1  LIG1       -0.2388
     49 H         -10.2937    8.7410   -1.6073 H       1  LIG1        0.0638
     50 H         -13.5879   10.3767    0.6008 H       1  LIG1        0.0843
     51 N         -11.7876    6.8063    2.2672 N.pl3   1  LIG1       -0.3426
     52 H         -12.5584    6.8624    2.9153 H       1  LIG1        0.1437
     53 H         -11.2860    5.9403    2.1154 H       1  LIG1        0.1437
     54 N         -12.2515   11.5224   -2.4606 N.1     1  LIG1       -0.1908
     55 C         -12.1247   10.6944   -1.6514 C.1     1  LIG1        0.1007
@<TRIPOS>BOND
     1     9    10    3
     2    10     1    1
     3    42    39    1
     4    54    55    3
     5    40    39    1
     6    39    38    1
     7    39    41    1
     8    55    46    1
     9    24    22    1
    10     1     6   ar
    11     1     2   ar
    12    49    45    1
    13    23    22    1
    14     6     5   ar
    15    22    15    1
    16    35    31    1
    17    38    32    1
    18     8     2    1
    19    45    46   ar
    20    45    44   ar
    21     2     3   ar
    22    46    47   ar
    23    15    20   ar
    24    15    16   ar
    25    31    32   ar
    26    31    30   ar
    27    32    33   ar
    28    20    19   ar
    29     5    16    1
    30     5     4   ar
    31    16    17   ar
    32    19    30    1
    33    19    18   ar
    34    30    29   ar
    35    27    25    1
    36    33    44    1
    37    33    34   ar
    38    44    43   ar
    39    17    18   ar
    40    17    21    1
    41    18    25    1
    42    47    50    1
    43    47    48   ar
    44     3     4   ar
    45     3     7    1
    46     4    11    1
    47    29    34   ar
    48    29    37    1
    49    25    26    1
    50    25    28    1
    51    43    48   ar
    52    43    51    1
    53    37    36    3
    54    13    11    1
    55    11    12    1
    56    11    14    1
    57    53    51    1
    58    51    52    1
