@<TRIPOS>MOLECULE
mol_data/opt/b3lyp/geoms/mol2/6di6di-6di.out
 41 43 0 0 0
SMALL
GASTEIGER

@<TRIPOS>ATOM
      1 C          -4.4744   -2.1059   -0.6643 C.ar    1  LIG1        0.1407
      2 C          -3.1181   -2.2275   -0.3395 C.ar    1  LIG1       -0.0255
      3 C          -2.4610   -1.0919    0.1135 C.ar    1  LIG1       -0.0541
      4 C          -3.1295    0.1348    0.2106 C.ar    1  LIG1       -0.0243
      5 C          -4.4853    0.1504   -0.1952 C.ar    1  LIG1        0.0781
      6 N          -5.1433   -0.9486   -0.5915 N.ar    1  LIG1       -0.2360
      7 H          -1.4180   -1.1533    0.4108 H       1  LIG1        0.0622
      8 H          -2.6142   -3.1838   -0.4222 H       1  LIG1        0.0646
      9 N          -5.7921   -4.2212   -1.4228 N.1     1  LIG1       -0.1893
     10 C          -5.2210   -3.2654   -1.0897 C.1     1  LIG1        0.1191
     11 C          -2.4044    1.3358    0.7634 C.3     1  LIG1       -0.0377
     12 H          -3.0875    2.0389    1.2456 H       1  LIG1        0.0278
     13 H          -1.8786    1.8779   -0.0289 H       1  LIG1        0.0278
     14 H          -1.6622    1.0218    1.5026 H       1  LIG1        0.0278
     15 C          -5.0572    2.5611   -0.8695 C.ar    1  LIG1        0.1499
     16 C          -5.3419    1.3754   -0.1654 C.ar    1  LIG1        0.0368
     17 C          -6.5377    1.3626    0.5563 C.ar    1  LIG1       -0.0449
     18 C          -7.3894    2.4682    0.5971 C.ar    1  LIG1       -0.0237
     19 C          -6.9948    3.5999   -0.1567 C.ar    1  LIG1        0.0781
     20 N          -5.8537    3.6380   -0.8551 N.ar    1  LIG1       -0.2353
     21 H          -6.8002    0.4647    1.1073 H       1  LIG1        0.0628
     22 N          -2.9356    2.7684   -2.3687 N.1     1  LIG1       -0.1893
     23 C          -3.8844    2.6787   -1.7030 C.1     1  LIG1        0.1198
     24 C          -8.6348    2.4173    1.4448 C.3     1  LIG1       -0.0377
     25 H          -8.4810    1.7621    2.3062 H       1  LIG1        0.0278
     26 H          -9.4809    2.0239    0.8726 H       1  LIG1        0.0278
     27 H          -8.9182    3.4061    1.8130 H       1  LIG1        0.0278
     28 C          -9.1001    4.9786   -0.6668 C.ar    1  LIG1        0.1492
     29 C          -7.7708    4.8770   -0.2064 C.ar    1  LIG1        0.0367
     30 C          -7.1397    6.0714    0.1550 C.ar    1  LIG1       -0.0455
     31 C          -7.8215    7.2877    0.1001 C.ar    1  LIG1       -0.0316
     32 C          -9.1530    7.2447   -0.3410 C.ar    1  LIG1        0.0320
     33 N          -9.7792    6.1355   -0.7271 N.ar    1  LIG1       -0.2437
     34 H          -6.1029    6.0366    0.4764 H       1  LIG1        0.0628
     35 H          -9.7370    8.1620   -0.3936 H       1  LIG1        0.0832
     36 N         -10.3741    2.8855   -1.5534 N.1     1  LIG1       -0.1893
     37 C          -9.8092    3.8222   -1.1599 C.1     1  LIG1        0.1198
     38 C          -7.1625    8.5863    0.4846 C.3     1  LIG1       -0.0383
     39 H          -7.8714    9.4172    0.4490 H       1  LIG1        0.0278
     40 H          -6.3344    8.8217   -0.1931 H       1  LIG1        0.0278
     41 H          -6.7487    8.5370    1.4973 H       1  LIG1        0.0278
@<TRIPOS>BOND
     1    22    23    3
     2    23    15    1
     3    36    37    3
     4     9    10    3
     5    37    28    1
     6    10     1    1
     7    15    20   ar
     8    15    16   ar
     9    20    19   ar
    10    33    28   ar
    11    33    32   ar
    12    28    29   ar
    13     1     6   ar
    14     1     2   ar
    15     6     5   ar
    16     8     2    1
    17    35    32    1
    18    32    31   ar
    19     2     3   ar
    20    29    19    1
    21    29    30   ar
    22     5    16    1
    23     5     4   ar
    24    40    38    1
    25    16    17   ar
    26    19    18   ar
    27    13    11    1
    28    31    30   ar
    29    31    38    1
    30     3     4   ar
    31     3     7    1
    32    30    34    1
    33     4    11    1
    34    39    38    1
    35    38    41    1
    36    17    18   ar
    37    17    21    1
    38    18    24    1
    39    11    12    1
    40    11    14    1
    41    26    24    1
    42    24    27    1
    43    24    25    1
