@<TRIPOS>MOLECULE
mol_data/opt/b3lyp/geoms/mol2/6di6di6di6di-.out
 54 57 0 0 0
SMALL
GASTEIGER

@<TRIPOS>ATOM
      1 C          -2.2350   -0.5592   -1.1593 C.ar    1  LIG1        0.1407
      2 C          -2.3157   -1.7519   -0.4310 C.ar    1  LIG1       -0.0255
      3 C          -3.3752   -1.8946    0.4544 C.ar    1  LIG1       -0.0541
      4 C          -4.3426   -0.8905    0.5876 C.ar    1  LIG1       -0.0243
      5 C          -4.1868    0.2488   -0.2379 C.ar    1  LIG1        0.0781
      6 N          -3.1440    0.4190   -1.0641 N.ar    1  LIG1       -0.2360
      7 H          -3.4526   -2.7898    1.0647 H       1  LIG1        0.0622
      8 H          -1.5607   -2.5213   -0.5463 H       1  LIG1        0.0646
      9 N          -0.2209   -0.1736   -2.7659 N.1     1  LIG1       -0.1893
     10 C          -1.1274   -0.3314   -2.0561 C.1     1  LIG1        0.1191
     11 C          -5.4473   -1.0511    1.6011 C.3     1  LIG1       -0.0377
     12 H          -6.2968   -1.5934    1.1740 H       1  LIG1        0.0278
     13 H          -5.8205   -0.0899    1.9614 H       1  LIG1        0.0278
     14 H          -5.0883   -1.6206    2.4629 H       1  LIG1        0.0278
     15 C          -6.5084    1.3125   -0.4943 C.ar    1  LIG1        0.1499
     16 C          -5.1291    1.4082   -0.2277 C.ar    1  LIG1        0.0368
     17 C          -4.6319    2.6946    0.0004 C.ar    1  LIG1       -0.0449
     18 C          -5.4657    3.8125    0.0087 C.ar    1  LIG1       -0.0237
     19 C          -6.8396    3.5797   -0.2320 C.ar    1  LIG1        0.0781
     20 N          -7.3364    2.3656   -0.4839 N.ar    1  LIG1       -0.2353
     21 H          -3.5684    2.8132    0.1824 H       1  LIG1        0.0628
     22 N          -7.5853   -0.9662   -1.1550 N.1     1  LIG1       -0.1893
     23 C          -7.1148    0.0537   -0.8561 C.1     1  LIG1        0.1198
     24 C          -4.9004    5.1827    0.2895 C.3     1  LIG1       -0.0377
     25 H          -5.5756    5.7807    0.9068 H       1  LIG1        0.0278
     26 H          -4.7251    5.7416   -0.6370 H       1  LIG1        0.0278
     27 H          -3.9409    5.1036    0.8063 H       1  LIG1        0.0278
     28 C          -8.9284    4.6603    0.7025 C.ar    1  LIG1        0.1499
     29 C          -7.8576    4.6721   -0.2139 C.ar    1  LIG1        0.0368
     30 C          -7.8201    5.7430   -1.1049 C.ar    1  LIG1       -0.0449
     31 C          -8.8140    6.7275   -1.1176 C.ar    1  LIG1       -0.0237
     32 C          -9.8704    6.5718   -0.1906 C.ar    1  LIG1        0.0781
     33 N          -9.8959    5.5819    0.7135 N.ar    1  LIG1       -0.2353
     34 H          -7.0033    5.8137   -1.8177 H       1  LIG1        0.0628
     35 N          -9.0420    2.8720    2.5949 N.1     1  LIG1       -0.1893
     36 C          -9.0042    3.6552    1.7374 C.1     1  LIG1        0.1198
     37 C          -8.6942    7.8893   -2.0712 C.3     1  LIG1       -0.0377
     38 H          -9.1854    8.7853   -1.6847 H       1  LIG1        0.0278
     39 H          -9.1521    7.6539   -3.0370 H       1  LIG1        0.0278
     40 H          -7.6417    8.1269   -2.2489 H       1  LIG1        0.0278
     41 C         -11.9018    7.8318   -1.1266 C.ar    1  LIG1        0.1492
     42 C         -11.0198    7.5192   -0.0713 C.ar    1  LIG1        0.0367
     43 C         -11.3035    8.0914    1.1734 C.ar    1  LIG1       -0.0455
     44 C         -12.3807    8.9635    1.3323 C.ar    1  LIG1       -0.0316
     45 C         -13.1555    9.2233    0.1910 C.ar    1  LIG1        0.0320
     46 N         -12.9425    8.6714   -1.0011 N.ar    1  LIG1       -0.2437
     47 H         -10.6694    7.8398    2.0182 H       1  LIG1        0.0628
     48 H         -13.9999    9.9078    0.2526 H       1  LIG1        0.0832
     49 N         -11.6451    6.7111   -3.4650 N.1     1  LIG1       -0.1893
     50 C         -11.7647    7.2126   -2.4231 C.1     1  LIG1        0.1198
     51 C         -12.7109    9.5859    2.6634 C.3     1  LIG1       -0.0383
     52 H         -11.8228   10.0237    3.1298 H       1  LIG1        0.0278
     53 H         -13.1060    8.8357    3.3578 H       1  LIG1        0.0278
     54 H         -13.4632   10.3718    2.5588 H       1  LIG1        0.0278
@<TRIPOS>BOND
     1    49    50    3
     2    39    37    1
     3     9    10    3
     4    50    41    1
     5    40    37    1
     6    37    38    1
     7    37    31    1
     8    10     1    1
     9    34    30    1
    10     1     6   ar
    11     1     2   ar
    12    22    23    3
    13    41    46   ar
    14    41    42   ar
    15    31    30   ar
    16    31    32   ar
    17    30    29   ar
    18     6     5   ar
    19    46    45   ar
    20    23    15    1
    21    26    24    1
    22     8     2    1
    23    15    20   ar
    24    15    16   ar
    25    20    19   ar
    26     2     3   ar
    27     5    16    1
    28     5     4   ar
    29    19    29    1
    30    19    18   ar
    31    16    17   ar
    32    29    28   ar
    33    32    42    1
    34    32    33   ar
    35    42    43   ar
    36    17    18   ar
    37    17    21    1
    38    18    24    1
    39    45    48    1
    40    45    44   ar
    41    24    27    1
    42    24    25    1
    43     3     4   ar
    44     3     7    1
    45     4    11    1
    46    28    33   ar
    47    28    36    1
    48    43    44   ar
    49    43    47    1
    50    12    11    1
    51    44    51    1
    52    11    13    1
    53    11    14    1
    54    36    35    3
    55    54    51    1
    56    51    52    1
    57    51    53    1
