@<TRIPOS>MOLECULE
mol_data/opt/b3lyp/geoms/mol2/6di6di6di6di.out
 54 57 0 0 0
SMALL
GASTEIGER

@<TRIPOS>ATOM
      1 C          -2.1112   -0.5689   -0.3921 C.ar    1  LIG1        0.1407
      2 C          -2.5269   -1.9049   -0.4315 C.ar    1  LIG1       -0.0255
      3 C          -3.8891   -2.1580   -0.3431 C.ar    1  LIG1       -0.0541
      4 C          -4.8106   -1.1081   -0.2472 C.ar    1  LIG1       -0.0243
      5 C          -4.2785    0.2032   -0.2644 C.ar    1  LIG1        0.0781
      6 N          -2.9633    0.4604   -0.3068 N.ar    1  LIG1       -0.2360
      7 H          -4.2488   -3.1829   -0.3342 H       1  LIG1        0.0622
      8 H          -1.8012   -2.7067   -0.5080 H       1  LIG1        0.0646
      9 N           0.4345   -0.0207   -0.4642 N.1     1  LIG1       -0.1893
     10 C          -0.7050   -0.2472   -0.4332 C.1     1  LIG1        0.1191
     11 C          -6.2793   -1.4142   -0.0968 C.3     1  LIG1       -0.0377
     12 H          -6.7679   -1.4895   -1.0735 H       1  LIG1        0.0278
     13 H          -6.8014   -0.6433    0.4748 H       1  LIG1        0.0278
     14 H          -6.4157   -2.3690    0.4181 H       1  LIG1        0.0278
     15 C          -6.1347    1.7693   -1.0927 C.ar    1  LIG1        0.1499
     16 C          -5.1226    1.4330   -0.1731 C.ar    1  LIG1        0.0368
     17 C          -4.8589    2.3769    0.8223 C.ar    1  LIG1       -0.0449
     18 C          -5.6086    3.5477    0.9465 C.ar    1  LIG1       -0.0237
     19 C          -6.6549    3.7297    0.0107 C.ar    1  LIG1        0.0781
     20 N          -6.8756    2.8815   -1.0001 N.ar    1  LIG1       -0.2353
     21 H          -4.0347    2.1926    1.5043 H       1  LIG1        0.0628
     22 N          -6.6138    0.2796   -3.1764 N.1     1  LIG1       -0.1893
     23 C          -6.4033    0.9464   -2.2477 C.1     1  LIG1        0.1198
     24 C          -5.2586    4.5526    2.0143 C.3     1  LIG1       -0.0377
     25 H          -5.8077    4.3505    2.9397 H       1  LIG1        0.0278
     26 H          -5.4955    5.5734    1.7055 H       1  LIG1        0.0278
     27 H          -4.1907    4.5050    2.2430 H       1  LIG1        0.0278
     28 C          -8.3967    5.2597    1.0984 C.ar    1  LIG1        0.1499
     29 C          -7.5645    4.9138    0.0164 C.ar    1  LIG1        0.0368
     30 C          -7.6902    5.6993   -1.1312 C.ar    1  LIG1       -0.0449
     31 C          -8.5328    6.8117   -1.1740 C.ar    1  LIG1       -0.0237
     32 C          -9.2528    7.1070    0.0087 C.ar    1  LIG1        0.0781
     33 N          -9.2119    6.3220    1.0920 N.ar    1  LIG1       -0.2353
     34 H          -7.1226    5.4210   -2.0138 H       1  LIG1        0.0628
     35 N          -8.5136    3.7591    3.2257 N.1     1  LIG1       -0.1893
     36 C          -8.4642    4.4350    2.2812 C.1     1  LIG1        0.1198
     37 C          -8.6613    7.6016   -2.4514 C.3     1  LIG1       -0.0377
     38 H          -7.9141    8.4003   -2.4959 H       1  LIG1        0.0278
     39 H          -9.6458    8.0660   -2.5451 H       1  LIG1        0.0278
     40 H          -8.5066    6.9505   -3.3158 H       1  LIG1        0.0278
     41 C          -9.7769    9.6147   -0.0129 C.ar    1  LIG1        0.1492
     42 C         -10.1787    8.2719    0.1436 C.ar    1  LIG1        0.0367
     43 C         -11.5090    8.0533    0.5143 C.ar    1  LIG1       -0.0455
     44 C         -12.3921    9.1225    0.6715 C.ar    1  LIG1       -0.0316
     45 C         -11.8736   10.4078    0.4498 C.ar    1  LIG1        0.0320
     46 N         -10.6061   10.6607    0.1309 N.ar    1  LIG1       -0.2437
     47 H         -11.8431    7.0337    0.6817 H       1  LIG1        0.0628
     48 H         -12.5205   11.2779    0.5477 H       1  LIG1        0.0832
     49 N          -7.2876   10.2013   -0.5141 N.1     1  LIG1       -0.1893
     50 C          -8.4004    9.9487   -0.2917 C.1     1  LIG1        0.1198
     51 C         -13.8297    8.9129    1.0689 C.3     1  LIG1       -0.0383
     52 H         -14.3816    9.8560    1.0762 H       1  LIG1        0.0278
     53 H         -13.8993    8.4745    2.0705 H       1  LIG1        0.0278
     54 H         -14.3360    8.2288    0.3799 H       1  LIG1        0.0278
@<TRIPOS>BOND
     1    40    37    1
     2    22    23    3
     3    39    37    1
     4    38    37    1
     5    37    31    1
     6    23    15    1
     7    34    30    1
     8    31    30   ar
     9    31    32   ar
    10    30    29   ar
    11    15    20   ar
    12    15    16   ar
    13    12    11    1
    14    20    19   ar
    15    49    50    3
    16     8     2    1
    17     9    10    3
    18    10     1    1
    19     2     1   ar
    20     2     3   ar
    21     1     6   ar
    22     3     7    1
    23     3     4   ar
    24     6     5   ar
    25    50    41    1
    26     5     4   ar
    27     5    16    1
    28     4    11    1
    29    16    17   ar
    30    11    14    1
    31    11    13    1
    32    41    46   ar
    33    41    42   ar
    34    32    42    1
    35    32    33   ar
    36    19    29    1
    37    19    18   ar
    38    29    28   ar
    39    46    45   ar
    40    42    43   ar
    41    54    51    1
    42    45    48    1
    43    45    44   ar
    44    43    44   ar
    45    43    47    1
    46    44    51    1
    47    17    18   ar
    48    17    21    1
    49    18    24    1
    50    51    52    1
    51    51    53    1
    52    33    28   ar
    53    28    36    1
    54    26    24    1
    55    24    27    1
    56    24    25    1
    57    36    35    3
