@<TRIPOS>MOLECULE
mol_data/opt/b3lyp/geoms/mol2/6di6di-.out
 28 29 0 0 0
SMALL
GASTEIGER

@<TRIPOS>ATOM
      1 C          -4.4308   -1.9887   -0.7316 C.ar    1  LIG1        0.1407
      2 C          -3.1274   -2.1154   -0.2378 C.ar    1  LIG1       -0.0255
      3 C          -2.5439   -0.9916    0.3314 C.ar    1  LIG1       -0.0541
      4 C          -3.2296    0.2282    0.3795 C.ar    1  LIG1       -0.0243
      5 C          -4.5228    0.2514   -0.1959 C.ar    1  LIG1        0.0781
      6 N          -5.1139   -0.8373   -0.7095 N.ar    1  LIG1       -0.2360
      7 H          -1.5473   -1.0578    0.7584 H       1  LIG1        0.0622
      8 H          -2.6090   -3.0664   -0.2845 H       1  LIG1        0.0646
      9 N          -5.6283   -4.0781   -1.7255 N.1     1  LIG1       -0.1893
     10 C          -5.1079   -3.1353   -1.2884 C.1     1  LIG1        0.1191
     11 C          -2.5920    1.4155    1.0556 C.3     1  LIG1       -0.0377
     12 H          -3.3373    2.0940    1.4770 H       1  LIG1        0.0278
     13 H          -1.9851    1.9911    0.3495 H       1  LIG1        0.0278
     14 H          -1.9370    1.0829    1.8655 H       1  LIG1        0.0278
     15 C          -5.0216    2.6788   -0.8625 C.ar    1  LIG1        0.1492
     16 C          -5.3871    1.4711   -0.2326 C.ar    1  LIG1        0.0367
     17 C          -6.6701    1.4162    0.3211 C.ar    1  LIG1       -0.0455
     18 C          -7.5141    2.5268    0.2842 C.ar    1  LIG1       -0.0316
     19 C          -7.0130    3.6799   -0.3395 C.ar    1  LIG1        0.0320
     20 N          -5.8132    3.7625   -0.9099 N.ar    1  LIG1       -0.2437
     21 H          -7.0007    0.4881    0.7779 H       1  LIG1        0.0628
     22 H          -7.6242    4.5797   -0.3876 H       1  LIG1        0.0832
     23 N          -2.7436    2.8976   -2.1093 N.1     1  LIG1       -0.1893
     24 C          -3.7615    2.8056   -1.5552 C.1     1  LIG1        0.1198
     25 C          -8.8992    2.4917    0.8747 C.3     1  LIG1       -0.0383
     26 H          -8.8741    2.1948    1.9285 H       1  LIG1        0.0278
     27 H          -9.5313    1.7676    0.3490 H       1  LIG1        0.0278
     28 H          -9.3837    3.4692    0.8102 H       1  LIG1        0.0278
@<TRIPOS>BOND
     1    23    24    3
     2     9    10    3
     3    24    15    1
     4    10     1    1
     5    20    15   ar
     6    20    19   ar
     7    15    16   ar
     8     1     6   ar
     9     1     2   ar
    10     6     5   ar
    11    22    19    1
    12    19    18   ar
    13     8     2    1
    14     2     3   ar
    15    16     5    1
    16    16    17   ar
    17     5     4   ar
    18    18    17   ar
    19    18    25    1
    20    17    21    1
    21     3     4   ar
    22     3     7    1
    23    27    25    1
    24    13    11    1
    25     4    11    1
    26    28    25    1
    27    25    26    1
    28    11    12    1
    29    11    14    1
