@<TRIPOS>MOLECULE
mol_data/opt/b3lyp/geoms/mol2/6di6di6di-6di-.out
 54 57 0 0 0
SMALL
GASTEIGER

@<TRIPOS>ATOM
      1 C          -4.3051   -2.0031   -1.2715 C.ar    1  LIG1        0.1407
      2 C          -3.0753   -2.2671   -0.6577 C.ar    1  LIG1       -0.0255
      3 C          -2.5473   -1.2916    0.1788 C.ar    1  LIG1       -0.0541
      4 C          -3.2233   -0.0838    0.3824 C.ar    1  LIG1       -0.0243
      5 C          -4.4508    0.0786   -0.3016 C.ar    1  LIG1        0.0781
      6 N          -4.9795   -0.8595   -1.0968 N.ar    1  LIG1       -0.2360
      7 H          -1.6054   -1.4699    0.6899 H       1  LIG1        0.0622
      8 H          -2.5659   -3.2090   -0.8272 H       1  LIG1        0.0646
      9 N          -5.3388   -3.8009   -2.8475 N.1     1  LIG1       -0.1893
     10 C          -4.8991   -2.9867   -2.1447 C.1     1  LIG1        0.1191
     11 C          -2.6534    0.9582    1.3136 C.3     1  LIG1       -0.0377
     12 H          -3.4365    1.4720    1.8763 H       1  LIG1        0.0278
     13 H          -2.0892    1.7234    0.7677 H       1  LIG1        0.0278
     14 H          -1.9658    0.4975    2.0276 H       1  LIG1        0.0278
     15 C          -6.6099    1.2821    0.2654 C.ar    1  LIG1        0.1499
     16 C          -5.2746    1.3190   -0.1862 C.ar    1  LIG1        0.0368
     17 C          -4.7798    2.5722   -0.5432 C.ar    1  LIG1       -0.0449
     18 C          -5.5733    3.7231   -0.4966 C.ar    1  LIG1       -0.0237
     19 C          -6.9142    3.5467   -0.0859 C.ar    1  LIG1        0.0781
     20 N          -7.3960    2.3617    0.3157 N.ar    1  LIG1       -0.2353
     21 H          -3.7498    2.6605   -0.8767 H       1  LIG1        0.0628
     22 N          -7.6722   -0.9028    1.2071 N.1     1  LIG1       -0.1893
     23 C          -7.1983    0.0605    0.7630 C.1     1  LIG1        0.1198
     24 C          -4.9662    5.0589   -0.8442 C.3     1  LIG1       -0.0377
     25 H          -5.4579    5.8796   -0.3169 H       1  LIG1        0.0278
     26 H          -5.0453    5.2612   -1.9170 H       1  LIG1        0.0278
     27 H          -3.9054    5.0729   -0.5794 H       1  LIG1        0.0278
     28 C          -8.2656    5.5023   -1.0570 C.ar    1  LIG1        0.1499
     29 C          -7.9059    4.6586    0.0120 C.ar    1  LIG1        0.0368
     30 C          -8.6103    4.8460    1.2040 C.ar    1  LIG1       -0.0449
     31 C          -9.5542    5.8630    1.3525 C.ar    1  LIG1       -0.0237
     32 C          -9.7600    6.7037    0.2321 C.ar    1  LIG1        0.0781
     33 N          -9.1611    6.4921   -0.9457 N.ar    1  LIG1       -0.2353
     34 H          -8.4218    4.1642    2.0273 H       1  LIG1        0.0628
     35 N          -7.2895    5.1511   -3.4474 N.1     1  LIG1       -0.1893
     36 C          -7.7260    5.3108   -2.3819 C.1     1  LIG1        0.1198
     37 C         -10.3146    5.9930    2.6477 C.3     1  LIG1       -0.0377
     38 H         -10.4282    5.0133    3.1193 H       1  LIG1        0.0278
     39 H         -11.3102    6.4157    2.4937 H       1  LIG1        0.0278
     40 H          -9.7850    6.6443    3.3505 H       1  LIG1        0.0278
     41 C         -10.6173    8.9538    1.1059 C.ar    1  LIG1        0.1492
     42 C         -10.7114    7.8554    0.2263 C.ar    1  LIG1        0.0367
     43 C         -11.7208    7.9088   -0.7400 C.ar    1  LIG1       -0.0455
     44 C         -12.6105    8.9830   -0.7853 C.ar    1  LIG1       -0.0316
     45 C         -12.4308    9.9928    0.1730 C.ar    1  LIG1        0.0320
     46 N         -11.4615    9.9975    1.0854 N.ar    1  LIG1       -0.2437
     47 H         -11.7978    7.0981   -1.4584 H       1  LIG1        0.0628
     48 H         -13.1043   10.8479    0.1924 H       1  LIG1        0.0832
     49 N          -8.6725    9.1028    2.8343 N.1     1  LIG1       -0.1893
     50 C          -9.5444    9.0437    2.0676 C.1     1  LIG1        0.1198
     51 C         -13.7036    9.0660   -1.8180 C.3     1  LIG1       -0.0383
     52 H         -14.3006    8.1486   -1.8394 H       1  LIG1        0.0278
     53 H         -13.2842    9.2033   -2.8210 H       1  LIG1        0.0278
     54 H         -14.3757    9.9044   -1.6188 H       1  LIG1        0.0278
@<TRIPOS>BOND
     1    35    36    3
     2     9    10    3
     3    53    51    1
     4    36    28    1
     5    10     1    1
     6    26    24    1
     7    52    51    1
     8    51    54    1
     9    51    44    1
    10    47    43    1
    11     1     6   ar
    12     1     2   ar
    13     6     5   ar
    14    28    33   ar
    15    28    29   ar
    16    33    32   ar
    17    21    17    1
    18    24    27    1
    19    24    18    1
    20    24    25    1
    21     8     2    1
    22    44    43   ar
    23    44    45   ar
    24    43    42   ar
    25     2     3   ar
    26    17    18   ar
    27    17    16   ar
    28    18    19   ar
    29     5    16    1
    30     5     4   ar
    31    16    15   ar
    32    19    29    1
    33    19    20   ar
    34    29    30   ar
    35    45    48    1
    36    45    46   ar
    37     3     4   ar
    38     3     7    1
    39    42    32    1
    40    42    41   ar
    41    32    31   ar
    42    15    20   ar
    43    15    23    1
    44     4    11    1
    45    23    22    3
    46    13    11    1
    47    46    41   ar
    48    41    50    1
    49    30    31   ar
    50    30    34    1
    51    11    12    1
    52    11    14    1
    53    31    37    1
    54    50    49    3
    55    39    37    1
    56    37    38    1
    57    37    40    1
