@<TRIPOS>MOLECULE
mol_data/opt/b3lyp/geoms/mol2/6di6di-6di-6di.out
 54 57 0 0 0
SMALL
GASTEIGER

@<TRIPOS>ATOM
      1 C          -4.5653   -2.2759   -0.2080 C.ar    1  LIG1        0.1407
      2 C          -3.1721   -2.3872   -0.2875 C.ar    1  LIG1       -0.0255
      3 C          -2.4318   -1.2131   -0.2855 C.ar    1  LIG1       -0.0541
      4 C          -3.0631    0.0363   -0.2362 C.ar    1  LIG1       -0.0243
      5 C          -4.4784    0.0271   -0.2107 C.ar    1  LIG1        0.0781
      6 N          -5.2040   -1.1001   -0.1668 N.ar    1  LIG1       -0.2360
      7 H          -1.3467   -1.2583   -0.3088 H       1  LIG1        0.0622
      8 H          -2.6975   -3.3612   -0.3275 H       1  LIG1        0.0646
      9 N          -6.0186   -4.4355   -0.1045 N.1     1  LIG1       -0.1893
     10 C          -5.3850   -3.4625   -0.1532 C.1     1  LIG1        0.1191
     11 C          -2.2280    1.2902   -0.1752 C.3     1  LIG1       -0.0377
     12 H          -2.7467    2.1079    0.3300 H       1  LIG1        0.0278
     13 H          -1.9677    1.6382   -1.1799 H       1  LIG1        0.0278
     14 H          -1.2954    1.0962    0.3618 H       1  LIG1        0.0278
     15 C          -5.2597    2.2940   -1.1262 C.ar    1  LIG1        0.1499
     16 C          -5.3092    1.2680   -0.1631 C.ar    1  LIG1        0.0368
     17 C          -6.2492    1.4255    0.8595 C.ar    1  LIG1       -0.0449
     18 C          -7.0582    2.5582    0.9441 C.ar    1  LIG1       -0.0237
     19 C          -6.8842    3.5373   -0.0614 C.ar    1  LIG1        0.0781
     20 N          -6.0163    3.3980   -1.0671 N.ar    1  LIG1       -0.2353
     21 H          -6.3371    0.6424    1.6061 H       1  LIG1        0.0628
     22 N          -3.7286    2.0832   -3.2237 N.1     1  LIG1       -0.1893
     23 C          -4.4109    2.1884   -2.2887 C.1     1  LIG1        0.1198
     24 C          -8.0403    2.7102    2.0791 C.3     1  LIG1       -0.0377
     25 H          -7.7613    2.0667    2.9169 H       1  LIG1        0.0278
     26 H          -9.0535    2.4244    1.7735 H       1  LIG1        0.0278
     27 H          -8.0879    3.7414    2.4381 H       1  LIG1        0.0278
     28 C          -6.9939    6.0647   -0.0001 C.ar    1  LIG1        0.1499
     29 C          -7.6495    4.8196   -0.0791 C.ar    1  LIG1        0.0368
     30 C          -9.0377    4.8595   -0.1941 C.ar    1  LIG1       -0.0449
     31 C          -9.7372    6.0687   -0.2711 C.ar    1  LIG1       -0.0237
     32 C          -8.9618    7.2508   -0.2440 C.ar    1  LIG1        0.0781
     33 N          -7.6316    7.2366   -0.0757 N.ar    1  LIG1       -0.2353
     34 H          -9.5952    3.9281   -0.2353 H       1  LIG1        0.0628
     35 N          -4.4305    6.1939    0.4522 N.1     1  LIG1       -0.1893
     36 C          -5.5691    6.1365    0.2274 C.1     1  LIG1        0.1198
     37 C         -11.2430    6.0503   -0.3447 C.3     1  LIG1       -0.0377
     38 H         -11.6386    5.1862    0.1963 H       1  LIG1        0.0278
     39 H         -11.5850    5.9811   -1.3821 H       1  LIG1        0.0278
     40 H         -11.6827    6.9527    0.0863 H       1  LIG1        0.0278
     41 C         -10.3310    9.0908   -1.3973 C.ar    1  LIG1        0.1492
     42 C          -9.5384    8.6269   -0.3268 C.ar    1  LIG1        0.0367
     43 C          -9.2294    9.5554    0.6730 C.ar    1  LIG1       -0.0455
     44 C          -9.7293   10.8568    0.6214 C.ar    1  LIG1       -0.0316
     45 C         -10.5410   11.1776   -0.4779 C.ar    1  LIG1        0.0320
     46 N         -10.8283   10.3363   -1.4683 N.ar    1  LIG1       -0.2437
     47 H          -8.5870    9.2443    1.4912 H       1  LIG1        0.0628
     48 H         -10.9710   12.1742   -0.5625 H       1  LIG1        0.0832
     49 N         -10.8487    7.5619   -3.4429 N.1     1  LIG1       -0.1893
     50 C         -10.6193    8.2483   -2.5331 C.1     1  LIG1        0.1198
     51 C          -9.4046   11.8765    1.6811 C.3     1  LIG1       -0.0383
     52 H         -10.0233   12.7711    1.5747 H       1  LIG1        0.0278
     53 H          -8.3553   12.1864    1.6162 H       1  LIG1        0.0278
     54 H          -9.5612   11.4710    2.6857 H       1  LIG1        0.0278
@<TRIPOS>BOND
     1    49    50    3
     2    22    23    3
     3    50    41    1
     4    23    15    1
     5    46    41   ar
     6    46    45   ar
     7    41    42   ar
     8    39    37    1
     9    13    11    1
    10    15    20   ar
    11    15    16   ar
    12    20    19   ar
    13    48    45    1
    14    45    44   ar
    15    37    31    1
    16    37    40    1
    17    37    38    1
    18     8     2    1
    19    42    32    1
    20    42    43   ar
    21     7     3    1
    22     2     3   ar
    23     2     1   ar
    24     3     4   ar
    25    31    32   ar
    26    31    30   ar
    27    32    33   ar
    28     4     5   ar
    29     4    11    1
    30    34    30    1
    31     5     6   ar
    32     5    16    1
    33     1     6   ar
    34     1    10    1
    35    30    29   ar
    36    11    12    1
    37    11    14    1
    38    16    17   ar
    39    10     9    3
    40    29    19    1
    41    29    28   ar
    42    33    28   ar
    43    19    18   ar
    44    28    36    1
    45    36    35    3
    46    44    43   ar
    47    44    51    1
    48    43    47    1
    49    17    18   ar
    50    17    21    1
    51    18    24    1
    52    52    51    1
    53    53    51    1
    54    51    54    1
    55    26    24    1
    56    24    27    1
    57    24    25    1
