@<TRIPOS>MOLECULE
mol_data/opt/b3lyp/geoms/mol2/6di6di-6di-6di-.out
 54 57 0 0 0
SMALL
GASTEIGER

@<TRIPOS>ATOM
      1 C          -4.0611   -2.0319    0.6347 C.ar    1  LIG1        0.1407
      2 C          -2.9911   -2.2496   -0.2410 C.ar    1  LIG1       -0.0255
      3 C          -2.6394   -1.2150   -1.0972 C.ar    1  LIG1       -0.0541
      4 C          -3.3524   -0.0099   -1.0995 C.ar    1  LIG1       -0.0243
      5 C          -4.4450    0.0795   -0.2044 C.ar    1  LIG1        0.0781
      6 N          -4.7690   -0.8956    0.6570 N.ar    1  LIG1       -0.2360
      7 H          -1.7921   -1.3320   -1.7668 H       1  LIG1        0.0622
      8 H          -2.4501   -3.1891   -0.2286 H       1  LIG1        0.0646
      9 N          -4.7223   -3.8948    2.3313 N.1     1  LIG1       -0.1893
     10 C          -4.4422   -3.0539    1.5797 C.1     1  LIG1        0.1191
     11 C          -2.9137    1.1164   -2.0008 C.3     1  LIG1       -0.0377
     12 H          -3.1484    2.0953   -1.5762 H       1  LIG1        0.0278
     13 H          -3.4045    1.0533   -2.9773 H       1  LIG1        0.0278
     14 H          -1.8341    1.0690   -2.1672 H       1  LIG1        0.0278
     15 C          -6.0575    1.8414   -1.1421 C.ar    1  LIG1        0.1499
     16 C          -5.3095    1.2923   -0.0828 C.ar    1  LIG1        0.0368
     17 C          -5.4823    1.8925    1.1666 C.ar    1  LIG1       -0.0449
     18 C          -6.2869    3.0199    1.3391 C.ar    1  LIG1       -0.0237
     19 C          -6.9193    3.5277    0.1789 C.ar    1  LIG1        0.0781
     20 N          -6.8351    2.9245   -1.0123 N.ar    1  LIG1       -0.2353
     21 H          -4.9847    1.4520    2.0250 H       1  LIG1        0.0628
     22 N          -6.0880    0.7214   -3.4948 N.1     1  LIG1       -0.1893
     23 C          -6.0765    1.2241   -2.4467 C.1     1  LIG1        0.1198
     24 C          -6.4710    3.6065    2.7156 C.3     1  LIG1       -0.0377
     25 H          -6.3716    2.8269    3.4753 H       1  LIG1        0.0278
     26 H          -7.4528    4.0716    2.8314 H       1  LIG1        0.0278
     27 H          -5.7155    4.3716    2.9213 H       1  LIG1        0.0278
     28 C          -7.3611    6.0186    0.5764 C.ar    1  LIG1        0.1499
     29 C          -7.7943    4.7376    0.1840 C.ar    1  LIG1        0.0368
     30 C          -9.1001    4.6531   -0.3037 C.ar    1  LIG1       -0.0449
     31 C          -9.9518    5.7590   -0.3243 C.ar    1  LIG1       -0.0237
     32 C          -9.4259    6.9734    0.1788 C.ar    1  LIG1        0.0781
     33 N          -8.1531    7.0983    0.5737 N.ar    1  LIG1       -0.2353
     34 H          -9.4486    3.6993   -0.6876 H       1  LIG1        0.0628
     35 N          -4.8802    6.4396    1.2542 N.1     1  LIG1       -0.1893
     36 C          -5.9892    6.2585    0.9562 C.1     1  LIG1        0.1198
     37 C         -11.3388    5.6220   -0.8986 C.3     1  LIG1       -0.0377
     38 H         -11.3502    4.8594   -1.6818 H       1  LIG1        0.0278
     39 H         -11.6949    6.5605   -1.3300 H       1  LIG1        0.0278
     40 H         -12.0549    5.3206   -0.1275 H       1  LIG1        0.0278
     41 C         -11.3991    8.3911    0.9914 C.ar    1  LIG1        0.1492
     42 C         -10.2069    8.2450    0.2522 C.ar    1  LIG1        0.0367
     43 C          -9.7155    9.3910   -0.3805 C.ar    1  LIG1       -0.0455
     44 C         -10.4099   10.5995   -0.3103 C.ar    1  LIG1       -0.0316
     45 C         -11.6037   10.6001    0.4277 C.ar    1  LIG1        0.0320
     46 N         -12.0869    9.5411    1.0737 N.ar    1  LIG1       -0.2437
     47 H          -8.7790    9.3245   -0.9262 H       1  LIG1        0.0628
     48 H         -12.1919   11.5127    0.5069 H       1  LIG1        0.0832
     49 N         -12.3446    6.4018    2.3845 N.1     1  LIG1       -0.1893
     50 C         -11.9305    7.2942    1.7650 C.1     1  LIG1        0.1198
     51 C          -9.9020   11.8471   -0.9841 C.3     1  LIG1       -0.0383
     52 H          -9.7356   11.6807   -2.0536 H       1  LIG1        0.0278
     53 H          -8.9461   12.1639   -0.5527 H       1  LIG1        0.0278
     54 H         -10.6093   12.6732   -0.8762 H       1  LIG1        0.0278
@<TRIPOS>BOND
     1    22    23    3
     2    13    11    1
     3    23    15    1
     4    14    11    1
     5    52    51    1
     6    11    12    1
     7    11     4    1
     8     7     3    1
     9    38    37    1
    10    39    37    1
    11    15    20   ar
    12    15    16   ar
    13     4     3   ar
    14     4     5   ar
    15     3     2   ar
    16    20    19   ar
    17    51    54    1
    18    51    53    1
    19    51    44    1
    20    47    43    1
    21    37    31    1
    22    37    40    1
    23    34    30    1
    24    43    44   ar
    25    43    42   ar
    26    31    30   ar
    27    31    32   ar
    28    44    45   ar
    29    30    29   ar
    30     2     8    1
    31     2     1   ar
    32     5    16    1
    33     5     6   ar
    34    16    17   ar
    35    32    42    1
    36    32    33   ar
    37    19    29    1
    38    19    18   ar
    39    29    28   ar
    40    42    41   ar
    41    45    48    1
    42    45    46   ar
    43    33    28   ar
    44    28    36    1
    45     1     6   ar
    46     1    10    1
    47    36    35    3
    48    41    46   ar
    49    41    50    1
    50    17    18   ar
    51    17    21    1
    52    18    24    1
    53    10     9    3
    54    50    49    3
    55    24    26    1
    56    24    27    1
    57    24    25    1
