@<TRIPOS>MOLECULE
mol_data/opt/b3lyp/geoms/mol2/6di6di-4di6di.out
 55 58 0 0 0
SMALL
GASTEIGER

@<TRIPOS>ATOM
      1 C          -4.5633   -2.2907   -0.1236 C.ar    1  LIG1        0.1407
      2 C          -3.1723   -2.4085   -0.2251 C.ar    1  LIG1       -0.0255
      3 C          -2.4286   -1.2369   -0.2621 C.ar    1  LIG1       -0.0541
      4 C          -3.0556    0.0150   -0.2290 C.ar    1  LIG1       -0.0243
      5 C          -4.4704    0.0116   -0.1791 C.ar    1  LIG1        0.0781
      6 N          -5.1981   -1.1122   -0.0977 N.ar    1  LIG1       -0.2360
      7 H          -1.3443   -1.2861   -0.3035 H       1  LIG1        0.0622
      8 H          -2.7013   -3.3847   -0.2517 H       1  LIG1        0.0646
      9 N          -6.0200   -4.4432    0.0546 N.1     1  LIG1       -0.1893
     10 C          -5.3851   -3.4732   -0.0275 C.1     1  LIG1        0.1191
     11 C          -2.2164    1.2675   -0.2091 C.3     1  LIG1       -0.0377
     12 H          -2.7225    2.0949    0.2933 H       1  LIG1        0.0278
     13 H          -1.9783    1.5979   -1.2251 H       1  LIG1        0.0278
     14 H          -1.2722    1.0808    0.3101 H       1  LIG1        0.0278
     15 C          -5.2605    2.2606   -1.1312 C.ar    1  LIG1        0.1499
     16 C          -5.2952    1.2568   -0.1447 C.ar    1  LIG1        0.0368
     17 C          -6.2137    1.4435    0.8922 C.ar    1  LIG1       -0.0449
     18 C          -7.0173    2.5810    0.9659 C.ar    1  LIG1       -0.0237
     19 C          -6.8625    3.5365   -0.0666 C.ar    1  LIG1        0.0766
     20 N          -6.0125    3.3678   -1.0836 N.ar    1  LIG1       -0.2354
     21 H          -6.2888    0.6797    1.6600 H       1  LIG1        0.0628
     22 N          -3.7669    1.9970   -3.2500 N.1     1  LIG1       -0.1893
     23 C          -4.4326    2.1257   -2.3060 C.1     1  LIG1        0.1198
     24 C          -7.9717    2.7592    2.1209 C.3     1  LIG1       -0.0377
     25 H          -7.6603    2.1490    2.9723 H       1  LIG1        0.0278
     26 H          -8.9878    2.4481    1.8526 H       1  LIG1        0.0278
     27 H          -8.0267    3.8016    2.4439 H       1  LIG1        0.0278
     28 C          -6.9575    6.0596   -0.1369 C.ar    1  LIG1        0.0615
     29 C          -7.6966    7.2457   -0.2208 C.ar    1  LIG1       -0.0357
     30 C          -7.6292    4.8189   -0.1047 C.ar    1  LIG1        0.0183
     31 C          -9.0940    7.2351   -0.2846 C.ar    1  LIG1       -0.0110
     32 H          -7.1670    8.1922   -0.2459 H       1  LIG1        0.0637
     33 C          -9.0235    4.8257   -0.1476 C.ar    1  LIG1       -0.0478
     34 C          -9.7801    6.0013   -0.2384 C.ar    1  LIG1       -0.0420
     35 H          -9.5495    3.8760   -0.1283 H       1  LIG1        0.0627
     36 N          -4.3783    6.2571    0.0943 N.1     1  LIG1       -0.1908
     37 C          -5.5290    6.1441   -0.0320 C.1     1  LIG1        0.0998
     38 C         -11.2857    5.9051   -0.2762 C.3     1  LIG1       -0.0391
     39 H         -11.6243    4.9720    0.1812 H       1  LIG1        0.0278
     40 H         -11.6518    5.9198   -1.3083 H       1  LIG1        0.0278
     41 H         -11.7603    6.7362    0.2521 H       1  LIG1        0.0278
     42 C         -10.5511    8.9730   -1.4672 C.ar    1  LIG1        0.1477
     43 C          -9.7946    8.5514   -0.3516 C.ar    1  LIG1        0.0185
     44 C          -9.6818    9.4638    0.7030 C.ar    1  LIG1       -0.0469
     45 C         -10.3060   10.7125    0.6460 C.ar    1  LIG1       -0.0317
     46 C         -11.0427   10.9960   -0.5131 C.ar    1  LIG1        0.0320
     47 N         -11.1644   10.1637   -1.5455 N.ar    1  LIG1       -0.2438
     48 H          -9.1042    9.1843    1.5804 H       1  LIG1        0.0628
     49 H         -11.5570   11.9506   -0.6097 H       1  LIG1        0.0832
     50 N         -10.8027    7.4337   -3.5550 N.1     1  LIG1       -0.1893
     51 C         -10.6880    8.1259   -2.6282 C.1     1  LIG1        0.1197
     52 C         -10.1952   11.7082    1.7707 C.3     1  LIG1       -0.0383
     53 H         -10.7999   12.5971    1.5746 H       1  LIG1        0.0278
     54 H          -9.1578   12.0321    1.9096 H       1  LIG1        0.0278
     55 H         -10.5290   11.2743    2.7192 H       1  LIG1        0.0278
@<TRIPOS>BOND
     1    50    51    3
     2    22    23    3
     3    51    42    1
     4    23    15    1
     5    47    42   ar
     6    47    46   ar
     7    42    43   ar
     8    40    38    1
     9    13    11    1
    10    15    20   ar
    11    15    16   ar
    12    20    19   ar
    13    49    46    1
    14    46    45   ar
    15    43    31    1
    16    43    44   ar
    17     7     3    1
    18    31    34   ar
    19    31    29   ar
    20    38    34    1
    21    38    39    1
    22    38    41    1
    23     3     4   ar
    24     3     2   ar
    25     8     2    1
    26    32    29    1
    27    34    33   ar
    28     4    11    1
    29     4     5   ar
    30     2     1   ar
    31    29    28   ar
    32    11    12    1
    33    11    14    1
    34     5    16    1
    35     5     6   ar
    36    33    35    1
    37    33    30   ar
    38    16    17   ar
    39    28    30   ar
    40    28    37    1
    41     1     6   ar
    42     1    10    1
    43    30    19    1
    44    19    18   ar
    45    37    36    3
    46    10     9    3
    47    45    44   ar
    48    45    52    1
    49    44    48    1
    50    17    18   ar
    51    17    21    1
    52    18    24    1
    53    53    52    1
    54    52    54    1
    55    52    55    1
    56    26    24    1
    57    24    27    1
    58    24    25    1
