@<TRIPOS>MOLECULE
mol_data/opt/b3lyp/geoms/mol2/6di6di6di-6di.out
 54 57 0 0 0
SMALL
GASTEIGER

@<TRIPOS>ATOM
      1 C          -3.9852   -1.7869   -1.6157 C.ar    1  LIG1        0.1407
      2 C          -2.9881   -2.2269   -0.7376 C.ar    1  LIG1       -0.0255
      3 C          -2.7346   -1.4583    0.3917 C.ar    1  LIG1       -0.0541
      4 C          -3.4489   -0.2785    0.6256 C.ar    1  LIG1       -0.0243
      5 C          -4.4229    0.0743   -0.3370 C.ar    1  LIG1        0.0781
      6 N          -4.6895   -0.6645   -1.4204 N.ar    1  LIG1       -0.2360
      7 H          -1.9827   -1.7795    1.1070 H       1  LIG1        0.0622
      8 H          -2.4454   -3.1442   -0.9359 H       1  LIG1        0.0646
      9 N          -4.4950   -3.1943   -3.7472 N.1     1  LIG1       -0.1893
     10 C          -4.2888   -2.5532   -2.8003 C.1     1  LIG1        0.1191
     11 C          -3.1869    0.5392    1.8666 C.3     1  LIG1       -0.0377
     12 H          -4.1100    0.9506    2.2825 H       1  LIG1        0.0278
     13 H          -2.5185    1.3836    1.6616 H       1  LIG1        0.0278
     14 H          -2.7090   -0.0735    2.6352 H       1  LIG1        0.0278
     15 C          -6.6578    1.2576   -0.1314 C.ar    1  LIG1        0.1499
     16 C          -5.2516    1.3118   -0.2173 C.ar    1  LIG1        0.0368
     17 C          -4.6820    2.5835   -0.2075 C.ar    1  LIG1       -0.0449
     18 C          -5.4627    3.7434   -0.1589 C.ar    1  LIG1       -0.0237
     19 C          -6.8639    3.5596   -0.1399 C.ar    1  LIG1        0.0781
     20 N          -7.4317    2.3462   -0.0896 N.ar    1  LIG1       -0.2353
     21 H          -3.6008    2.6808   -0.2469 H       1  LIG1        0.0628
     22 N          -7.9022   -1.0192    0.1062 N.1     1  LIG1       -0.1893
     23 C          -7.3467   -0.0072   -0.0243 C.1     1  LIG1        0.1198
     24 C          -4.7858    5.0895   -0.0952 C.3     1  LIG1       -0.0377
     25 H          -5.4052    5.8329    0.4119 H       1  LIG1        0.0278
     26 H          -4.5692    5.4702   -1.0982 H       1  LIG1        0.0278
     27 H          -3.8380    5.0115    0.4449 H       1  LIG1        0.0278
     28 C          -7.9331    5.7068   -1.0610 C.ar    1  LIG1        0.1499
     29 C          -7.8508    4.6808   -0.1001 C.ar    1  LIG1        0.0368
     30 C          -8.8036    4.7187    0.9210 C.ar    1  LIG1       -0.0449
     31 C          -9.7645    5.7282    1.0003 C.ar    1  LIG1       -0.0237
     32 C          -9.7471    6.7012   -0.0285 C.ar    1  LIG1        0.0781
     33 N          -8.8452    6.6871   -1.0172 N.ar    1  LIG1       -0.2353
     34 H          -8.7818    3.9410    1.6780 H       1  LIG1        0.0628
     35 N          -6.3289    5.7779   -3.1131 N.1     1  LIG1       -0.1893
     36 C          -7.0485    5.7465   -2.2008 C.1     1  LIG1        0.1198
     37 C         -10.7231    5.7532    2.1635 C.3     1  LIG1       -0.0377
     38 H         -10.2635    5.2962    3.0437 H       1  LIG1        0.0278
     39 H         -11.6336    5.1916    1.9322 H       1  LIG1        0.0278
     40 H         -11.0219    6.7717    2.4232 H       1  LIG1        0.0278
     41 C         -12.0862    7.7555   -0.1481 C.ar    1  LIG1        0.1492
     42 C         -10.6816    7.8669   -0.0856 C.ar    1  LIG1        0.0367
     43 C         -10.1520    9.1597   -0.1496 C.ar    1  LIG1       -0.0455
     44 C         -10.9881   10.2743   -0.2235 C.ar    1  LIG1       -0.0316
     45 C         -12.3692   10.0263   -0.2378 C.ar    1  LIG1        0.0320
     46 N         -12.9128    8.8117   -0.2155 N.ar    1  LIG1       -0.2437
     47 H          -9.0729    9.2814   -0.1447 H       1  LIG1        0.0628
     48 H         -13.0697   10.8587   -0.2806 H       1  LIG1        0.0832
     49 N         -13.2446    5.4229   -0.2318 N.1     1  LIG1       -0.1893
     50 C         -12.7318    6.4656   -0.1957 C.1     1  LIG1        0.1198
     51 C         -10.4407   11.6756   -0.2963 C.3     1  LIG1       -0.0383
     52 H         -11.2388   12.4182   -0.2197 H       1  LIG1        0.0278
     53 H          -9.9175   11.8430   -1.2445 H       1  LIG1        0.0278
     54 H          -9.7225   11.8643    0.5082 H       1  LIG1        0.0278
@<TRIPOS>BOND
     1     9    10    3
     2    35    36    3
     3    10     1    1
     4    36    28    1
     5     1     6   ar
     6     1     2   ar
     7     6     5   ar
     8    53    51    1
     9    26    24    1
    10    28    33   ar
    11    28    29   ar
    12    33    32   ar
    13     8     2    1
    14     2     3   ar
    15     5    16    1
    16     5     4   ar
    17    51    44    1
    18    51    52    1
    19    51    54    1
    20    48    45    1
    21    21    17    1
    22    45    44   ar
    23    45    46   ar
    24    49    50    3
    25    44    43   ar
    26    16    17   ar
    27    16    15   ar
    28    46    41   ar
    29    17    18   ar
    30    50    41    1
    31    18    19   ar
    32    18    24    1
    33    43    47    1
    34    43    42   ar
    35    41    42   ar
    36    19    29    1
    37    19    20   ar
    38    15    20   ar
    39    15    23    1
    40    29    30   ar
    41    24    25    1
    42    24    27    1
    43    42    32    1
    44    32    31   ar
    45    23    22    3
    46     3     4   ar
    47     3     7    1
    48     4    11    1
    49    30    31   ar
    50    30    34    1
    51    31    37    1
    52    13    11    1
    53    11    12    1
    54    11    14    1
    55    39    37    1
    56    37    40    1
    57    37    38    1
