@<TRIPOS>MOLECULE
mol_data/opt/b3lyp/geoms/mol2/6di6di.out
 28 29 0 0 0
SMALL
GASTEIGER

@<TRIPOS>ATOM
      1 C          -4.2876   -1.5554   -1.3702 C.ar    1  LIG1        0.1407
      2 C          -3.2802   -2.1064   -0.5700 C.ar    1  LIG1       -0.0255
      3 C          -2.8650   -1.3752    0.5345 C.ar    1  LIG1       -0.0541
      4 C          -3.4575   -0.1456    0.8470 C.ar    1  LIG1       -0.0243
      5 C          -4.5015    0.2893   -0.0044 C.ar    1  LIG1        0.0781
      6 N          -4.8820   -0.3868   -1.0984 N.ar    1  LIG1       -0.2360
      7 H          -2.0608   -1.7515    1.1605 H       1  LIG1        0.0622
      8 H          -2.8328   -3.0607   -0.8242 H       1  LIG1        0.0646
      9 N          -5.0514   -2.8225   -3.5146 N.1     1  LIG1       -0.1893
     10 C          -4.7249   -2.2456   -2.5600 C.1     1  LIG1        0.1191
     11 C          -2.9453    0.6517    2.0196 C.3     1  LIG1       -0.0377
     12 H          -3.4623    0.3703    2.9425 H       1  LIG1        0.0278
     13 H          -3.0888    1.7252    1.8773 H       1  LIG1        0.0278
     14 H          -1.8773    0.4669    2.1650 H       1  LIG1        0.0278
     15 C          -5.9760    1.8945    1.3495 C.ar    1  LIG1        0.1492
     16 C          -5.2423    1.5737    0.1886 C.ar    1  LIG1        0.0367
     17 C          -5.2867    2.5012   -0.8571 C.ar    1  LIG1       -0.0455
     18 C          -5.9883    3.6997   -0.7221 C.ar    1  LIG1       -0.0316
     19 C          -6.6435    3.9133    0.5007 C.ar    1  LIG1        0.0320
     20 N          -6.6563    3.0417    1.5065 N.ar    1  LIG1       -0.2437
     21 H          -4.7668    2.2686   -1.7817 H       1  LIG1        0.0628
     22 H          -7.1955    4.8370    0.6662 H       1  LIG1        0.0832
     23 N          -6.1593    0.2016    3.3224 N.1     1  LIG1       -0.1893
     24 C          -6.0816    0.9606    2.4452 C.1     1  LIG1        0.1198
     25 C          -6.0537    4.7120   -1.8354 C.3     1  LIG1       -0.0383
     26 H          -6.5374    5.6349   -1.5057 H       1  LIG1        0.0278
     27 H          -6.6223    4.3211   -2.6867 H       1  LIG1        0.0278
     28 H          -5.0536    4.9645   -2.2024 H       1  LIG1        0.0278
@<TRIPOS>BOND
     1     9    10    3
     2    27    25    1
     3    10     1    1
     4    28    25    1
     5    25    26    1
     6    25    18    1
     7    21    17    1
     8     1     6   ar
     9     1     2   ar
    10     6     5   ar
    11    17    18   ar
    12    17    16   ar
    13     8     2    1
    14    18    19   ar
    15     2     3   ar
    16     5    16    1
    17     5     4   ar
    18    16    15   ar
    19    19    22    1
    20    19    20   ar
    21     3     4   ar
    22     3     7    1
    23     4    11    1
    24    15    20   ar
    25    15    24    1
    26    13    11    1
    27    11    14    1
    28    11    12    1
    29    24    23    3
