@<TRIPOS>MOLECULE
mol_data/opt/b3lyp/geoms/mol2/6di6di-6di6di-.out
 54 57 0 0 0
SMALL
GASTEIGER

@<TRIPOS>ATOM
      1 C          -4.3585   -2.1302   -0.9093 C.ar    1  LIG1        0.1407
      2 C          -3.0355   -2.2922   -0.4812 C.ar    1  LIG1       -0.0255
      3 C          -2.4183   -1.2070    0.1255 C.ar    1  LIG1       -0.0541
      4 C          -3.0906    0.0127    0.2726 C.ar    1  LIG1       -0.0243
      5 C          -4.4056    0.0765   -0.2465 C.ar    1  LIG1        0.0781
      6 N          -5.0290   -0.9774   -0.7930 N.ar    1  LIG1       -0.2360
      7 H          -1.4052   -1.3040    0.5053 H       1  LIG1        0.0622
      8 H          -2.5278   -3.2422   -0.6042 H       1  LIG1        0.0646
      9 N          -5.6118   -4.1586   -1.9584 N.1     1  LIG1       -0.1893
     10 C          -5.0684   -3.2411   -1.4964 C.1     1  LIG1        0.1191
     11 C          -2.4147    1.1528    0.9917 C.3     1  LIG1       -0.0377
     12 H          -3.1365    1.8196    1.4690 H       1  LIG1        0.0278
     13 H          -1.8161    1.7550    0.3011 H       1  LIG1        0.0278
     14 H          -1.7450    0.7673    1.7655 H       1  LIG1        0.0278
     15 C          -4.9098    2.5430   -0.7530 C.ar    1  LIG1        0.1499
     16 C          -5.2592    1.3025   -0.1850 C.ar    1  LIG1        0.0368
     17 C          -6.5151    1.2369    0.4224 C.ar    1  LIG1       -0.0449
     18 C          -7.3650    2.3428    0.4847 C.ar    1  LIG1       -0.0237
     19 C          -6.9007    3.5326   -0.1254 C.ar    1  LIG1        0.0781
     20 N          -5.7017    3.6225   -0.7124 N.ar    1  LIG1       -0.2353
     21 H          -6.8279    0.2962    0.8649 H       1  LIG1        0.0628
     22 N          -2.6617    2.8494   -2.0344 N.1     1  LIG1       -0.1893
     23 C          -3.6671    2.7188   -1.4658 C.1     1  LIG1        0.1198
     24 C          -8.6834    2.2302    1.2071 C.3     1  LIG1       -0.0377
     25 H          -8.6143    1.4925    2.0109 H       1  LIG1        0.0278
     26 H          -9.4768    1.9080    0.5255 H       1  LIG1        0.0278
     27 H          -8.9908    3.1835    1.6438 H       1  LIG1        0.0278
     28 C          -8.9419    4.9796   -0.7062 C.ar    1  LIG1        0.1499
     29 C          -7.6673    4.8163   -0.1306 C.ar    1  LIG1        0.0368
     30 C          -7.0923    5.9626    0.4223 C.ar    1  LIG1       -0.0449
     31 C          -7.7498    7.1945    0.4234 C.ar    1  LIG1       -0.0237
     32 C          -9.0217    7.2335   -0.1971 C.ar    1  LIG1        0.0781
     33 N          -9.5963    6.1478   -0.7294 N.ar    1  LIG1       -0.2353
     34 H          -6.1081    5.8833    0.8738 H       1  LIG1        0.0628
     35 N         -10.1664    2.9968   -1.8719 N.1     1  LIG1       -0.1893
     36 C          -9.6208    3.8841   -1.3560 C.1     1  LIG1        0.1198
     37 C          -7.1073    8.3793    1.0989 C.3     1  LIG1       -0.0377
     38 H          -7.8508    9.0790    1.4877 H       1  LIG1        0.0278
     39 H          -6.4701    8.9303    0.4002 H       1  LIG1        0.0278
     40 H          -6.4814    8.0473    1.9315 H       1  LIG1        0.0278
     41 C          -9.4765    9.6652   -0.8873 C.ar    1  LIG1        0.1492
     42 C          -9.8740    8.4594   -0.2726 C.ar    1  LIG1        0.0367
     43 C         -11.1793    8.4114    0.2272 C.ar    1  LIG1       -0.0455
     44 C         -12.0164    9.5255    0.1546 C.ar    1  LIG1       -0.0316
     45 C         -11.4838   10.6760   -0.4471 C.ar    1  LIG1        0.0320
     46 N         -10.2608   10.7522   -0.9668 N.ar    1  LIG1       -0.2437
     47 H         -11.5336    7.4855    0.6704 H       1  LIG1        0.0628
     48 H         -12.0874   11.5791   -0.5204 H       1  LIG1        0.0832
     49 N          -7.1509    9.8786   -2.0432 N.1     1  LIG1       -0.1893
     50 C          -8.1899    9.7876   -1.5297 C.1     1  LIG1        0.1198
     51 C         -13.4261    9.4963    0.6840 C.3     1  LIG1       -0.0383
     52 H         -13.4511    9.1754    1.7306 H       1  LIG1        0.0278
     53 H         -14.0440    8.7934    0.1142 H       1  LIG1        0.0278
     54 H         -13.8946   10.4816    0.6206 H       1  LIG1        0.0278
@<TRIPOS>BOND
     1    49    50    3
     2    22    23    3
     3     9    10    3
     4    35    36    3
     5    50    41    1
     6    10     1    1
     7    23    15    1
     8    36    28    1
     9    46    41   ar
    10    46    45   ar
    11     1     6   ar
    12     1     2   ar
    13    41    42   ar
    14     6     5   ar
    15    15    20   ar
    16    15    16   ar
    17    33    28   ar
    18    33    32   ar
    19    20    19   ar
    20    28    29   ar
    21     8     2    1
    22    48    45    1
    23     2     3   ar
    24    45    44   ar
    25    42    32    1
    26    42    43   ar
    27     5    16    1
    28     5     4   ar
    29    32    31   ar
    30    16    17   ar
    31    29    19    1
    32    29    30   ar
    33    19    18   ar
    34    53    51    1
    35     3     4   ar
    36     3     7    1
    37    44    43   ar
    38    44    51    1
    39    43    47    1
    40     4    11    1
    41    13    11    1
    42    39    37    1
    43    30    31   ar
    44    30    34    1
    45    17    18   ar
    46    17    21    1
    47    31    37    1
    48    18    24    1
    49    26    24    1
    50    54    51    1
    51    51    52    1
    52    11    12    1
    53    11    14    1
    54    37    38    1
    55    37    40    1
    56    24    27    1
    57    24    25    1
