@<TRIPOS>MOLECULE
mol_data/opt/b3lyp/geoms/mol2/6dl12ae13ea-6hh-.out
 48 51 0 0 0
SMALL
GASTEIGER

@<TRIPOS>ATOM
      1 C          -4.4917   -2.0526   -0.5670 C.ar    1  LIG1        0.1411
      2 C          -3.1037   -2.1301   -0.4356 C.ar    1  LIG1       -0.0223
      3 C          -2.4075   -0.9583   -0.1426 C.ar    1  LIG1       -0.0150
      4 C          -3.1111    0.2353    0.0076 C.ar    1  LIG1        0.1491
      5 C          -4.5311    0.2194   -0.1440 C.ar    1  LIG1        0.1489
      6 N          -5.1844   -0.9135   -0.4259 N.ar    1  LIG1       -0.2296
      7 H          -1.3305   -0.9852   -0.0345 H       1  LIG1        0.0656
      8 H          -2.5860   -3.0745   -0.5584 H       1  LIG1        0.0647
      9 N          -5.8573   -4.2018   -1.1177 N.1     1  LIG1       -0.1893
     10 C          -5.2580   -3.2365   -0.8713 C.1     1  LIG1        0.1191
     11 O          -2.5391    1.4295    0.2915 O.3     1  LIG1       -0.4929
     12 C          -1.1233    1.4932    0.4449 C.3     1  LIG1        0.0789
     13 H          -0.8953    2.5368    0.6612 H       1  LIG1        0.0660
     14 H          -0.7847    0.8662    1.2777 H       1  LIG1        0.0660
     15 H          -0.6099    1.1913   -0.4753 H       1  LIG1        0.0660
     16 C          -5.3408    1.4200   -0.0019 C.ar    1  LIG1        0.1587
     17 C          -5.0970    2.7364    0.2954 C.ar    1  LIG1        0.0019
     18 C          -6.3576    3.4167    0.2976 C.ar    1  LIG1        0.0725
     19 C          -7.3083    2.4537   -0.0276 C.ar    1  LIG1        0.1683
     20 O          -6.6887    1.2504   -0.1996 O.2     1  LIG1       -0.4504
     21 H          -4.1403    3.1798    0.5111 H       1  LIG1        0.0668
     22 C          -6.5537    4.7685    0.6705 C.1     1  LIG1       -0.0658
     23 C          -6.6695    5.9191    1.0265 C.1     1  LIG1       -0.1138
     24 H          -6.8048    6.9292    1.3356 H       1  LIG1        0.1232
     25 C          -8.7365    2.4043   -0.1707 C.ar    1  LIG1        0.0993
     26 C          -9.7168    3.3476   -0.5388 C.ar    1  LIG1        0.0536
     27 C         -10.9615    2.6607   -0.5474 C.ar    1  LIG1       -0.0202
     28 C         -10.7328    1.3331   -0.2038 C.ar    1  LIG1        0.0515
     29 N          -9.3806    1.2044    0.0056 N.ar    1  LIG1       -0.3507
     30 H          -8.9459    0.3353    0.2987 H       1  LIG1        0.1660
     31 C          -9.5261    4.6912   -0.9455 C.1     1  LIG1       -0.0674
     32 C          -9.4123    5.8339   -1.3284 C.1     1  LIG1       -0.1138
     33 H          -9.2839    6.8371   -1.6612 H       1  LIG1        0.1232
     34 H         -11.9096    3.1024   -0.8145 H       1  LIG1        0.0651
     35 C         -11.2657   -1.1384   -0.0015 C.ar    1  LIG1        0.1254
     36 C         -11.6684    0.2235   -0.0211 C.ar    1  LIG1        0.0396
     37 C         -13.0290    0.4849    0.1791 C.ar    1  LIG1       -0.0272
     38 C         -13.9351   -0.5533    0.4178 C.ar    1  LIG1        0.0437
     39 C         -13.4062   -1.8507    0.4682 C.ar    1  LIG1        0.0503
     40 N         -12.1195   -2.1296    0.2518 N.ar    1  LIG1       -0.2382
     41 H         -13.3772    1.5138    0.1926 H       1  LIG1        0.0644
     42 H         -14.0553   -2.6983    0.6870 H       1  LIG1        0.0849
     43 N          -9.9130   -1.5085   -0.1950 N.pl3   1  LIG1       -0.3426
     44 H          -9.8309   -2.5177   -0.1169 H       1  LIG1        0.1437
     45 H          -9.5429   -1.2125   -1.0952 H       1  LIG1        0.1437
     46 N         -15.2864   -0.3051    0.6839 N.pl3   1  LIG1       -0.3568
     47 H         -15.6549    0.5295    0.2475 H       1  LIG1        0.1424
     48 H         -15.8943   -1.0973    0.5226 H       1  LIG1        0.1424
@<TRIPOS>BOND
     1    33    32    1
     2    32    31    3
     3     9    10    3
     4    45    43    1
     5    31    26    1
     6    10     1    1
     7    34    27    1
     8     1     2   ar
     9     1     6   ar
    10     8     2    1
    11    27    26   ar
    12    27    28   ar
    13    26    25   ar
    14    15    12    1
    15     2     3   ar
    16     6     5   ar
    17    28    36    1
    18    28    29   ar
    19    20    19   ar
    20    20    16   ar
    21    43    44    1
    22    43    35    1
    23    25    19    1
    24    25    29   ar
    25     5    16    1
    26     5     4   ar
    27     3     7    1
    28     3     4   ar
    29    19    18   ar
    30    36    35   ar
    31    36    37   ar
    32    16    17   ar
    33    35    40   ar
    34    29    30    1
    35     4    11    1
    36    37    41    1
    37    37    38   ar
    38    47    46    1
    39    40    39   ar
    40    11    12    1
    41    17    18   ar
    42    17    21    1
    43    18    22    1
    44    38    39   ar
    45    38    46    1
    46    12    13    1
    47    12    14    1
    48    39    42    1
    49    48    46    1
    50    22    23    3
    51    23    24    1
