@<TRIPOS>MOLECULE
mol_data/opt/b3lyp/geoms/mol2/6dl4da-4ah-13fl.out
 52 55 0 0 0
SMALL
GASTEIGER

@<TRIPOS>ATOM
      1 C          -4.1734   -2.1329    1.3979 C.ar    1  LIG1        0.1410
      2 C          -3.0220   -2.4627    0.6773 C.ar    1  LIG1       -0.0223
      3 C          -2.5599   -1.5646   -0.2791 C.ar    1  LIG1       -0.0151
      4 C          -3.2540   -0.3677   -0.4766 C.ar    1  LIG1        0.1461
      5 C          -4.3729   -0.0821    0.3546 C.ar    1  LIG1        0.1151
      6 N          -4.8257   -0.9686    1.2416 N.ar    1  LIG1       -0.2326
      7 H          -1.6850   -1.8051   -0.8702 H       1  LIG1        0.0656
      8 H          -2.5117   -3.4027    0.8550 H       1  LIG1        0.0647
      9 N          -5.1192   -3.8261    3.1346 N.1     1  LIG1       -0.1893
     10 C          -4.7088   -3.0563    2.3660 C.1     1  LIG1        0.1191
     11 O          -2.9630    0.5374   -1.4336 O.3     1  LIG1       -0.4930
     12 C          -1.7190    0.4363   -2.1250 C.3     1  LIG1        0.0789
     13 H          -1.6703    1.3121   -2.7711 H       1  LIG1        0.0660
     14 H          -0.8798    0.4567   -1.4220 H       1  LIG1        0.0660
     15 H          -1.6768   -0.4714   -2.7383 H       1  LIG1        0.0660
     16 C          -4.5399    2.4727    0.2727 C.ar    1  LIG1        0.0616
     17 C          -5.3288    3.6300    0.2096 C.ar    1  LIG1       -0.0360
     18 C          -5.1389    1.1909    0.2555 C.ar    1  LIG1        0.0214
     19 C          -6.7266    3.5609    0.1361 C.ar    1  LIG1       -0.0166
     20 H          -4.8341    4.5948    0.2060 H       1  LIG1        0.0637
     21 C          -6.5366    1.1315    0.2088 C.ar    1  LIG1       -0.0506
     22 C          -7.3127    2.2826    0.1460 C.ar    1  LIG1       -0.0533
     23 H          -7.0111    0.1567    0.2383 H       1  LIG1        0.0625
     24 N          -1.9781    2.8170    0.5412 N.1     1  LIG1       -0.1908
     25 C          -3.1215    2.6446    0.4108 C.1     1  LIG1        0.0998
     26 H          -8.3942    2.1922    0.1332 H       1  LIG1        0.0624
     27 C          -7.1781    5.9632    0.7362 C.ar    1  LIG1       -0.0533
     28 C          -7.9769    7.0970    0.6739 C.ar    1  LIG1       -0.0502
     29 C          -7.5500    4.7890    0.0629 C.ar    1  LIG1       -0.0161
     30 C          -9.1769    7.1275   -0.0619 C.ar    1  LIG1        0.0226
     31 H          -7.6880    7.9842    1.2245 H       1  LIG1        0.0625
     32 C          -8.7276    4.8169   -0.6983 C.ar    1  LIG1       -0.0327
     33 C          -9.5308    5.9553   -0.7834 C.ar    1  LIG1        0.0345
     34 H          -9.0072    3.9425   -1.2811 H       1  LIG1        0.0642
     35 H          -6.2854    5.9767    1.3530 H       1  LIG1        0.0624
     36 N         -10.7126    5.9251   -1.5662 N.pl3   1  LIG1       -0.3574
     37 H         -10.7872    6.7323   -2.1793 H       1  LIG1        0.1423
     38 H         -10.7776    5.0781   -2.1198 H       1  LIG1        0.1423
     39 C         -10.0089    8.3258   -0.0398 C.ar    1  LIG1        0.0940
     40 C          -9.7010    9.6348    0.3209 C.ar    1  LIG1        0.1844
     41 C         -10.8908   10.4031    0.2639 C.ar    1  LIG1        0.1792
     42 C         -11.9209    9.5668   -0.1246 C.ar    1  LIG1        0.0481
     43 N         -11.3712    8.3238   -0.3319 N.ar    1  LIG1       -0.3546
     44 H         -11.8856    7.4646   -0.4592 H       1  LIG1        0.1656
     45 H         -12.9692    9.7574   -0.2880 H       1  LIG1        0.0845
     46 O          -8.4693   10.1215    0.6586 O.3     1  LIG1       -0.5019
     47 H          -8.5790   11.0681    0.8299 H       1  LIG1        0.2924
     48 O         -10.8597   11.7406    0.5449 O.3     1  LIG1       -0.4900
     49 C         -12.1095   12.4076    0.4710 C.3     1  LIG1        0.0790
     50 H         -11.9250   13.4525    0.7242 H       1  LIG1        0.0660
     51 H         -12.5308   12.3464   -0.5415 H       1  LIG1        0.0660
     52 H         -12.8283   11.9805    1.1831 H       1  LIG1        0.0660
@<TRIPOS>BOND
     1    13    12    1
     2    15    12    1
     3    37    36    1
     4    12    11    1
     5    12    14    1
     6    38    36    1
     7    36    33    1
     8    11     4    1
     9    34    32    1
    10     7     3    1
    11    33    32   ar
    12    33    30   ar
    13    32    29   ar
    14    51    49    1
    15     4     3   ar
    16     4     5   ar
    17    44    43    1
    18    43    42   ar
    19    43    39   ar
    20    45    42    1
    21     3     2   ar
    22    42    41   ar
    23    30    39    1
    24    30    28   ar
    25    39    40   ar
    26    29    19    1
    27    29    27   ar
    28    26    22    1
    29    19    22   ar
    30    19    17   ar
    31    22    21   ar
    32    20    17    1
    33    21    23    1
    34    21    18   ar
    35    17    16   ar
    36    18    16   ar
    37    18     5    1
    38    41    40   ar
    39    41    48    1
    40    16    25    1
    41    40    46    1
    42     5     6   ar
    43    25    24    3
    44    49    48    1
    45    49    50    1
    46    49    52    1
    47    46    47    1
    48    28    27   ar
    49    28    31    1
    50     2     8    1
    51     2     1   ar
    52    27    35    1
    53     6     1   ar
    54     1    10    1
    55    10     9    3
