@<TRIPOS>MOLECULE
mol_data/opt/b3lyp/geoms/mol2/6dl6dl-.out
 30 31 0 0 0
SMALL
GASTEIGER

@<TRIPOS>ATOM
      1 C          -4.5165   -2.0721    0.5811 C.ar    1  LIG1        0.1410
      2 C          -3.1737   -2.1842    0.2067 C.ar    1  LIG1       -0.0223
      3 C          -2.5074   -1.0438   -0.2283 C.ar    1  LIG1       -0.0151
      4 C          -3.1986    0.1708   -0.2671 C.ar    1  LIG1        0.1461
      5 C          -4.5406    0.2019    0.1992 C.ar    1  LIG1        0.1167
      6 N          -5.1791   -0.9033    0.5805 N.ar    1  LIG1       -0.2326
      7 H          -1.4739   -1.1067   -0.5457 H       1  LIG1        0.0656
      8 H          -2.6709   -3.1442    0.2464 H       1  LIG1        0.0647
      9 N          -5.8171   -4.2005    1.3255 N.1     1  LIG1       -0.1893
     10 C          -5.2507   -3.2392    0.9992 C.1     1  LIG1        0.1191
     11 O          -2.6989    1.3254   -0.7499 O.3     1  LIG1       -0.4930
     12 C          -1.2928    1.4291   -0.9786 C.3     1  LIG1        0.0789
     13 H          -1.1192    2.4649   -1.2674 H       1  LIG1        0.0660
     14 H          -0.7336    1.2080   -0.0639 H       1  LIG1        0.0660
     15 H          -0.9725    0.7654   -1.7899 H       1  LIG1        0.0660
     16 C          -4.8806    2.6549    0.8694 C.ar    1  LIG1        0.1495
     17 C          -5.3331    1.4634    0.2510 C.ar    1  LIG1        0.0433
     18 C          -6.6209    1.4720   -0.2752 C.ar    1  LIG1       -0.0064
     19 C          -7.3936    2.6359   -0.2143 C.ar    1  LIG1        0.1388
     20 C          -6.8353    3.7725    0.3947 C.ar    1  LIG1        0.0707
     21 N          -5.6163    3.7722    0.9319 N.ar    1  LIG1       -0.2403
     22 H          -7.0340    0.5789   -0.7298 H       1  LIG1        0.0662
     23 H          -7.3845    4.7061    0.4635 H       1  LIG1        0.0867
     24 N          -2.5785    2.7654    2.0835 N.1     1  LIG1       -0.1893
     25 C          -3.6027    2.7221    1.5346 C.1     1  LIG1        0.1198
     26 O          -8.6314    2.5704   -0.7562 O.3     1  LIG1       -0.4936
     27 C          -9.4593    3.7303   -0.7045 C.3     1  LIG1        0.0789
     28 H         -10.3972    3.4455   -1.1811 H       1  LIG1        0.0660
     29 H          -9.6546    4.0356    0.3300 H       1  LIG1        0.0660
     30 H          -9.0112    4.5664   -1.2541 H       1  LIG1        0.0660
@<TRIPOS>BOND
     1    15    12    1
     2    13    12    1
     3    30    27    1
     4    28    27    1
     5    12    11    1
     6    12    14    1
     7    26    27    1
     8    26    19    1
     9    11     4    1
    10    22    18    1
    11    27    29    1
    12     7     3    1
    13    18    19   ar
    14    18    17   ar
    15     4     3   ar
    16     4     5   ar
    17     3     2   ar
    18    19    20   ar
    19     5    17    1
    20     5     6   ar
    21     2     8    1
    22     2     1   ar
    23    17    16   ar
    24    20    23    1
    25    20    21   ar
    26     6     1   ar
    27     1    10    1
    28    16    21   ar
    29    16    25    1
    30    10     9    3
    31    25    24    3
