@<TRIPOS>MOLECULE
mol_data/opt/b3lyp/geoms/mol2/6dl6ad-12da12ae-6ae-6ii13ad12ef-.out
 88 95 0 0 0
SMALL
GASTEIGER

@<TRIPOS>ATOM
      1 C          -3.7900   -1.7530   -1.4482 C.ar    1  LIG1        0.1410
      2 C          -2.3922   -1.7460   -1.4373 C.ar    1  LIG1       -0.0223
      3 C          -1.7437   -0.5646   -1.0971 C.ar    1  LIG1       -0.0151
      4 C          -2.5005    0.5647   -0.7704 C.ar    1  LIG1        0.1461
      5 C          -3.9225    0.4646   -0.7893 C.ar    1  LIG1        0.1154
      6 N          -4.5242   -0.6771   -1.1331 N.ar    1  LIG1       -0.2326
      7 H          -0.6617   -0.5278   -1.0910 H       1  LIG1        0.0656
      8 H          -1.8331   -2.6395   -1.6912 H       1  LIG1        0.0647
      9 N          -5.0506   -3.9358   -2.0990 N.1     1  LIG1       -0.1893
     10 C          -4.5051   -2.9522   -1.8060 C.1     1  LIG1        0.1191
     11 O          -1.9637    1.7635   -0.4478 O.3     1  LIG1       -0.4930
     12 C          -0.5455    1.9288   -0.4968 C.3     1  LIG1        0.0789
     13 H          -0.3633    2.9714   -0.2383 H       1  LIG1        0.0660
     14 H          -0.0443    1.2794    0.2295 H       1  LIG1        0.0660
     15 H          -0.1596    1.7283   -1.5023 H       1  LIG1        0.0660
     16 C          -6.1366    1.5921   -1.0193 C.ar    1  LIG1        0.0377
     17 C          -4.8336    1.5953   -0.4759 C.ar    1  LIG1        0.0233
     18 C          -4.5151    2.6543    0.3756 C.ar    1  LIG1       -0.0314
     19 C          -5.4592    3.6618    0.6205 C.ar    1  LIG1        0.0814
     20 C          -6.7057    3.5988   -0.0451 C.ar    1  LIG1        0.1246
     21 N          -7.0310    2.5548   -0.8273 N.ar    1  LIG1       -0.2499
     22 H          -3.5591    2.6996    0.8775 H       1  LIG1        0.0638
     23 H          -6.4448    0.7609   -1.6460 H       1  LIG1        0.0836
     24 N          -4.8885    5.4204    2.4403 N.1     1  LIG1       -0.1908
     25 C          -5.1564    4.6574    1.6040 C.1     1  LIG1        0.1014
     26 C          -7.7202    4.6460    0.0712 C.ar    1  LIG1        0.1725
     27 C          -7.6829    6.0311    0.0501 C.ar    1  LIG1        0.0997
     28 C          -9.0375    6.4812    0.1207 C.ar    1  LIG1        0.0054
     29 C          -9.8095    5.3494    0.1782 C.ar    1  LIG1        0.1720
     30 O          -9.0153    4.2396    0.1397 O.2     1  LIG1       -0.4488
     31 N          -5.6353    7.5599   -0.3333 N.1     1  LIG1       -0.1907
     32 C          -6.5448    6.8607   -0.1411 C.1     1  LIG1        0.1030
     33 H          -9.3742    7.5063    0.1091 H       1  LIG1        0.0670
     34 C         -11.2289    5.1471    0.2803 C.ar    1  LIG1        0.1718
     35 C         -12.2795    6.0092    0.4423 C.ar    1  LIG1        0.0033
     36 C         -13.4667    5.2083    0.4638 C.ar    1  LIG1        0.0711
     37 C         -13.0508    3.8897    0.3142 C.ar    1  LIG1        0.1526
     38 O         -11.6903    3.8638    0.2030 O.2     1  LIG1       -0.4504
     39 H         -12.2349    7.0832    0.5410 H       1  LIG1        0.0669
     40 C         -14.7864    5.7043    0.6102 C.1     1  LIG1       -0.0658
     41 C         -15.8980    6.1662    0.7371 C.1     1  LIG1       -0.1138
     42 H         -16.8785    6.5690    0.8480 H       1  LIG1        0.1232
     43 C         -12.9959    1.4189    0.0399 C.ar    1  LIG1        0.0390
     44 C         -13.7257    2.6067    0.2514 C.ar    1  LIG1        0.0378
     45 C         -15.1108    2.4765    0.4074 C.ar    1  LIG1       -0.0321
     46 C         -15.7127    1.2136    0.3312 C.ar    1  LIG1        0.0513
     47 C         -14.8854    0.0835    0.0815 C.ar    1  LIG1        0.0880
     48 N         -13.5532    0.2157   -0.0418 N.ar    1  LIG1       -0.2530
     49 H         -15.7294    3.3444    0.5991 H       1  LIG1        0.0638
     50 H         -11.9160    1.4583   -0.0714 H       1  LIG1        0.0837
     51 C         -17.1218    1.1134    0.5496 C.1     1  LIG1       -0.0675
     52 C         -18.3140    1.0814    0.7541 C.1     1  LIG1       -0.1138
     53 H         -19.3627    1.0318    0.9367 H       1  LIG1        0.1232
     54 C         -14.8680   -2.4091    0.5832 C.ar    1  LIG1        0.0482
     55 C         -15.4299   -1.2889   -0.0756 C.ar    1  LIG1        0.0228
     56 C         -16.5114   -1.5248   -0.9296 C.ar    1  LIG1       -0.0458
     57 C         -17.0249   -2.8023   -1.1468 C.ar    1  LIG1       -0.0224
     58 C         -16.3957   -3.8532   -0.4467 C.ar    1  LIG1        0.0903
     59 N         -15.3578   -3.6344    0.3909 N.ar    1  LIG1       -0.2495
     60 H         -16.9604   -0.6888   -1.4564 H       1  LIG1        0.0628
     61 C         -13.7168   -2.3067    1.5521 C.3     1  LIG1       -0.0217
     62 H         -13.8578   -1.4859    2.2615 H       1  LIG1        0.0293
     63 H         -12.7803   -2.1092    1.0237 H       1  LIG1        0.0293
     64 H         -13.6296   -3.2461    2.1004 H       1  LIG1        0.0293
     65 C         -18.1816   -3.0003   -2.0913 C.3     1  LIG1       -0.0376
     66 H         -19.0475   -3.4397   -1.5833 H       1  LIG1        0.0278
     67 H         -17.9175   -3.6659   -2.9207 H       1  LIG1        0.0278
     68 H         -18.4954   -2.0445   -2.5183 H       1  LIG1        0.0278
     69 C         -16.7785   -5.2639   -0.5353 C.ar    1  LIG1        0.0670
     70 C         -17.7474   -5.9907   -1.2170 C.ar    1  LIG1       -0.0168
     71 C         -17.5907   -7.3611   -0.8671 C.ar    1  LIG1        0.0807
     72 C         -16.5183   -7.4428    0.0433 C.ar    1  LIG1        0.1015
     73 N         -16.0590   -6.1698    0.2093 N.ar    1  LIG1       -0.3495
     74 H         -15.2908   -5.8715    0.7964 H       1  LIG1        0.1661
     75 H         -18.4876   -5.6202   -1.9046 H       1  LIG1        0.0652
     76 N         -18.9864   -9.2273   -1.9788 N.1     1  LIG1       -0.1908
     77 C         -18.3462   -8.4135   -1.4457 C.1     1  LIG1        0.1014
     78 C         -15.8753   -8.5287    0.7377 C.ar    1  LIG1        0.1711
     79 C         -16.2513   -9.7976    1.1475 C.ar    1  LIG1        0.1132
     80 C         -15.1034  -10.3296    1.8415 C.ar    1  LIG1        0.1709
     81 C         -14.1379   -9.3688    1.8247 C.ar    1  LIG1        0.1352
     82 O         -14.5998   -8.2643    1.1535 O.2     1  LIG1       -0.4564
     83 H         -13.1315   -9.3129    2.2069 H       1  LIG1        0.1068
     84 C         -17.4986  -10.4465    1.0113 C.1     1  LIG1       -0.0621
     85 C         -18.5617  -11.0162    0.9235 C.1     1  LIG1       -0.1137
     86 H         -19.5026  -11.5008    0.8032 H       1  LIG1        0.1232
     87 O         -15.1022  -11.5709    2.3852 O.3     1  LIG1       -0.5028
     88 H         -14.2493  -11.7354    2.8078 H       1  LIG1        0.2923
@<TRIPOS>BOND
     1    67    65    1
     2    68    65    1
     3     9    10    3
     4    65    66    1
     5    65    57    1
     6    76    77    3
     7    75    70    1
     8    10     1    1
     9     8     2    1
    10    23    16    1
    11    15    12    1
    12    60    56    1
    13     1     2   ar
    14     1     6   ar
    15    77    71    1
    16     2     3   ar
    17    70    71   ar
    18    70    69   ar
    19    57    56   ar
    20    57    58   ar
    21     6     5   ar
    22     3     7    1
    23     3     4   ar
    24    16    21   ar
    25    16    17   ar
    26    56    55   ar
    27    71    72   ar
    28    21    20   ar
    29     5     4   ar
    30     5    17    1
    31     4    11    1
    32    69    58    1
    33    69    73   ar
    34    12    11    1
    35    12    13    1
    36    12    14    1
    37    17    18   ar
    38    58    59   ar
    39    31    32    3
    40    32    27    1
    41    55    47    1
    42    55    54   ar
    43    50    43    1
    44    20    26    1
    45    20    19   ar
    46    48    43   ar
    47    48    47   ar
    48    43    44   ar
    49    72    73   ar
    50    72    78    1
    51    27    26   ar
    52    27    28   ar
    53    26    30   ar
    54    47    46   ar
    55    33    28    1
    56    28    29   ar
    57    30    29   ar
    58    29    34    1
    59    38    34   ar
    60    38    37   ar
    61    73    74    1
    62    44    37    1
    63    44    45   ar
    64    34    35   ar
    65    37    36   ar
    66    46    45   ar
    67    46    51    1
    68    18    19   ar
    69    18    22    1
    70    59    54   ar
    71    45    49    1
    72    35    36   ar
    73    35    39    1
    74    36    40    1
    75    51    52    3
    76    54    61    1
    77    40    41    3
    78    19    25    1
    79    41    42    1
    80    78    79   ar
    81    78    82   ar
    82    52    53    1
    83    86    85    1
    84    85    84    3
    85    84    79    1
    86    63    61    1
    87    79    80   ar
    88    82    81   ar
    89    61    64    1
    90    61    62    1
    91    25    24    3
    92    81    80   ar
    93    81    83    1
    94    80    87    1
    95    87    88    1
