@<TRIPOS>MOLECULE
mol_data/opt/b3lyp/geoms/mol2/6dl6dl6dl6dl-.out
 58 61 0 0 0
SMALL
GASTEIGER

@<TRIPOS>ATOM
      1 C          -3.7827   -1.8138    1.5046 C.ar    1  LIG1        0.1410
      2 C          -2.8141   -2.2072    0.5763 C.ar    1  LIG1       -0.0223
      3 C          -2.5881   -1.4008   -0.5346 C.ar    1  LIG1       -0.0151
      4 C          -3.3323   -0.2269   -0.6810 C.ar    1  LIG1        0.1461
      5 C          -4.3000    0.0874    0.3098 C.ar    1  LIG1        0.1167
      6 N          -4.5093   -0.6927    1.3672 N.ar    1  LIG1       -0.2326
      7 H          -1.8480   -1.6906   -1.2702 H       1  LIG1        0.0656
      8 H          -2.2534   -3.1236    0.7232 H       1  LIG1        0.0647
      9 N          -4.1824   -3.2836    3.6150 N.1     1  LIG1       -0.1893
     10 C          -4.0265   -2.6165    2.6761 C.1     1  LIG1        0.1191
     11 O          -3.2090    0.6426   -1.7108 O.3     1  LIG1       -0.4930
     12 C          -2.3334    0.3090   -2.7874 C.3     1  LIG1        0.0789
     13 H          -2.4358    1.1165   -3.5119 H       1  LIG1        0.0660
     14 H          -1.2916    0.2494   -2.4513 H       1  LIG1        0.0660
     15 H          -2.6247   -0.6382   -3.2546 H       1  LIG1        0.0660
     16 C          -6.5573    1.2239    0.2341 C.ar    1  LIG1        0.1502
     17 C          -5.1520    1.3064    0.2092 C.ar    1  LIG1        0.0433
     18 C          -4.5841    2.5804    0.1255 C.ar    1  LIG1       -0.0058
     19 C          -5.4053    3.7072    0.0990 C.ar    1  LIG1        0.1467
     20 C          -6.8103    3.5185    0.1380 C.ar    1  LIG1        0.1168
     21 N          -7.3505    2.3049    0.1933 N.ar    1  LIG1       -0.2319
     22 H          -3.5070    2.6768    0.0859 H       1  LIG1        0.0662
     23 N          -7.7898   -1.0695    0.2573 N.1     1  LIG1       -0.1893
     24 C          -7.2346   -0.0488    0.2624 C.1     1  LIG1        0.1198
     25 O          -4.9607    4.9844    0.0311 O.3     1  LIG1       -0.4929
     26 C          -3.5601    5.2176   -0.1026 C.3     1  LIG1        0.0789
     27 H          -3.4480    6.2985   -0.1844 H       1  LIG1        0.0660
     28 H          -3.0092    4.8585    0.7749 H       1  LIG1        0.0660
     29 H          -3.1636    4.7399   -1.0057 H       1  LIG1        0.0660
     30 C          -8.7853    4.7465   -0.8575 C.ar    1  LIG1        0.1502
     31 C          -7.7561    4.6684    0.1006 C.ar    1  LIG1        0.0433
     32 C          -7.6847    5.6909    1.0495 C.ar    1  LIG1       -0.0058
     33 C          -8.6180    6.7271    1.0279 C.ar    1  LIG1        0.1467
     34 C          -9.5798    6.7478   -0.0142 C.ar    1  LIG1        0.1168
     35 N          -9.6601    5.7632   -0.9067 N.ar    1  LIG1       -0.2319
     36 H          -6.9162    5.6555    1.8104 H       1  LIG1        0.0662
     37 N          -9.0248    3.0059   -2.7791 N.1     1  LIG1       -0.1893
     38 C          -8.9207    3.7632   -1.9036 C.1     1  LIG1        0.1198
     39 O          -8.7029    7.7047    1.9534 O.3     1  LIG1       -0.4929
     40 C          -7.6278    7.8793    2.8759 C.3     1  LIG1        0.0789
     41 H          -7.8802    8.7665    3.4555 H       1  LIG1        0.0660
     42 H          -7.5373    7.0185    3.5484 H       1  LIG1        0.0660
     43 H          -6.6844    8.0467    2.3462 H       1  LIG1        0.0660
     44 C         -10.2337    9.2208   -0.1762 C.ar    1  LIG1        0.1495
     45 C         -10.5759    7.8461   -0.1578 C.ar    1  LIG1        0.0433
     46 C         -11.9150    7.5229   -0.3516 C.ar    1  LIG1       -0.0064
     47 C         -12.8623    8.5388   -0.5138 C.ar    1  LIG1        0.1388
     48 C         -12.4186    9.8719   -0.4855 C.ar    1  LIG1        0.0707
     49 N         -11.1358   10.1980   -0.3337 N.ar    1  LIG1       -0.2403
     50 H         -12.2310    6.4863   -0.3808 H       1  LIG1        0.0662
     51 H         -13.1092   10.7015   -0.5984 H       1  LIG1        0.0867
     52 N          -7.7526   10.0028   -0.0377 N.1     1  LIG1       -0.1893
     53 C          -8.8620    9.6579   -0.0894 C.1     1  LIG1        0.1198
     54 O         -14.1460    8.1482   -0.6845 O.3     1  LIG1       -0.4936
     55 C         -15.1451    9.1502   -0.8599 C.3     1  LIG1        0.0789
     56 H         -16.0849    8.6121   -0.9830 H       1  LIG1        0.0660
     57 H         -15.2129    9.8050    0.0168 H       1  LIG1        0.0660
     58 H         -14.9522    9.7548   -1.7537 H       1  LIG1        0.0660
@<TRIPOS>BOND
     1    13    12    1
     2    15    12    1
     3    12    14    1
     4    12    11    1
     5    37    38    3
     6    38    30    1
     7    58    55    1
     8    11     4    1
     9     7     3    1
    10    29    26    1
    11    56    55    1
    12    35    30   ar
    13    35    34   ar
    14    55    54    1
    15    55    57    1
    16    30    31   ar
    17    54    47    1
    18     4     3   ar
    19     4     5   ar
    20    51    48    1
    21     3     2   ar
    22    47    48   ar
    23    47    46   ar
    24    48    49   ar
    25    50    46    1
    26    46    45   ar
    27    49    44   ar
    28    27    26    1
    29    44    45   ar
    30    44    53    1
    31    45    34    1
    32    26    25    1
    33    26    28    1
    34    53    52    3
    35    34    33   ar
    36    25    19    1
    37    22    18    1
    38    19    18   ar
    39    19    20   ar
    40    31    20    1
    41    31    32   ar
    42    18    17   ar
    43    20    21   ar
    44    21    16   ar
    45    17    16   ar
    46    17     5    1
    47    16    24    1
    48    23    24    3
    49     5     6   ar
    50     2     8    1
    51     2     1   ar
    52    33    32   ar
    53    33    39    1
    54    32    36    1
    55     6     1   ar
    56     1    10    1
    57    39    40    1
    58    43    40    1
    59    10     9    3
    60    40    41    1
    61    40    42    1
