@<TRIPOS>MOLECULE
mol_data/opt/b3lyp/geoms/mol2/6dl6aa-13ai6ii.out
 51 54 0 0 0
SMALL
GASTEIGER

@<TRIPOS>ATOM
      1 C          -4.5025   -2.1959   -0.0844 C.ar    1  LIG1        0.1410
      2 C          -3.1412   -2.3129   -0.3703 C.ar    1  LIG1       -0.0223
      3 C          -2.4085   -1.1418   -0.5396 C.ar    1  LIG1       -0.0151
      4 C          -3.0467    0.0932   -0.4112 C.ar    1  LIG1        0.1461
      5 C          -4.4384    0.1255   -0.0909 C.ar    1  LIG1        0.1154
      6 N          -5.1224   -1.0149    0.0535 N.ar    1  LIG1       -0.2326
      7 H          -1.3533   -1.1991   -0.7756 H       1  LIG1        0.0656
      8 H          -2.6738   -3.2868   -0.4605 H       1  LIG1        0.0647
      9 N          -5.9299   -4.3543    0.2090 N.1     1  LIG1       -0.1893
     10 C          -5.3087   -3.3798    0.0825 C.1     1  LIG1        0.1191
     11 O          -2.4197    1.2825   -0.5917 O.3     1  LIG1       -0.4930
     12 C          -1.0504    1.2872   -0.9857 C.3     1  LIG1        0.0789
     13 H          -0.7811    2.3367   -1.1050 H       1  LIG1        0.0660
     14 H          -0.4113    0.8330   -0.2194 H       1  LIG1        0.0660
     15 H          -0.9083    0.7644   -1.9385 H       1  LIG1        0.0660
     16 C          -6.6121    1.3295   -0.1722 C.ar    1  LIG1        0.0376
     17 C          -5.2242    1.3719    0.0666 C.ar    1  LIG1        0.0221
     18 C          -4.6995    2.6095    0.4802 C.ar    1  LIG1       -0.0489
     19 C          -5.5419    3.7003    0.6273 C.ar    1  LIG1       -0.0336
     20 C          -6.9122    3.5550    0.3539 C.ar    1  LIG1        0.0871
     21 N          -7.4302    2.3691   -0.0446 N.ar    1  LIG1       -0.2529
     22 H          -3.6444    2.7127    0.6954 H       1  LIG1        0.0625
     23 H          -7.0633    0.3922   -0.4841 H       1  LIG1        0.0836
     24 H          -5.1485    4.6564    0.9557 H       1  LIG1        0.0640
     25 C          -7.8590    4.6486    0.4747 C.ar    1  LIG1        0.0656
     26 C          -7.7332    5.9886    0.8308 C.ar    1  LIG1       -0.0314
     27 C          -9.0119    6.5889    0.7540 C.ar    1  LIG1       -0.0245
     28 C          -9.9097    5.5878    0.3517 C.ar    1  LIG1        0.0516
     29 N          -9.1850    4.4324    0.1988 N.ar    1  LIG1       -0.3527
     30 H          -9.5149    3.5320   -0.1173 H       1  LIG1        0.1660
     31 H          -6.8190    6.4843    1.1282 H       1  LIG1        0.0642
     32 C          -9.3331    8.0185    1.0855 C.3     1  LIG1       -0.0377
     33 H         -10.3810    8.1395    1.3738 H       1  LIG1        0.0278
     34 H          -9.1465    8.6937    0.2404 H       1  LIG1        0.0278
     35 H          -8.7153    8.3712    1.9177 H       1  LIG1        0.0278
     36 C         -12.2809    4.6915    0.5707 C.ar    1  LIG1        0.0473
     37 C         -11.3561    5.6584    0.0963 C.ar    1  LIG1        0.0198
     38 C         -11.8696    6.7347   -0.6410 C.ar    1  LIG1       -0.0466
     39 C         -13.2366    6.8467   -0.9000 C.ar    1  LIG1       -0.0317
     40 C         -14.0455    5.8254   -0.3964 C.ar    1  LIG1        0.0308
     41 N         -13.5922    4.7885    0.3143 N.ar    1  LIG1       -0.2593
     42 H         -11.1830    7.4798   -1.0333 H       1  LIG1        0.0628
     43 H         -15.1207    5.8474   -0.5732 H       1  LIG1        0.0832
     44 C         -11.8720    3.5023    1.4082 C.3     1  LIG1       -0.0217
     45 H         -11.0592    3.7445    2.0977 H       1  LIG1        0.0293
     46 H         -11.5371    2.6619    0.7864 H       1  LIG1        0.0293
     47 H         -12.7402    3.1564    1.9714 H       1  LIG1        0.0293
     48 C         -13.8098    7.9996   -1.6849 C.3     1  LIG1       -0.0383
     49 H         -14.8695    7.8410   -1.9031 H       1  LIG1        0.0278
     50 H         -13.2873    8.1342   -2.6382 H       1  LIG1        0.0278
     51 H         -13.7227    8.9428   -1.1328 H       1  LIG1        0.0278
@<TRIPOS>BOND
     1    50    48    1
     2    15    12    1
     3    49    48    1
     4    48    51    1
     5    48    39    1
     6    13    12    1
     7    42    38    1
     8    12    11    1
     9    12    14    1
    10    39    38   ar
    11    39    40   ar
    12     7     3    1
    13    38    37   ar
    14    11     4    1
    15    43    40    1
    16     3     4   ar
    17     3     2   ar
    18    23    16    1
    19     8     2    1
    20     4     5   ar
    21    40    41   ar
    22     2     1   ar
    23    16    21   ar
    24    16    17   ar
    25    30    29    1
    26     5     6   ar
    27     5    17    1
    28     1     6   ar
    29     1    10    1
    30    21    20   ar
    31    17    18   ar
    32    10     9    3
    33    37    28    1
    34    37    36   ar
    35    29    28   ar
    36    29    25   ar
    37    34    32    1
    38    41    36   ar
    39    28    27   ar
    40    20    25    1
    41    20    19   ar
    42    25    26   ar
    43    18    19   ar
    44    18    22    1
    45    36    44    1
    46    19    24    1
    47    27    26   ar
    48    27    32    1
    49    46    44    1
    50    26    31    1
    51    32    33    1
    52    32    35    1
    53    44    47    1
    54    44    45    1
