@<TRIPOS>MOLECULE
mol_data/opt/b3lyp/geoms/mol2/6dl6dl6dl.out
 44 46 0 0 0
SMALL
GASTEIGER

@<TRIPOS>ATOM
      1 C          -4.5220   -2.3030   -0.0002 C.ar    1  LIG1        0.1410
      2 C          -3.1298   -2.4242   -0.0003 C.ar    1  LIG1       -0.0223
      3 C          -2.3807   -1.2558   -0.0003 C.ar    1  LIG1       -0.0151
      4 C          -3.0195   -0.0114   -0.0003 C.ar    1  LIG1        0.1461
      5 C          -4.4508    0.0272   -0.0002 C.ar    1  LIG1        0.1167
      6 N          -5.1345   -1.1181   -0.0002 N.ar    1  LIG1       -0.2326
      7 H          -1.3003   -1.3180   -0.0003 H       1  LIG1        0.0656
      8 H          -2.6546   -3.3986   -0.0003 H       1  LIG1        0.0647
      9 N          -5.9440   -4.4833   -0.0001 N.1     1  LIG1       -0.1893
     10 C          -5.3443   -3.4881   -0.0002 C.1     1  LIG1        0.1191
     11 O          -2.3241    1.1557   -0.0003 O.3     1  LIG1       -0.4930
     12 C          -0.8971    1.1182   -0.0005 C.3     1  LIG1        0.0789
     13 H          -0.5755    2.1596   -0.0005 H       1  LIG1        0.0660
     14 H          -0.5119    0.6196    0.8957 H       1  LIG1        0.0660
     15 H          -0.5120    0.6195   -0.8966 H       1  LIG1        0.0660
     16 C          -6.7156    1.2034   -0.0001 C.ar    1  LIG1        0.1502
     17 C          -5.2942    1.2555   -0.0002 C.ar    1  LIG1        0.0433
     18 C          -4.7539    2.5496   -0.0002 C.ar    1  LIG1       -0.0058
     19 C          -5.5512    3.6921   -0.0002 C.ar    1  LIG1        0.1467
     20 C          -6.9670    3.5431   -0.0001 C.ar    1  LIG1        0.1168
     21 N          -7.4648    2.3075   -0.0001 N.ar    1  LIG1       -0.2319
     22 H          -3.6844    2.6593   -0.0002 H       1  LIG1        0.0662
     23 N          -8.2832   -0.8744   -0.0002 N.1     1  LIG1       -0.1893
     24 C          -7.5176    0.0003   -0.0001 C.1     1  LIG1        0.1198
     25 O          -5.0090    4.9412   -0.0002 O.3     1  LIG1       -0.4929
     26 C          -3.5926    5.0915   -0.0002 C.3     1  LIG1        0.0789
     27 H          -3.4113    6.1666   -0.0003 H       1  LIG1        0.0660
     28 H          -3.1427    4.6480    0.8954 H       1  LIG1        0.0660
     29 H          -3.1428    4.6480   -0.8959 H       1  LIG1        0.0660
     30 C          -9.3736    4.3704    0.0001 C.ar    1  LIG1        0.1495
     31 C          -7.9771    4.6384   -0.0000 C.ar    1  LIG1        0.0433
     32 C          -7.6054    5.9972   -0.0002 C.ar    1  LIG1       -0.0064
     33 C          -8.5752    6.9954   -0.0001 C.ar    1  LIG1        0.1388
     34 C          -9.9253    6.6145    0.0001 C.ar    1  LIG1        0.0707
     35 N         -10.3031    5.3475    0.0002 N.ar    1  LIG1       -0.2403
     36 H          -6.5607    6.2551   -0.0003 H       1  LIG1        0.0662
     37 H         -10.7015    7.3765    0.0001 H       1  LIG1        0.0867
     38 N         -10.6492    2.1068    0.0005 N.1     1  LIG1       -0.1893
     39 C          -9.9872    3.0631    0.0003 C.1     1  LIG1        0.1198
     40 O          -8.3268    8.3295   -0.0002 O.3     1  LIG1       -0.4936
     41 C          -6.9738    8.7664   -0.0004 C.3     1  LIG1        0.0789
     42 H          -7.0119    9.8561   -0.0005 H       1  LIG1        0.0660
     43 H          -6.4406    8.4220    0.8943 H       1  LIG1        0.0660
     44 H          -6.4408    8.4219   -0.8952 H       1  LIG1        0.0660
@<TRIPOS>BOND
     1    15    12    1
     2    29    26    1
     3    44    41    1
     4    13    12    1
     5    42    41    1
     6    12    11    1
     7    12    14    1
     8    41    40    1
     9    41    43    1
    10     7     3    1
    11    11     4    1
    12     3     4   ar
    13     3     2   ar
    14     4     5   ar
    15     8     2    1
    16    36    32    1
    17     2     1   ar
    18    27    26    1
    19    26    25    1
    20    26    28    1
    21    22    18    1
    22     5     6   ar
    23     5    17    1
    24     1     6   ar
    25     1    10    1
    26    40    33    1
    27    18    17   ar
    28    18    19   ar
    29    17    16   ar
    30    10     9    3
    31    25    19    1
    32    19    20   ar
    33    32    33   ar
    34    32    31   ar
    35    23    24    3
    36    24    16    1
    37    16    21   ar
    38    33    34   ar
    39    20    21   ar
    40    20    31    1
    41    31    30   ar
    42    34    37    1
    43    34    35   ar
    44    30    35   ar
    45    30    39    1
    46    39    38    3
