@<TRIPOS>MOLECULE
mol_data/opt/b3lyp/geoms/mol2/6dl6dl.out
 30 31 0 0 0
SMALL
GASTEIGER

@<TRIPOS>ATOM
      1 C          -4.5599   -2.1905    0.0000 C.ar    1  LIG1        0.1410
      2 C          -3.1663   -2.2847   -0.0000 C.ar    1  LIG1       -0.0223
      3 C          -2.4410   -1.1011   -0.0001 C.ar    1  LIG1       -0.0151
      4 C          -3.1037    0.1308   -0.0002 C.ar    1  LIG1        0.1461
      5 C          -4.5363    0.1420   -0.0002 C.ar    1  LIG1        0.1167
      6 N          -5.1951   -1.0172   -0.0001 N.ar    1  LIG1       -0.2326
      7 H          -1.3596   -1.1420   -0.0001 H       1  LIG1        0.0656
      8 H          -2.6715   -3.2496    0.0001 H       1  LIG1        0.0647
      9 N          -5.9429   -4.3962    0.0002 N.1     1  LIG1       -0.1893
     10 C          -5.3602   -3.3908    0.0001 C.1     1  LIG1        0.1191
     11 O          -2.4306    1.3099   -0.0003 O.3     1  LIG1       -0.4930
     12 C          -1.0037    1.3032   -0.0005 C.3     1  LIG1        0.0789
     13 H          -0.7057    2.3515   -0.0006 H       1  LIG1        0.0660
     14 H          -0.6073    0.8133    0.8957 H       1  LIG1        0.0660
     15 H          -0.6075    0.8130   -0.8966 H       1  LIG1        0.0660
     16 C          -6.8263    1.2527   -0.0002 C.ar    1  LIG1        0.1495
     17 C          -5.4075    1.3548   -0.0003 C.ar    1  LIG1        0.0433
     18 C          -4.8805    2.6606   -0.0004 C.ar    1  LIG1       -0.0064
     19 C          -5.7274    3.7658   -0.0004 C.ar    1  LIG1        0.1388
     20 C          -7.1127    3.5457   -0.0004 C.ar    1  LIG1        0.0707
     21 N          -7.6353    2.3313   -0.0003 N.ar    1  LIG1       -0.2403
     22 H          -3.8132    2.7972   -0.0004 H       1  LIG1        0.0662
     23 H          -7.7946    4.3931   -0.0004 H       1  LIG1        0.0867
     24 N          -8.3543   -0.8507   -0.0001 N.1     1  LIG1       -0.1893
     25 C          -7.5899    0.0260   -0.0001 C.1     1  LIG1        0.1198
     26 O          -5.3247    5.0608   -0.0005 O.3     1  LIG1       -0.4936
     27 C          -3.9299    5.3381   -0.0006 C.3     1  LIG1        0.0789
     28 H          -3.8420    6.4248   -0.0007 H       1  LIG1        0.0660
     29 H          -3.4405    4.9346    0.8944 H       1  LIG1        0.0660
     30 H          -3.4406    4.9344   -0.8956 H       1  LIG1        0.0660
@<TRIPOS>BOND
     1    15    12    1
     2    30    27    1
     3    28    27    1
     4    27    26    1
     5    27    29    1
     6    13    12    1
     7    26    19    1
     8    12    11    1
     9    12    14    1
    10    23    20    1
    11    19    20   ar
    12    19    18   ar
    13    20    21   ar
    14    22    18    1
    15    18    17   ar
    16    11     4    1
    17    21    16   ar
    18    17    16   ar
    19    17     5    1
    20    16    25    1
    21     4     5   ar
    22     4     3   ar
    23     5     6   ar
    24     7     3    1
    25    25    24    3
    26     3     2   ar
    27     6     1   ar
    28     2     1   ar
    29     2     8    1
    30     1    10    1
    31    10     9    3
