@<TRIPOS>MOLECULE
mol_data/opt/b3lyp/geoms/mol2/6dl6dl6dl6dl.out
 58 61 0 0 0
SMALL
GASTEIGER

@<TRIPOS>ATOM
      1 C          -4.5228   -2.4174   -0.0007 C.ar    1  LIG1        0.1410
      2 C          -3.1340   -2.5746   -0.0008 C.ar    1  LIG1       -0.0223
      3 C          -2.3547   -1.4263   -0.0007 C.ar    1  LIG1       -0.0151
      4 C          -2.9605   -0.1655   -0.0005 C.ar    1  LIG1        0.1461
      5 C          -4.3901   -0.0899   -0.0005 C.ar    1  LIG1        0.1167
      6 N          -5.1037   -1.2168   -0.0006 N.ar    1  LIG1       -0.2326
      7 H          -1.2764   -1.5170   -0.0007 H       1  LIG1        0.0656
      8 H          -2.6843   -3.5609   -0.0009 H       1  LIG1        0.0647
      9 N          -5.9989   -4.5612   -0.0009 N.1     1  LIG1       -0.1893
     10 C          -5.3751   -3.5809   -0.0008 C.1     1  LIG1        0.1191
     11 O          -2.2352    0.9831   -0.0004 O.3     1  LIG1       -0.4930
     12 C          -0.8093    0.9096   -0.0005 C.3     1  LIG1        0.0789
     13 H          -0.4620    1.9427   -0.0004 H       1  LIG1        0.0660
     14 H          -0.4367    0.4015    0.8956 H       1  LIG1        0.0660
     15 H          -0.4368    0.4017   -0.8968 H       1  LIG1        0.0660
     16 C          -6.6253    1.1421   -0.0002 C.ar    1  LIG1        0.1502
     17 C          -5.2023    1.1593   -0.0003 C.ar    1  LIG1        0.0433
     18 C          -4.6295    2.4395   -0.0002 C.ar    1  LIG1       -0.0058
     19 C          -5.3985    3.6010   -0.0000 C.ar    1  LIG1        0.1467
     20 C          -6.8170    3.4862    0.0001 C.ar    1  LIG1        0.1168
     21 N          -7.3473    2.2637   -0.0000 N.ar    1  LIG1       -0.2319
     22 H          -3.5574    2.5227   -0.0002 H       1  LIG1        0.0662
     23 N          -8.2420   -0.8975   -0.0004 N.1     1  LIG1       -0.1893
     24 C          -7.4558   -0.0413   -0.0003 C.1     1  LIG1        0.1198
     25 O          -4.8265    4.8378    0.0001 O.3     1  LIG1       -0.4929
     26 C          -3.4059    4.9504    0.0000 C.3     1  LIG1        0.0789
     27 H          -3.1951    6.0201    0.0001 H       1  LIG1        0.0660
     28 H          -2.9689    4.4943    0.8955 H       1  LIG1        0.0660
     29 H          -2.9690    4.4945   -0.8956 H       1  LIG1        0.0660
     30 C          -9.2024    4.3931    0.0005 C.ar    1  LIG1        0.1502
     31 C          -7.7961    4.6047    0.0003 C.ar    1  LIG1        0.0433
     32 C          -7.4031    5.9515    0.0003 C.ar    1  LIG1       -0.0058
     33 C          -8.3227    6.9972    0.0004 C.ar    1  LIG1        0.1467
     34 C          -9.7131    6.6904    0.0006 C.ar    1  LIG1        0.1168
     35 N         -10.0703    5.4069    0.0006 N.ar    1  LIG1       -0.2319
     36 H          -6.3518    6.1779    0.0001 H       1  LIG1        0.0662
     37 N         -10.5306    2.1562    0.0006 N.1     1  LIG1       -0.1893
     38 C          -9.8630    3.1078    0.0005 C.1     1  LIG1        0.1198
     39 O          -7.9236    8.2998    0.0005 O.3     1  LIG1       -0.4929
     40 C          -6.5330    8.6062    0.0003 C.3     1  LIG1        0.0789
     41 H          -6.4719    9.6949    0.0004 H       1  LIG1        0.0660
     42 H          -6.0364    8.2151    0.8957 H       1  LIG1        0.0660
     43 H          -6.0366    8.2152   -0.8952 H       1  LIG1        0.0660
     44 C         -12.1971    7.2442    0.0013 C.ar    1  LIG1        0.1495
     45 C         -10.8391    7.6660    0.0008 C.ar    1  LIG1        0.0433
     46 C         -10.6214    9.0579    0.0005 C.ar    1  LIG1       -0.0064
     47 C         -11.6962    9.9418    0.0007 C.ar    1  LIG1        0.1388
     48 C         -12.9955    9.4130    0.0011 C.ar    1  LIG1        0.0707
     49 N         -13.2297    8.1118    0.0014 N.ar    1  LIG1       -0.2403
     50 H          -9.6117    9.4303    0.0002 H       1  LIG1        0.0662
     51 H         -13.8517   10.0837    0.0012 H       1  LIG1        0.0867
     52 N         -13.2152    4.8539    0.0021 N.1     1  LIG1       -0.1893
     53 C         -12.6616    5.8769    0.0017 C.1     1  LIG1        0.1198
     54 O         -11.5978   11.2956    0.0004 O.3     1  LIG1       -0.4936
     55 C         -10.3018   11.8798   -0.0000 C.3     1  LIG1        0.0789
     56 H         -10.4603   12.9586   -0.0001 H       1  LIG1        0.0660
     57 H          -9.7333   11.5967    0.8946 H       1  LIG1        0.0660
     58 H          -9.7338   11.5964   -0.8948 H       1  LIG1        0.0660
@<TRIPOS>BOND
     1    15    12    1
     2    29    26    1
     3    43    40    1
     4    58    55    1
     5     9    10    3
     6     8     2    1
     7    10     1    1
     8     2     1   ar
     9     2     3   ar
    10     1     6   ar
    11     7     3    1
    12     3     4   ar
    13     6     5   ar
    14     4     5   ar
    15     4    11    1
    16    12    13    1
    17    12    11    1
    18    12    14    1
    19     5    17    1
    20    23    24    3
    21    24    16    1
    22    17    16   ar
    23    17    18   ar
    24    22    18    1
    25    16    21   ar
    26    18    19   ar
    27    56    55    1
    28    21    20   ar
    29    55    54    1
    30    55    57    1
    31    19    20   ar
    32    19    25    1
    33    26    27    1
    34    26    25    1
    35    26    28    1
    36    20    31    1
    37    36    32    1
    38    50    46    1
    39    32    31   ar
    40    32    33   ar
    41    31    30   ar
    42    40    41    1
    43    40    39    1
    44    40    42    1
    45    54    47    1
    46    33    39    1
    47    33    34   ar
    48    30    38    1
    49    30    35   ar
    50    38    37    3
    51    46    47   ar
    52    46    45   ar
    53    34    35   ar
    54    34    45    1
    55    47    48   ar
    56    45    44   ar
    57    48    51    1
    58    48    49   ar
    59    44    49   ar
    60    44    53    1
    61    53    52    3
