@<TRIPOS>MOLECULE
mol_data/opt/b3lyp/geoms/mol2/6ea13ae13de4fl-.out
 49 52 0 0 0
SMALL
GASTEIGER

@<TRIPOS>ATOM
      1 C          -4.4156   -1.7976    1.4425 C.ar    1  LIG1        0.1139
      2 C          -3.0457   -1.9676    1.1862 C.ar    1  LIG1       -0.0278
      3 C          -2.3830   -0.9803    0.4588 C.ar    1  LIG1       -0.0571
      4 C          -3.0883    0.1300    0.0136 C.ar    1  LIG1       -0.0342
      5 C          -4.4593    0.2208    0.3130 C.ar    1  LIG1        0.0885
      6 N          -5.1091   -0.7269    1.0153 N.ar    1  LIG1       -0.2370
      7 H          -1.3234   -1.0783    0.2431 H       1  LIG1        0.0619
      8 H          -2.5311   -2.8482    1.5522 H       1  LIG1        0.0645
      9 C          -5.1359   -2.7899    2.1889 C.1     1  LIG1       -0.0498
     10 C          -5.7178   -3.6414    2.8199 C.1     1  LIG1       -0.1124
     11 H          -6.2398   -4.3848    3.3770 H       1  LIG1        0.1232
     12 H          -2.5979    0.9141   -0.5525 H       1  LIG1        0.0639
     13 C          -5.2775    1.3497   -0.1127 C.ar    1  LIG1        0.0666
     14 C          -5.0053    2.5103   -0.8190 C.ar    1  LIG1       -0.0188
     15 C          -6.2105    3.2637   -0.9055 C.ar    1  LIG1        0.0520
     16 C          -7.2018    2.5305   -0.2283 C.ar    1  LIG1        0.0802
     17 N          -6.6112    1.3763    0.2213 N.ar    1  LIG1       -0.3508
     18 H          -7.0052    0.6796    0.8393 H       1  LIG1        0.1660
     19 H          -4.0580    2.8018   -1.2476 H       1  LIG1        0.0652
     20 C          -6.3871    4.4841   -1.6039 C.1     1  LIG1       -0.0675
     21 C          -6.5214    5.5196   -2.2149 C.1     1  LIG1       -0.1138
     22 H          -6.6563    6.4487   -2.7180 H       1  LIG1        0.1232
     23 C          -8.6156    2.7753   -0.0376 C.ar    1  LIG1        0.0833
     24 C          -9.3371    3.9204    0.3033 C.ar    1  LIG1        0.0944
     25 C         -10.7298    3.5571    0.3936 C.ar    1  LIG1        0.0680
     26 C         -10.8152    2.1939    0.1151 C.ar    1  LIG1        0.0674
     27 N          -9.5341    1.7560   -0.1378 N.ar    1  LIG1       -0.3509
     28 H          -9.3118    0.8133   -0.4206 H       1  LIG1        0.1660
     29 N          -8.4093    6.2648    0.8583 N.1     1  LIG1       -0.1908
     30 C          -8.8115    5.2047    0.5940 C.1     1  LIG1        0.1026
     31 C         -11.7928    4.4535    0.6600 C.1     1  LIG1       -0.0662
     32 C         -12.6774    5.2516    0.8696 C.1     1  LIG1       -0.1138
     33 H         -13.4500    5.9604    1.0562 H       1  LIG1        0.1232
     34 C         -12.9517    1.1852    0.9832 C.ar    1  LIG1        0.1262
     35 C         -14.0118    0.2969    0.8143 C.ar    1  LIG1       -0.0161
     36 C         -11.9547    1.2761   -0.0141 C.ar    1  LIG1        0.0444
     37 C         -14.1011   -0.5244   -0.3129 C.ar    1  LIG1       -0.0165
     38 H         -14.7772    0.2279    1.5840 H       1  LIG1        0.0655
     39 C         -12.0493    0.4417   -1.1338 C.ar    1  LIG1       -0.0073
     40 C         -13.1074   -0.4600   -1.2927 C.ar    1  LIG1        0.1209
     41 H         -11.3142    0.5100   -1.9295 H       1  LIG1        0.0662
     42 H         -14.9414   -1.2013   -0.4063 H       1  LIG1        0.0655
     43 O         -12.8068    1.9549    2.1002 O.3     1  LIG1       -0.5061
     44 H         -13.5932    1.8673    2.6538 H       1  LIG1        0.2922
     45 O         -13.0808   -1.2117   -2.4357 O.3     1  LIG1       -0.4951
     46 C         -14.1487   -2.1173   -2.6601 C.3     1  LIG1        0.0788
     47 H         -13.9383   -2.6015   -3.6148 H       1  LIG1        0.0660
     48 H         -14.2054   -2.8818   -1.8741 H       1  LIG1        0.0660
     49 H         -15.1141   -1.5986   -2.7247 H       1  LIG1        0.0660
@<TRIPOS>BOND
     1    47    46    1
     2    49    46    1
     3    22    21    1
     4    46    45    1
     5    46    48    1
     6    45    40    1
     7    21    20    3
     8    41    39    1
     9    20    15    1
    10    40    39   ar
    11    40    37   ar
    12    19    14    1
    13    39    36   ar
    14    15    14   ar
    15    15    16   ar
    16    14    13   ar
    17    12     4    1
    18    28    27    1
    19    42    37    1
    20    37    35   ar
    21    16    23    1
    22    16    17   ar
    23    27    23   ar
    24    27    26   ar
    25    13    17   ar
    26    13     5    1
    27    23    24   ar
    28    36    26    1
    29    36    34   ar
    30     4     5   ar
    31     4     3   ar
    32    26    25   ar
    33    17    18    1
    34     7     3    1
    35    24    25   ar
    36    24    30    1
    37     5     6   ar
    38    25    31    1
    39     3     2   ar
    40    30    29    3
    41    31    32    3
    42    35    34   ar
    43    35    38    1
    44    32    33    1
    45    34    43    1
    46     6     1   ar
    47     2     1   ar
    48     2     8    1
    49     1     9    1
    50    43    44    1
    51     9    10    3
    52    10    11    1
