@<TRIPOS>MOLECULE
mol_data/opt/b3lyp/geoms/mol2/6ea13eh13aa-4ea-.out
 45 48 0 0 0
SMALL
GASTEIGER

@<TRIPOS>ATOM
      1 C          -4.4735   -2.1233    0.1131 C.ar    1  LIG1        0.1139
      2 C          -3.0854   -2.2073   -0.0837 C.ar    1  LIG1       -0.0278
      3 C          -2.3742   -1.0214   -0.2597 C.ar    1  LIG1       -0.0571
      4 C          -3.0459    0.1940   -0.2380 C.ar    1  LIG1       -0.0341
      5 C          -4.4396    0.1877   -0.0370 C.ar    1  LIG1        0.0897
      6 N          -5.1371   -0.9555    0.1365 N.ar    1  LIG1       -0.2369
      7 H          -1.2994   -1.0469   -0.4130 H       1  LIG1        0.0619
      8 H          -2.5966   -3.1744   -0.0943 H       1  LIG1        0.0645
      9 C          -5.2456   -3.3200    0.3001 C.1     1  LIG1       -0.0498
     10 C          -5.8703   -4.3436    0.4545 C.1     1  LIG1       -0.1124
     11 H          -6.4292   -5.2402    0.5931 H       1  LIG1        0.1232
     12 H          -2.5208    1.1316   -0.3719 H       1  LIG1        0.0639
     13 C          -5.2415    1.4005    0.0031 C.ar    1  LIG1        0.0829
     14 C          -4.9478    2.7737   -0.1140 C.ar    1  LIG1        0.0727
     15 C          -6.1789    3.4826    0.0484 C.ar    1  LIG1        0.0679
     16 C          -7.1879    2.5376    0.2551 C.ar    1  LIG1        0.0855
     17 N          -6.5860    1.2945    0.2078 N.ar    1  LIG1       -0.3494
     18 H          -6.9972    0.3971    0.4246 H       1  LIG1        0.1661
     19 C          -3.7079    3.4029   -0.3762 C.1     1  LIG1       -0.0656
     20 C          -2.6825    4.0082   -0.6087 C.1     1  LIG1       -0.1138
     21 H          -1.7710    4.5250   -0.8000 H       1  LIG1        0.1232
     22 N          -6.3278    4.8658    0.0272 N.pl3   1  LIG1       -0.3553
     23 H          -5.5594    5.3356   -0.4371 H       1  LIG1        0.1424
     24 H          -7.2248    5.1703   -0.3343 H       1  LIG1        0.1424
     25 C          -8.6035    2.7319    0.4317 C.ar    1  LIG1        0.0652
     26 C          -9.3163    3.8239    0.9198 C.ar    1  LIG1       -0.0343
     27 C         -10.6936    3.5120    0.8404 C.ar    1  LIG1       -0.0357
     28 C         -10.8215    2.2322    0.3153 C.ar    1  LIG1        0.0481
     29 N          -9.5305    1.7648    0.0957 N.ar    1  LIG1       -0.3529
     30 H          -9.3237    0.9767   -0.4986 H       1  LIG1        0.1659
     31 H          -8.8759    4.7133    1.3471 H       1  LIG1        0.0639
     32 H         -11.5119    4.1303    1.1731 H       1  LIG1        0.0639
     33 C         -13.2647    1.8852   -0.2671 C.ar    1  LIG1        0.0338
     34 C         -14.3241    0.9898   -0.5087 C.ar    1  LIG1       -0.0457
     35 C         -11.9754    1.3752    0.0588 C.ar    1  LIG1        0.0137
     36 C         -14.1403   -0.3865   -0.4487 C.ar    1  LIG1       -0.0606
     37 H         -15.2967    1.4025   -0.7560 H       1  LIG1        0.0630
     38 C         -11.8235   -0.0245    0.1224 C.ar    1  LIG1       -0.0515
     39 C         -12.8784   -0.8936   -0.1314 C.ar    1  LIG1       -0.0611
     40 H         -10.8619   -0.4346    0.4157 H       1  LIG1        0.0624
     41 H         -14.9725   -1.0556   -0.6428 H       1  LIG1        0.0618
     42 C         -13.5409    3.2821   -0.3911 C.1     1  LIG1       -0.0690
     43 C         -13.8509    4.4457   -0.5193 C.1     1  LIG1       -0.1139
     44 H         -14.1000    5.4752   -0.6323 H       1  LIG1        0.1232
     45 H         -12.7188   -1.9658   -0.0657 H       1  LIG1        0.0618
@<TRIPOS>BOND
     1    21    20    1
     2    37    34    1
     3    41    36    1
     4    44    43    1
     5    20    19    3
     6    43    42    3
     7    34    36   ar
     8    34    33   ar
     9    30    29    1
    10    36    39   ar
    11    23    22    1
    12     7     3    1
    13    42    33    1
    14    19    14    1
    15    12     4    1
    16    24    22    1
    17    33    35   ar
    18     3     4   ar
    19     3     2   ar
    20     4     5   ar
    21    39    45    1
    22    39    38   ar
    23    14    13   ar
    24    14    15   ar
    25     8     2    1
    26     2     1   ar
    27     5    13    1
    28     5     6   ar
    29    13    17   ar
    30    22    15    1
    31    15    16   ar
    32    35    38   ar
    33    35    28    1
    34    29    28   ar
    35    29    25   ar
    36     1     6   ar
    37     1     9    1
    38    38    40    1
    39    17    16   ar
    40    17    18    1
    41    16    25    1
    42     9    10    3
    43    28    27   ar
    44    25    26   ar
    45    10    11    1
    46    27    26   ar
    47    27    32    1
    48    26    31    1
