@<TRIPOS>MOLECULE
mol_data/opt/b3lyp/geoms/mol2/6ea13ee12lf-4ef-6lh-13dh6ll-13il-.out
 108 115 0 0 0
SMALL
GASTEIGER

@<TRIPOS>ATOM
      1 C          -4.6113   -1.9745   -1.3259 C.ar    1  LIG1        0.1139
      2 C          -3.3087   -2.1038   -1.8351 C.ar    1  LIG1       -0.0278
      3 C          -2.5512   -0.9469   -2.0048 C.ar    1  LIG1       -0.0571
      4 C          -3.0957    0.2871   -1.6711 C.ar    1  LIG1       -0.0341
      5 C          -4.4088    0.3256   -1.1683 C.ar    1  LIG1        0.0897
      6 N          -5.1507   -0.7879   -0.9997 N.ar    1  LIG1       -0.2369
      7 H          -1.5398   -1.0082   -2.3952 H       1  LIG1        0.0619
      8 H          -2.9187   -3.0840   -2.0833 H       1  LIG1        0.0645
      9 C          -5.4263   -3.1413   -1.1346 C.1     1  LIG1       -0.0498
     10 C          -6.0886   -4.1417   -0.9847 C.1     1  LIG1       -0.1124
     11 H          -6.6791   -5.0174   -0.8443 H       1  LIG1        0.1232
     12 H          -2.5331    1.2044   -1.7904 H       1  LIG1        0.0639
     13 C          -5.0794    1.5637   -0.7863 C.ar    1  LIG1        0.0823
     14 C          -4.7197    2.9176   -0.8102 C.ar    1  LIG1        0.0675
     15 C          -5.8386    3.6674   -0.2978 C.ar    1  LIG1        0.0691
     16 C          -6.8374    2.7348    0.0308 C.ar    1  LIG1        0.1032
     17 N          -6.3486    1.4951   -0.2815 N.ar    1  LIG1       -0.3485
     18 H          -6.8253    0.6120   -0.1578 H       1  LIG1        0.1661
     19 C          -3.5047    3.4880   -1.2600 C.1     1  LIG1       -0.0662
     20 C          -2.4752    4.0020   -1.6385 C.1     1  LIG1       -0.1138
     21 H          -1.5750    4.4664   -1.9679 H       1  LIG1        0.1232
     22 C          -5.8872    5.0790   -0.2250 C.1     1  LIG1       -0.0662
     23 C          -5.8690    6.2897   -0.2161 C.1     1  LIG1       -0.1138
     24 H          -5.8502    7.3539   -0.1859 H       1  LIG1        0.1232
     25 C          -8.1731    2.8577    0.5485 C.ar    1  LIG1        0.1982
     26 C          -8.8688    3.8082    1.2611 C.ar    1  LIG1        0.2098
     27 C         -10.1680    3.2602    1.5243 C.ar    1  LIG1        0.2061
     28 C         -10.1941    1.9867    0.9815 C.ar    1  LIG1        0.1821
     29 O          -8.9643    1.7479    0.3910 O.2     1  LIG1       -0.4457
     30 O          -8.3788    4.9826    1.7219 O.3     1  LIG1       -0.4884
     31 C          -9.0592    6.1630    1.2711 C.3     1  LIG1        0.0791
     32 H          -8.5933    6.9956    1.8001 H       1  LIG1        0.0660
     33 H          -8.9188    6.2953    0.1925 H       1  LIG1        0.0660
     34 H         -10.1245    6.1212    1.5125 H       1  LIG1        0.0660
     35 O         -11.1218    3.9835    2.1460 O.3     1  LIG1       -0.5008
     36 H         -11.7804    3.3864    2.5510 H       1  LIG1        0.2924
     37 C         -12.3078    0.7424    1.6358 C.ar    1  LIG1        0.0362
     38 C         -13.2444   -0.2579    1.3130 C.ar    1  LIG1       -0.0343
     39 C         -11.1927    0.9515    0.7786 C.ar    1  LIG1        0.0399
     40 C         -13.1137   -1.0915    0.2062 C.ar    1  LIG1        0.0299
     41 H         -14.0830   -0.4108    1.9842 H       1  LIG1        0.0637
     42 C         -11.0610    0.1068   -0.3384 C.ar    1  LIG1       -0.0076
     43 C         -11.9880   -0.8904   -0.6256 C.ar    1  LIG1        0.1254
     44 H         -10.2241    0.2633   -1.0119 H       1  LIG1        0.0662
     45 C         -12.4788    1.4390    2.8679 C.1     1  LIG1       -0.0689
     46 C         -12.6533    2.0071    3.9269 C.1     1  LIG1       -0.1139
     47 H         -12.7749    2.4618    4.8833 H       1  LIG1        0.1232
     48 O         -11.8807   -1.6667   -1.7351 O.3     1  LIG1       -0.5061
     49 H         -11.0619   -1.4473   -2.1998 H       1  LIG1        0.2922
     50 C         -13.8373   -3.5069   -0.1679 C.ar    1  LIG1        0.2232
     51 C         -14.1381   -2.1228   -0.0849 C.ar    1  LIG1        0.0489
     52 C         -15.4732   -1.7876   -0.2393 C.ar    1  LIG1       -0.0260
     53 C         -16.4770   -2.7460   -0.4963 C.ar    1  LIG1        0.0532
     54 C         -16.0456   -4.0857   -0.6274 C.ar    1  LIG1        0.1128
     55 N         -14.7422   -4.4220   -0.4313 N.ar    1  LIG1       -0.2090
     56 H         -15.7606   -0.7416   -0.1660 H       1  LIG1        0.0644
     57 O         -12.5512   -3.8715    0.0646 O.3     1  LIG1       -0.4792
     58 C         -12.2388   -5.2553   -0.0475 C.3     1  LIG1        0.0804
     59 H         -11.1629   -5.3256    0.1204 H       1  LIG1        0.0660
     60 H         -12.7724   -5.8444    0.7067 H       1  LIG1        0.0660
     61 H         -12.4956   -5.6433   -1.0382 H       1  LIG1        0.0660
     62 N         -17.8032   -2.3314   -0.5054 N.pl3   1  LIG1       -0.3563
     63 H         -17.9200   -1.3313   -0.5943 H       1  LIG1        0.1424
     64 H         -18.4563   -2.8250   -1.0964 H       1  LIG1        0.1424
     65 C         -16.9008   -5.2470   -0.8904 C.ar    1  LIG1        0.0867
     66 C         -18.1396   -5.4703   -1.5351 C.ar    1  LIG1        0.0997
     67 C         -18.4160   -6.8729   -1.4861 C.ar    1  LIG1        0.0686
     68 C         -17.3537   -7.4840   -0.8155 C.ar    1  LIG1        0.0744
     69 N         -16.4663   -6.4701   -0.4972 N.ar    1  LIG1       -0.3503
     70 H         -15.5529   -6.6186   -0.0905 H       1  LIG1        0.1660
     71 N         -19.6572   -3.8617   -2.8597 N.1     1  LIG1       -0.1907
     72 C         -18.9511   -4.5683   -2.2531 C.1     1  LIG1        0.1032
     73 N         -19.5645   -7.4840   -2.0078 N.pl3   1  LIG1       -0.3553
     74 H         -20.1341   -6.8328   -2.5381 H       1  LIG1        0.1424
     75 H         -19.3550   -8.2950   -2.5810 H       1  LIG1        0.1424
     76 C         -15.9138   -9.4258   -0.0414 C.ar    1  LIG1        0.2247
     77 C         -17.1596   -8.8739   -0.4292 C.ar    1  LIG1        0.0651
     78 C         -18.2355   -9.7794   -0.4062 C.ar    1  LIG1       -0.0035
     79 C         -18.0613  -11.1115   -0.0360 C.ar    1  LIG1        0.1483
     80 C         -16.7786  -11.5524    0.3588 C.ar    1  LIG1        0.1327
     81 N         -15.7435  -10.6796    0.3218 N.ar    1  LIG1       -0.2072
     82 H         -19.2194   -9.4128   -0.6659 H       1  LIG1        0.0663
     83 O         -14.8275   -8.5914   -0.0346 O.3     1  LIG1       -0.4792
     84 C         -13.5732   -9.1564    0.3472 C.3     1  LIG1        0.0804
     85 H         -12.8629   -8.3291    0.3237 H       1  LIG1        0.0660
     86 H         -13.6211   -9.5883    1.3506 H       1  LIG1        0.0660
     87 H         -13.2610   -9.9338   -0.3571 H       1  LIG1        0.0660
     88 O         -19.0640  -12.0370   -0.0570 O.3     1  LIG1       -0.4929
     89 C         -20.3640  -11.6196   -0.4416 C.3     1  LIG1        0.0789
     90 H         -20.9920  -12.5097   -0.3865 H       1  LIG1        0.0660
     91 H         -20.7627  -10.8533    0.2347 H       1  LIG1        0.0660
     92 H         -20.3778  -11.2321   -1.4687 H       1  LIG1        0.0660
     93 C         -16.4262  -12.9121    0.7631 C.ar    1  LIG1        0.0752
     94 C         -17.0948  -14.0144    1.3162 C.ar    1  LIG1        0.0181
     95 C         -16.0985  -15.0118    1.5206 C.ar    1  LIG1        0.1408
     96 C         -14.8713  -14.5192    1.1131 C.ar    1  LIG1        0.0447
     97 N         -15.0894  -13.2526    0.6612 N.ar    1  LIG1       -0.3561
     98 H         -14.4023  -12.5766    0.3666 H       1  LIG1        0.1655
     99 H         -13.8923  -14.9728    1.1268 H       1  LIG1        0.0844
    100 C         -18.5178  -14.1891    1.7592 C.3     1  LIG1       -0.0342
    101 H         -18.5642  -15.0150    2.4751 H       1  LIG1        0.0279
    102 H         -19.1909  -14.4206    0.9272 H       1  LIG1        0.0279
    103 H         -18.9070  -13.2915    2.2448 H       1  LIG1        0.0279
    104 O         -16.3068  -16.2425    2.0969 O.3     1  LIG1       -0.4933
    105 C         -16.7579  -17.2443    1.1882 C.3     1  LIG1        0.0789
    106 H         -16.8834  -18.1616    1.7684 H       1  LIG1        0.0660
    107 H         -17.7177  -16.9737    0.7295 H       1  LIG1        0.0660
    108 H         -16.0244  -17.4171    0.3895 H       1  LIG1        0.0660
@<TRIPOS>BOND
     1    71    72    3
     2    75    73    1
     3    74    73    1
     4     7     3    1
     5    72    66    1
     6    49    48    1
     7     8     2    1
     8    73    67    1
     9     3     2   ar
    10     3     4   ar
    11    21    20    1
    12     2     1   ar
    13    12     4    1
    14    48    43    1
    15     4     5   ar
    16    20    19    3
    17    66    67   ar
    18    66    65   ar
    19    67    68   ar
    20    92    89    1
    21     1     9    1
    22     1     6   ar
    23    19    14    1
    24     5     6   ar
    25     5    13    1
    26     9    10    3
    27    64    62    1
    28    61    58    1
    29    44    42    1
    30    10    11    1
    31    65    54    1
    32    65    69   ar
    33    68    69   ar
    34    68    77    1
    35    14    13   ar
    36    14    15   ar
    37    13    17   ar
    38    82    78    1
    39    54    53   ar
    40    54    55   ar
    41    43    42   ar
    42    43    40   ar
    43    63    62    1
    44    62    53    1
    45    69    70    1
    46    53    52   ar
    47    89    90    1
    48    89    88    1
    49    89    91    1
    50    55    50   ar
    51    77    78   ar
    52    77    76   ar
    53    78    79   ar
    54    87    84    1
    55    42    39   ar
    56    15    22    1
    57    15    16   ar
    58    17    18    1
    59    17    16   ar
    60    52    56    1
    61    52    51   ar
    62    22    23    3
    63    23    24    1
    64    50    51   ar
    65    50    57    1
    66    51    40    1
    67    88    79    1
    68    58    57    1
    69    58    59    1
    70    58    60    1
    71    76    83    1
    72    76    81   ar
    73    79    80   ar
    74    83    84    1
    75    16    25    1
    76    33    31    1
    77    40    38   ar
    78    81    80   ar
    79    85    84    1
    80    84    86    1
    81    80    93    1
    82    98    97    1
    83   108   105    1
    84    29    25   ar
    85    29    28   ar
    86    25    26   ar
    87    97    93   ar
    88    97    96   ar
    89   107   105    1
    90    93    94   ar
    91    39    28    1
    92    39    37   ar
    93   102   100    1
    94    28    27   ar
    95    96    99    1
    96    96    95   ar
    97   105   106    1
    98   105   104    1
    99    26    27   ar
   100    26    30    1
   101    31    34    1
   102    31    30    1
   103    31    32    1
   104    38    37   ar
   105    38    41    1
   106    94    95   ar
   107    94   100    1
   108    95   104    1
   109    27    35    1
   110    37    45    1
   111   100   103    1
   112   100   101    1
   113    35    36    1
   114    45    46    3
   115    46    47    1
