@<TRIPOS>MOLECULE
mol_data/opt/b3lyp/geoms/mol2/6ea6ea.out
 24 25 0 0 0
SMALL
GASTEIGER

@<TRIPOS>ATOM
      1 C          -4.3982   -2.1041   -0.0003 C.ar    1  LIG1        0.1138
      2 C          -2.9950   -2.0727    0.0001 C.ar    1  LIG1       -0.0278
      3 C          -2.3759   -0.8274    0.0004 C.ar    1  LIG1       -0.0571
      4 C          -3.1532    0.3251    0.0003 C.ar    1  LIG1       -0.0355
      5 C          -4.5589    0.2093   -0.0002 C.ar    1  LIG1        0.0750
      6 N          -5.1497   -0.9919   -0.0004 N.ar    1  LIG1       -0.2383
      7 H          -1.2926   -0.7528    0.0008 H       1  LIG1        0.0619
      8 H          -2.4268   -2.9958    0.0002 H       1  LIG1        0.0645
      9 C          -5.0874   -3.3643   -0.0006 C.1     1  LIG1       -0.0498
     10 C          -5.6300   -4.4447   -0.0008 C.1     1  LIG1       -0.1124
     11 H          -6.1249   -5.3884   -0.0011 H       1  LIG1        0.1232
     12 H          -2.6611    1.2890    0.0006 H       1  LIG1        0.0639
     13 C          -6.8777    1.3301   -0.0001 C.ar    1  LIG1        0.1222
     14 C          -5.4531    1.4040   -0.0004 C.ar    1  LIG1        0.0342
     15 C          -4.9030    2.6967   -0.0008 C.ar    1  LIG1       -0.0485
     16 C          -5.7106    3.8239   -0.0011 C.ar    1  LIG1       -0.0429
     17 C          -7.0921    3.6354   -0.0008 C.ar    1  LIG1        0.0290
     18 N          -7.6604    2.4337   -0.0003 N.ar    1  LIG1       -0.2460
     19 H          -3.8282    2.8321   -0.0011 H       1  LIG1        0.0625
     20 H          -7.7713    4.4862   -0.0010 H       1  LIG1        0.0830
     21 C          -7.6451    0.1173    0.0005 C.1     1  LIG1       -0.0491
     22 C          -8.4418   -0.7928    0.0011 C.1     1  LIG1       -0.1124
     23 H          -9.0874   -1.6398    0.0016 H       1  LIG1        0.1232
     24 H          -5.2821    4.8207   -0.0015 H       1  LIG1        0.0633
@<TRIPOS>BOND
     1    24    16    1
     2    11    10    1
     3    19    15    1
     4    16    15   ar
     5    16    17   ar
     6    20    17    1
     7    15    14   ar
     8    10     9    3
     9    17    18   ar
    10     9     1    1
    11     6     1   ar
    12     6     5   ar
    13    14     5    1
    14    14    13   ar
    15    18    13   ar
    16     1     2   ar
    17     5     4   ar
    18    13    21    1
    19     2     8    1
    20     2     3   ar
    21     4     3   ar
    22     4    12    1
    23     3     7    1
    24    21    22    3
    25    22    23    1
