@<TRIPOS>MOLECULE
mol_data/opt/b3lyp/geoms/mol2/6ea6ea-.out
 24 25 0 0 0
SMALL
GASTEIGER

@<TRIPOS>ATOM
      1 C          -4.5942   -2.1294   -0.0000 C.ar    1  LIG1        0.1138
      2 C          -3.1937   -2.2459   -0.0000 C.ar    1  LIG1       -0.0278
      3 C          -2.4495   -1.0740   -0.0001 C.ar    1  LIG1       -0.0571
      4 C          -3.0990    0.1585   -0.0002 C.ar    1  LIG1       -0.0355
      5 C          -4.5037    0.1924   -0.0002 C.ar    1  LIG1        0.0750
      6 N          -5.2229   -0.9457   -0.0001 N.ar    1  LIG1       -0.2383
      7 H          -1.3643   -1.1126   -0.0002 H       1  LIG1        0.0619
      8 H          -2.7275   -3.2245    0.0000 H       1  LIG1        0.0645
      9 C          -5.4136   -3.3094    0.0001 C.1     1  LIG1       -0.0498
     10 C          -6.0758   -4.3209    0.0002 C.1     1  LIG1       -0.1124
     11 H          -6.6724   -5.2038    0.0004 H       1  LIG1        0.1232
     12 H          -2.5251    1.0722   -0.0003 H       1  LIG1        0.0639
     13 C          -4.8429    2.7834   -0.0003 C.ar    1  LIG1        0.1222
     14 C          -5.3252    1.4459   -0.0003 C.ar    1  LIG1        0.0342
     15 C          -6.7245    1.2968   -0.0003 C.ar    1  LIG1       -0.0485
     16 C          -7.5606    2.4014   -0.0004 C.ar    1  LIG1       -0.0429
     17 C          -6.9770    3.6690   -0.0005 C.ar    1  LIG1        0.0290
     18 N          -5.6615    3.8601   -0.0004 N.ar    1  LIG1       -0.2460
     19 H          -7.1231    0.2901   -0.0003 H       1  LIG1        0.0625
     20 H          -7.5904    4.5682   -0.0005 H       1  LIG1        0.0830
     21 C          -3.4564    3.1668   -0.0003 C.1     1  LIG1       -0.0491
     22 C          -2.3233    3.5913   -0.0003 C.1     1  LIG1       -0.1124
     23 H          -1.3240    3.9616   -0.0003 H       1  LIG1        0.1232
     24 H          -8.6397    2.2863   -0.0004 H       1  LIG1        0.0633
@<TRIPOS>BOND
     1    20    17    1
     2    17    18   ar
     3    17    16   ar
     4    24    16    1
     5    18    13   ar
     6    16    15   ar
     7    13    21    1
     8    13    14   ar
     9    15    14   ar
    10    15    19    1
    11    12     4    1
    12    21    22    3
    13    14     5    1
    14    23    22    1
    15     4     5   ar
    16     4     3   ar
    17     5     6   ar
    18     7     3    1
    19     3     2   ar
    20     6     1   ar
    21     2     1   ar
    22     2     8    1
    23     1     9    1
    24     9    10    3
    25    10    11    1
