@<TRIPOS>MOLECULE
mol_data/opt/b3lyp/geoms/mol2/6ea6ea-6ea-6ea-.out
 46 49 0 0 0
SMALL
GASTEIGER

@<TRIPOS>ATOM
      1 C          -4.3086   -2.1427    0.6704 C.ar    1  LIG1        0.1138
      2 C          -3.4409   -2.5840   -0.3430 C.ar    1  LIG1       -0.0278
      3 C          -3.1661   -1.7166   -1.3939 C.ar    1  LIG1       -0.0571
      4 C          -3.7384   -0.4476   -1.4014 C.ar    1  LIG1       -0.0355
      5 C          -4.5769   -0.0769   -0.3373 C.ar    1  LIG1        0.0750
      6 N          -4.8646   -0.9190    0.6698 N.ar    1  LIG1       -0.2383
      7 H          -2.5166   -2.0272   -2.2067 H       1  LIG1        0.0619
      8 H          -3.0142   -3.5794   -0.2964 H       1  LIG1        0.0645
      9 C          -4.6363   -3.0131    1.7641 C.1     1  LIG1       -0.0498
     10 C          -4.8935   -3.7703    2.6708 C.1     1  LIG1       -0.1124
     11 H          -5.1280   -4.4251    3.4782 H       1  LIG1        0.1232
     12 H          -3.5473    0.2388   -2.2151 H       1  LIG1        0.0639
     13 C          -4.7407    2.4660   -0.7584 C.ar    1  LIG1        0.1230
     14 C          -5.2647    1.2423   -0.2697 C.ar    1  LIG1        0.0342
     15 C          -6.5242    1.3035    0.3442 C.ar    1  LIG1       -0.0479
     16 C          -7.2159    2.5016    0.4145 C.ar    1  LIG1       -0.0349
     17 C          -6.6301    3.6537   -0.1369 C.ar    1  LIG1        0.0751
     18 N          -5.4170    3.6286   -0.6966 N.ar    1  LIG1       -0.2377
     19 H          -6.9334    0.3939    0.7690 H       1  LIG1        0.0626
     20 C          -3.4231    2.5855   -1.3209 C.1     1  LIG1       -0.0491
     21 C          -2.3177    2.7389   -1.7870 C.1     1  LIG1       -0.1124
     22 H          -1.3416    2.8786   -2.1913 H       1  LIG1        0.1232
     23 H          -8.1836    2.5548    0.9016 H       1  LIG1        0.0639
     24 C          -6.7466    6.1806    0.2311 C.ar    1  LIG1        0.1230
     25 C          -7.3542    4.9510   -0.1343 C.ar    1  LIG1        0.0342
     26 C          -8.7043    4.9966   -0.4969 C.ar    1  LIG1       -0.0479
     27 C          -9.3866    6.2060   -0.5166 C.ar    1  LIG1       -0.0349
     28 C          -8.6924    7.3737   -0.1658 C.ar    1  LIG1        0.0751
     29 N          -7.4074    7.3516    0.2068 N.ar    1  LIG1       -0.2377
     30 H          -9.2122    4.0795   -0.7804 H       1  LIG1        0.0626
     31 C          -5.3933    6.2527    0.7021 C.1     1  LIG1       -0.0491
     32 C          -4.2719    6.3599    1.1393 C.1     1  LIG1       -0.1124
     33 H          -3.2748    6.4415    1.5055 H       1  LIG1        0.1232
     34 H         -10.4360    6.2481   -0.7878 H       1  LIG1        0.0639
     35 C          -9.2806    9.6498    0.8320 C.ar    1  LIG1        0.1222
     36 C          -9.3644    8.6997   -0.2184 C.ar    1  LIG1        0.0342
     37 C         -10.1245    9.0496   -1.3397 C.ar    1  LIG1       -0.0485
     38 C         -10.7410   10.2945   -1.4045 C.ar    1  LIG1       -0.0429
     39 C         -10.5767   11.1632   -0.3254 C.ar    1  LIG1        0.0290
     40 N          -9.8777   10.8573    0.7681 N.ar    1  LIG1       -0.2460
     41 H         -10.2057    8.3510   -2.1674 H       1  LIG1        0.0625
     42 H         -11.0311   12.1521   -0.3379 H       1  LIG1        0.0830
     43 C          -8.5963    9.3670    2.0607 C.1     1  LIG1       -0.0491
     44 C          -8.0638    9.1593    3.1255 C.1     1  LIG1       -0.1124
     45 H          -7.5709    8.9700    4.0508 H       1  LIG1        0.1232
     46 H         -11.3240   10.5901   -2.2705 H       1  LIG1        0.0633
@<TRIPOS>BOND
     1    46    38    1
     2    12     4    1
     3     7     3    1
     4    22    21    1
     5    41    37    1
     6    21    20    3
     7    38    37   ar
     8    38    39   ar
     9     4     3   ar
    10     4     5   ar
    11     3     2   ar
    12    37    36   ar
    13    20    13    1
    14    34    27    1
    15    30    26    1
    16    13    18   ar
    17    13    14   ar
    18    18    17   ar
    19    27    26   ar
    20    27    28   ar
    21    26    25   ar
    22     2     8    1
    23     2     1   ar
    24    42    39    1
    25     5    14    1
    26     5     6   ar
    27    39    40   ar
    28    14    15   ar
    29    36    28    1
    30    36    35   ar
    31    28    29   ar
    32    17    25    1
    33    17    16   ar
    34    25    24   ar
    35    29    24   ar
    36    24    31    1
    37    15    16   ar
    38    15    19    1
    39    16    23    1
    40     6     1   ar
    41     1     9    1
    42    31    32    3
    43    40    35   ar
    44    35    43    1
    45    32    33    1
    46     9    10    3
    47    43    44    3
    48    10    11    1
    49    44    45    1
