@<TRIPOS>MOLECULE
mol_data/opt/b3lyp/geoms/mol2/6ea6ea-6ea6ea-.out
 46 49 0 0 0
SMALL
GASTEIGER

@<TRIPOS>ATOM
      1 C          -4.4197   -2.3613   -0.0004 C.ar    1  LIG1        0.1138
      2 C          -3.0181   -2.4666   -0.0005 C.ar    1  LIG1       -0.0278
      3 C          -2.2824   -1.2892   -0.0005 C.ar    1  LIG1       -0.0571
      4 C          -2.9411   -0.0618   -0.0004 C.ar    1  LIG1       -0.0355
      5 C          -4.3463   -0.0394   -0.0003 C.ar    1  LIG1        0.0750
      6 N          -5.0580   -1.1826   -0.0003 N.ar    1  LIG1       -0.2383
      7 H          -1.1969   -1.3202   -0.0006 H       1  LIG1        0.0619
      8 H          -2.5444   -3.4415   -0.0006 H       1  LIG1        0.0645
      9 C          -5.2292   -3.5476   -0.0004 C.1     1  LIG1       -0.0498
     10 C          -5.8825   -4.5649   -0.0004 C.1     1  LIG1       -0.1124
     11 H          -6.4712   -5.4532    0.0002 H       1  LIG1        0.1232
     12 H          -2.3747    0.8568   -0.0004 H       1  LIG1        0.0639
     13 C          -4.7098    2.5493   -0.0001 C.ar    1  LIG1        0.1230
     14 C          -5.1745    1.2057   -0.0002 C.ar    1  LIG1        0.0342
     15 C          -6.5715    1.0611   -0.0001 C.ar    1  LIG1       -0.0479
     16 C          -7.4218    2.1536   -0.0000 C.ar    1  LIG1       -0.0349
     17 C          -6.8709    3.4457    0.0000 C.ar    1  LIG1        0.0751
     18 N          -5.5392    3.6057   -0.0000 N.ar    1  LIG1       -0.2377
     19 H          -6.9725    0.0552   -0.0002 H       1  LIG1        0.0626
     20 C          -3.3272    2.9508   -0.0002 C.1     1  LIG1       -0.0491
     21 C          -2.1991    3.3881   -0.0001 C.1     1  LIG1       -0.1124
     22 H          -1.2027    3.7664    0.0008 H       1  LIG1        0.1232
     23 H          -8.4904    2.0023    0.0000 H       1  LIG1        0.0639
     24 C          -9.0682    4.8533    0.0002 C.ar    1  LIG1        0.1230
     25 C          -7.6533    4.7167    0.0002 C.ar    1  LIG1        0.0342
     26 C          -6.9395    5.9264    0.0002 C.ar    1  LIG1       -0.0479
     27 C          -7.5789    7.1542    0.0003 C.ar    1  LIG1       -0.0349
     28 C          -8.9831    7.1917    0.0004 C.ar    1  LIG1        0.0751
     29 N          -9.6828    6.0477    0.0004 N.ar    1  LIG1       -0.2377
     30 H          -5.8579    5.8718    0.0002 H       1  LIG1        0.0626
     31 C         -10.0063    3.7620    0.0002 C.1     1  LIG1       -0.0491
     32 C         -10.8695    2.9142    0.0002 C.1     1  LIG1       -0.1124
     33 H         -11.6209    2.1583   -0.0003 H       1  LIG1        0.1232
     34 H          -6.9969    8.0629    0.0004 H       1  LIG1        0.0639
     35 C          -9.3406    9.7762    0.0005 C.ar    1  LIG1        0.1222
     36 C          -9.8144    8.4353    0.0005 C.ar    1  LIG1        0.0342
     37 C         -11.2128    8.2756    0.0007 C.ar    1  LIG1       -0.0485
     38 C         -12.0563    9.3741    0.0008 C.ar    1  LIG1       -0.0429
     39 C         -11.4812   10.6459    0.0008 C.ar    1  LIG1        0.0290
     40 N         -10.1671   10.8469    0.0006 N.ar    1  LIG1       -0.2460
     41 H         -11.6033    7.2655    0.0007 H       1  LIG1        0.0625
     42 H         -12.1011   11.5407    0.0009 H       1  LIG1        0.0830
     43 C          -7.9564   10.1655    0.0003 C.1     1  LIG1       -0.0491
     44 C          -6.8247   10.5938    0.0002 C.1     1  LIG1       -0.1124
     45 H          -5.8253   10.9638   -0.0005 H       1  LIG1        0.1232
     46 H         -13.1347    9.2520    0.0009 H       1  LIG1        0.0633
@<TRIPOS>BOND
     1     8     2    1
     2     7     3    1
     3     2     3   ar
     4     2     1   ar
     5     3     4   ar
     6    45    44    1
     7     9     1    1
     8     9    10    3
     9     1     6   ar
    10     4    12    1
    11     4     5   ar
    12    10    11    1
    13     6     5   ar
    14     5    14    1
    15    33    32    1
    16    14    15   ar
    17    14    13   ar
    18    19    15    1
    19    20    21    3
    20    20    13    1
    21    21    22    1
    22    15    16   ar
    23    13    18   ar
    24    16    23    1
    25    16    17   ar
    26    18    17   ar
    27    17    25    1
    28    30    26    1
    29    44    43    3
    30    25    26   ar
    31    25    24   ar
    32    32    31    3
    33    26    27   ar
    34    31    24    1
    35    24    29   ar
    36    27    34    1
    37    27    28   ar
    38    43    35    1
    39    29    28   ar
    40    28    36    1
    41    35    36   ar
    42    35    40   ar
    43    36    37   ar
    44    40    39   ar
    45    37    41    1
    46    37    38   ar
    47    39    38   ar
    48    39    42    1
    49    38    46    1
