@<TRIPOS>MOLECULE
mol_data/opt/b3lyp/geoms/mol2/6ea6ea-6ea-6ea.out
 46 49 0 0 0
SMALL
GASTEIGER

@<TRIPOS>ATOM
      1 C          -4.2056   -2.1518    0.6140 C.ar    1  LIG1        0.1138
      2 C          -3.2677   -2.4879   -0.3770 C.ar    1  LIG1       -0.0278
      3 C          -2.9830   -1.5440   -1.3570 C.ar    1  LIG1       -0.0571
      4 C          -3.6152   -0.3043   -1.3173 C.ar    1  LIG1       -0.0355
      5 C          -4.5238   -0.0410   -0.2790 C.ar    1  LIG1        0.0750
      6 N          -4.8202   -0.9573    0.6583 N.ar    1  LIG1       -0.2383
      7 H          -2.2789   -1.7726   -2.1514 H       1  LIG1        0.0619
      8 H          -2.7957   -3.4637   -0.3685 H       1  LIG1        0.0645
      9 C          -4.5441   -3.1035    1.6342 C.1     1  LIG1       -0.0498
     10 C          -4.8086   -3.9272    2.4788 C.1     1  LIG1       -0.1124
     11 H          -5.0505   -4.6416    3.2315 H       1  LIG1        0.1232
     12 H          -3.4170    0.4408   -2.0759 H       1  LIG1        0.0639
     13 C          -4.7860    2.5141   -0.5429 C.ar    1  LIG1        0.1230
     14 C          -5.2781    1.2382   -0.1683 C.ar    1  LIG1        0.0342
     15 C          -6.5726    1.2013    0.3697 C.ar    1  LIG1       -0.0479
     16 C          -7.3244    2.3600    0.4755 C.ar    1  LIG1       -0.0349
     17 C          -6.7632    3.5722    0.0390 C.ar    1  LIG1        0.0751
     18 N          -5.5193    3.6391   -0.4450 N.ar    1  LIG1       -0.2377
     19 H          -6.9614    0.2478    0.7085 H       1  LIG1        0.0626
     20 C          -3.4457    2.7281   -1.0165 C.1     1  LIG1       -0.0491
     21 C          -2.3241    2.9594   -1.4054 C.1     1  LIG1       -0.1124
     22 H          -1.3346    3.1673   -1.7420 H       1  LIG1        0.1232
     23 H          -8.3208    2.3362    0.9038 H       1  LIG1        0.0639
     24 C          -7.0159    6.0615    0.5574 C.ar    1  LIG1        0.1230
     25 C          -7.5458    4.8336    0.0847 C.ar    1  LIG1        0.0342
     26 C          -8.8794    4.8477   -0.3363 C.ar    1  LIG1       -0.0479
     27 C          -9.6173    6.0240   -0.3234 C.ar    1  LIG1       -0.0349
     28 C          -8.9953    7.2009    0.1187 C.ar    1  LIG1        0.0751
     29 N          -7.7307    7.1990    0.5681 N.ar    1  LIG1       -0.2377
     30 H          -9.3348    3.9295   -0.6951 H       1  LIG1        0.0626
     31 C          -5.6967    6.1636    1.1130 C.1     1  LIG1       -0.0491
     32 C          -4.6101    6.2948    1.6254 C.1     1  LIG1       -0.1124
     33 H          -3.6405    6.3949    2.0552 H       1  LIG1        0.1232
     34 H         -10.6480    6.0306   -0.6510 H       1  LIG1        0.0639
     35 C         -10.6979    8.9573   -0.7015 C.ar    1  LIG1        0.1222
     36 C          -9.6919    8.5150    0.1947 C.ar    1  LIG1        0.0342
     37 C          -9.3201    9.4015    1.2169 C.ar    1  LIG1       -0.0485
     38 C          -9.9544   10.6288    1.3430 C.ar    1  LIG1       -0.0429
     39 C         -10.9570   10.9504    0.4254 C.ar    1  LIG1        0.0290
     40 N         -11.3173   10.1510   -0.5764 N.ar    1  LIG1       -0.2460
     41 H          -8.5290    9.1005    1.8942 H       1  LIG1        0.0625
     42 H         -11.4896   11.8971    0.4942 H       1  LIG1        0.0830
     43 C         -11.1112    8.2000   -1.8510 C.1     1  LIG1       -0.0491
     44 C         -11.4818    7.6081   -2.8386 C.1     1  LIG1       -0.1124
     45 H         -11.8020    7.0916   -3.7139 H       1  LIG1        0.1232
     46 H          -9.6847   11.3220    2.1332 H       1  LIG1        0.0633
@<TRIPOS>BOND
     1    45    44    1
     2    44    43    3
     3     7     3    1
     4    12     4    1
     5    43    35    1
     6    22    21    1
     7    21    20    3
     8     3     4   ar
     9     3     2   ar
    10     4     5   ar
    11    20    13    1
    12    35    40   ar
    13    35    36   ar
    14    30    26    1
    15    34    27    1
    16    40    39   ar
    17    13    18   ar
    18    13    14   ar
    19    18    17   ar
    20     2     8    1
    21     2     1   ar
    22    26    27   ar
    23    26    25   ar
    24    27    28   ar
    25     5    14    1
    26     5     6   ar
    27    14    15   ar
    28    17    25    1
    29    17    16   ar
    30    25    24   ar
    31    28    36    1
    32    28    29   ar
    33    36    37   ar
    34    15    16   ar
    35    15    19    1
    36    39    42    1
    37    39    38   ar
    38    16    23    1
    39    24    29   ar
    40    24    31    1
    41     1     6   ar
    42     1     9    1
    43    31    32    3
    44    37    38   ar
    45    37    41    1
    46    38    46    1
    47    32    33    1
    48     9    10    3
    49    10    11    1
