@<TRIPOS>MOLECULE
mol_data/opt/b3lyp/geoms/mol2/6ea6ea6ea-6ea-.out
 46 49 0 0 0
SMALL
GASTEIGER

@<TRIPOS>ATOM
      1 C          -4.4655   -2.4359   -0.0006 C.ar    1  LIG1        0.1138
      2 C          -3.0632   -2.5024   -0.0006 C.ar    1  LIG1       -0.0278
      3 C          -2.3578   -1.3039   -0.0003 C.ar    1  LIG1       -0.0571
      4 C          -3.0520   -0.0995   -0.0002 C.ar    1  LIG1       -0.0355
      5 C          -4.4624   -0.1173   -0.0003 C.ar    1  LIG1        0.0750
      6 N          -5.1374   -1.2740   -0.0005 N.ar    1  LIG1       -0.2383
      7 H          -1.2720   -1.3059   -0.0003 H       1  LIG1        0.0619
      8 H          -2.5611   -3.4631   -0.0007 H       1  LIG1        0.0645
      9 C          -5.2411   -3.6448   -0.0009 C.1     1  LIG1       -0.0498
     10 C          -5.8594   -4.6837   -0.0011 C.1     1  LIG1       -0.1124
     11 H          -6.4188   -5.5906   -0.0012 H       1  LIG1        0.1232
     12 H          -2.4952    0.8286    0.0001 H       1  LIG1        0.0639
     13 C          -6.6947    1.1673    0.0004 C.ar    1  LIG1        0.1230
     14 C          -5.2687    1.1341   -0.0002 C.ar    1  LIG1        0.0342
     15 C          -4.6441    2.3898   -0.0006 C.ar    1  LIG1       -0.0479
     16 C          -5.3636    3.5741   -0.0006 C.ar    1  LIG1       -0.0349
     17 C          -6.7653    3.5106    0.0000 C.ar    1  LIG1        0.0751
     18 N          -7.3840    2.3202    0.0005 N.ar    1  LIG1       -0.2377
     19 H          -3.5629    2.4592   -0.0012 H       1  LIG1        0.0626
     20 C          -7.5523    0.0149    0.0011 C.1     1  LIG1       -0.0491
     21 C          -8.4145   -0.8333    0.0018 C.1     1  LIG1       -0.1124
     22 H          -9.1157   -1.6351    0.0023 H       1  LIG1        0.1232
     23 H          -4.8454    4.5208   -0.0010 H       1  LIG1        0.0639
     24 C          -7.3167    6.0617   -0.0002 C.ar    1  LIG1        0.1230
     25 C          -7.6802    4.6894    0.0001 C.ar    1  LIG1        0.0342
     26 C          -9.0649    4.4385    0.0006 C.ar    1  LIG1       -0.0479
     27 C          -9.9870    5.4666    0.0007 C.ar    1  LIG1       -0.0349
     28 C          -9.5310    6.8007    0.0003 C.ar    1  LIG1        0.0751
     29 N          -8.2219    7.0564   -0.0001 N.ar    1  LIG1       -0.2377
     30 H          -9.3874    3.4047    0.0008 H       1  LIG1        0.0626
     31 C          -5.9662    6.5593   -0.0006 C.1     1  LIG1       -0.0491
     32 C          -4.8668    7.0644   -0.0010 C.1     1  LIG1       -0.1124
     33 H          -3.8969    7.5059   -0.0014 H       1  LIG1        0.1232
     34 H         -11.0409    5.2190    0.0011 H       1  LIG1        0.0639
     35 C         -10.0299    9.3265    0.0007 C.ar    1  LIG1        0.1222
     36 C         -10.4583    7.9657    0.0004 C.ar    1  LIG1        0.0342
     37 C         -11.8478    7.7556    0.0001 C.ar    1  LIG1       -0.0485
     38 C         -12.7363    8.8200    0.0001 C.ar    1  LIG1       -0.0429
     39 C         -12.2079   10.1104    0.0004 C.ar    1  LIG1        0.0290
     40 N         -10.9020   10.3606    0.0007 N.ar    1  LIG1       -0.2460
     41 H         -12.2457    6.7482   -0.0003 H       1  LIG1        0.0625
     42 H         -12.8618   10.9807    0.0004 H       1  LIG1        0.0830
     43 C          -8.6629    9.7631    0.0012 C.1     1  LIG1       -0.0491
     44 C          -7.5798   10.3014    0.0017 C.1     1  LIG1       -0.1124
     45 H          -6.5975   10.7123    0.0021 H       1  LIG1        0.1232
     46 H         -13.8088    8.6552   -0.0002 H       1  LIG1        0.0633
@<TRIPOS>BOND
     1    33    32    1
     2    11    10    1
     3    19    15    1
     4    10     9    3
     5    32    31    3
     6    23    16    1
     7     9     1    1
     8     8     2    1
     9     1     2   ar
    10     1     6   ar
    11    15    16   ar
    12    15    14   ar
    13    31    24    1
    14     2     3   ar
    15    16    17   ar
    16     6     5   ar
    17     3     7    1
    18     3     4   ar
    19     5     4   ar
    20     5    14    1
    21    41    37    1
    22    46    38    1
    23    24    29   ar
    24    24    25   ar
    25     4    12    1
    26    14    13   ar
    27    29    28   ar
    28    17    25    1
    29    17    18   ar
    30    37    38   ar
    31    37    36   ar
    32    38    39   ar
    33    25    26   ar
    34    28    36    1
    35    28    27   ar
    36    36    35   ar
    37    39    42    1
    38    39    40   ar
    39    13    18   ar
    40    13    20    1
    41    26    27   ar
    42    26    30    1
    43    27    34    1
    44    35    40   ar
    45    35    43    1
    46    20    21    3
    47    43    44    3
    48    44    45    1
    49    21    22    1
