@<TRIPOS>MOLECULE
mol_data/opt/b3lyp/geoms/mol2/6ea6ea6ea.out
 35 37 0 0 0
SMALL
GASTEIGER

@<TRIPOS>ATOM
      1 C          -4.0894   -2.0518   -0.6102 C.ar    1  LIG1        0.1138
      2 C          -3.0489   -2.1972    0.3242 C.ar    1  LIG1       -0.0278
      3 C          -2.8375   -1.1739    1.2414 C.ar    1  LIG1       -0.0571
      4 C          -3.6570   -0.0492    1.2002 C.ar    1  LIG1       -0.0355
      5 C          -4.6704    0.0149    0.2293 C.ar    1  LIG1        0.0750
      6 N          -4.8827   -0.9665   -0.6583 N.ar    1  LIG1       -0.2383
      7 H          -2.0496   -1.2547    1.9843 H       1  LIG1        0.0619
      8 H          -2.4375   -3.0924    0.3182 H       1  LIG1        0.0645
      9 C          -4.3358   -3.0887   -1.5719 C.1     1  LIG1       -0.0498
     10 C          -4.5157   -3.9806   -2.3679 C.1     1  LIG1       -0.1124
     11 H          -4.6898   -4.7559   -3.0780 H       1  LIG1        0.1232
     12 H          -3.5336    0.7569    1.9155 H       1  LIG1        0.0639
     13 C          -6.9579    1.1352    0.0238 C.ar    1  LIG1        0.1230
     14 C          -5.5457    1.2139    0.1342 C.ar    1  LIG1        0.0342
     15 C          -4.9839    2.4940    0.1583 C.ar    1  LIG1       -0.0479
     16 C          -5.7926    3.6182    0.0516 C.ar    1  LIG1       -0.0349
     17 C          -7.1778    3.4386   -0.0795 C.ar    1  LIG1        0.0751
     18 N          -7.7397    2.2240   -0.0831 N.ar    1  LIG1       -0.2377
     19 H          -3.9067    2.6031    0.2438 H       1  LIG1        0.0626
     20 C          -7.6549   -0.1182    0.0667 C.1     1  LIG1       -0.0491
     21 C          -8.2843   -1.1477    0.1336 C.1     1  LIG1       -0.1124
     22 H          -8.8278   -2.0631    0.1729 H       1  LIG1        0.1232
     23 H          -5.3657    4.6150    0.0788 H       1  LIG1        0.0639
     24 C          -9.2795    4.7694    0.4983 C.ar    1  LIG1        0.1222
     25 C          -8.0812    4.6088   -0.2440 C.ar    1  LIG1        0.0342
     26 C          -7.7555    5.6146   -1.1606 C.ar    1  LIG1       -0.0485
     27 C          -8.6030    6.7037   -1.3323 C.ar    1  LIG1       -0.0429
     28 C          -9.7677    6.7538   -0.5662 C.ar    1  LIG1        0.0290
     29 N         -10.1013    5.8254    0.3308 N.ar    1  LIG1       -0.2460
     30 H          -6.8498    5.5227   -1.7531 H       1  LIG1        0.0625
     31 H         -10.4660    7.5816   -0.6757 H       1  LIG1        0.0830
     32 C          -9.6718    3.8418    1.5198 C.1     1  LIG1       -0.0491
     33 C         -10.0234    3.1077    2.4132 C.1     1  LIG1       -0.1124
     34 H         -10.3330    2.4396    3.1830 H       1  LIG1        0.1232
     35 H          -8.3752    7.4876   -2.0470 H       1  LIG1        0.0633
@<TRIPOS>BOND
     1    11    10    1
     2    10     9    3
     3    35    27    1
     4    30    26    1
     5     9     1    1
     6    27    26   ar
     7    27    28   ar
     8    26    25   ar
     9    31    28    1
    10     6     1   ar
    11     6     5   ar
    12     1     2   ar
    13    28    29   ar
    14    25    17    1
    15    25    24   ar
    16    18    17   ar
    17    18    13   ar
    18    17    16   ar
    19    13    20    1
    20    13    14   ar
    21    16    23    1
    22    16    15   ar
    23    20    21    3
    24    21    22    1
    25    14    15   ar
    26    14     5    1
    27    15    19    1
    28     5     4   ar
    29     8     2    1
    30     2     3   ar
    31    29    24   ar
    32    24    32    1
    33     4     3   ar
    34     4    12    1
    35     3     7    1
    36    32    33    3
    37    33    34    1
