@<TRIPOS>MOLECULE
mol_data/opt/b3lyp/geoms/mol2/6ea6ea6ea6ea.out
 46 49 0 0 0
SMALL
GASTEIGER

@<TRIPOS>ATOM
      1 C          -4.0847   -2.2764   -0.0016 C.ar    1  LIG1        0.1138
      2 C          -2.6834   -2.1908   -0.0002 C.ar    1  LIG1       -0.0278
      3 C          -2.1121   -0.9229    0.0015 C.ar    1  LIG1       -0.0571
      4 C          -2.9330    0.1989    0.0017 C.ar    1  LIG1       -0.0355
      5 C          -4.3334    0.0288    0.0002 C.ar    1  LIG1        0.0750
      6 N          -4.8789   -1.1944   -0.0014 N.ar    1  LIG1       -0.2383
      7 H          -1.0325   -0.8070    0.0026 H       1  LIG1        0.0619
      8 H          -2.0803   -3.0914   -0.0005 H       1  LIG1        0.0645
      9 C          -4.7241   -3.5625   -0.0034 C.1     1  LIG1       -0.0498
     10 C          -5.2246   -4.6630   -0.0048 C.1     1  LIG1       -0.1124
     11 H          -5.6815   -5.6256   -0.0061 H       1  LIG1        0.1232
     12 H          -2.4791    1.1814    0.0031 H       1  LIG1        0.0639
     13 C          -6.6902    1.0706   -0.0002 C.ar    1  LIG1        0.1230
     14 C          -5.2700    1.1861    0.0003 C.ar    1  LIG1        0.0342
     15 C          -4.7789    2.5022    0.0010 C.ar    1  LIG1       -0.0479
     16 C          -5.6209    3.5990    0.0011 C.ar    1  LIG1       -0.0349
     17 C          -7.0132    3.3878    0.0004 C.ar    1  LIG1        0.0751
     18 N          -7.4994    2.1451   -0.0002 N.ar    1  LIG1       -0.2377
     19 H          -3.7111    2.6848    0.0014 H       1  LIG1        0.0626
     20 C          -7.4209   -0.1658   -0.0007 C.1     1  LIG1       -0.0491
     21 C          -8.1803   -1.1071   -0.0011 C.1     1  LIG1       -0.1124
     22 H          -8.7853   -1.9836   -0.0014 H       1  LIG1        0.1232
     23 H          -5.1867    4.5906    0.0017 H       1  LIG1        0.0639
     24 C          -9.4058    4.3384    0.0006 C.ar    1  LIG1        0.1230
     25 C          -7.9908    4.5065    0.0003 C.ar    1  LIG1        0.0342
     26 C          -7.5475    5.8396   -0.0000 C.ar    1  LIG1       -0.0479
     27 C          -8.4291    6.9047   -0.0001 C.ar    1  LIG1       -0.0349
     28 C          -9.8129    6.6424    0.0000 C.ar    1  LIG1        0.0751
     29 N         -10.2531    5.3833    0.0004 N.ar    1  LIG1       -0.2377
     30 H          -6.4865    6.0594   -0.0002 H       1  LIG1        0.0626
     31 C         -10.0859    3.0745    0.0011 C.1     1  LIG1       -0.0491
     32 C         -10.8008    2.0991    0.0017 C.1     1  LIG1       -0.1124
     33 H         -11.3583    1.1917    0.0022 H       1  LIG1        0.1232
     34 H          -8.0312    7.9113   -0.0003 H       1  LIG1        0.0639
     35 C         -12.2417    7.4941    0.0012 C.ar    1  LIG1        0.1222
     36 C         -10.8336    7.7267   -0.0002 C.ar    1  LIG1        0.0342
     37 C         -10.4294    9.0724   -0.0020 C.ar    1  LIG1       -0.0485
     38 C         -11.3572   10.1027   -0.0023 C.ar    1  LIG1       -0.0429
     39 C         -12.7094    9.7614   -0.0008 C.ar    1  LIG1        0.0290
     40 N         -13.1417    8.5042    0.0009 N.ar    1  LIG1       -0.2460
     41 H          -9.3757    9.3241   -0.0033 H       1  LIG1        0.0625
     42 H         -13.4786   10.5318   -0.0011 H       1  LIG1        0.0830
     43 C         -12.8642    6.2020    0.0034 C.1     1  LIG1       -0.0491
     44 C         -13.5442    5.2019    0.0053 C.1     1  LIG1       -0.1124
     45 H         -14.0735    4.2778    0.0070 H       1  LIG1        0.1232
     46 H         -11.0428   11.1412   -0.0037 H       1  LIG1        0.0633
@<TRIPOS>BOND
     1    11    10    1
     2    10     9    3
     3    46    38    1
     4     9     1    1
     5    41    37    1
     6    38    37   ar
     7    38    39   ar
     8    37    36   ar
     9     1     6   ar
    10     1     2   ar
    11    22    21    1
    12     6     5   ar
    13    21    20    3
    14    42    39    1
    15    39    40   ar
    16    20    13    1
    17     8     2    1
    18    34    27    1
    19     2     3   ar
    20    36    28    1
    21    36    35   ar
    22    30    26    1
    23    13    18   ar
    24    13    14   ar
    25    18    17   ar
    26    27    26   ar
    27    27    28   ar
    28    26    25   ar
    29    28    29   ar
    30     5    14    1
    31     5     4   ar
    32    25    17    1
    33    25    24   ar
    34    14    15   ar
    35    29    24   ar
    36    17    16   ar
    37    24    31    1
    38    40    35   ar
    39    15    16   ar
    40    15    19    1
    41    16    23    1
    42    31    32    3
    43    35    43    1
    44     3     4   ar
    45     3     7    1
    46    32    33    1
    47     4    12    1
    48    43    44    3
    49    44    45    1
