@<TRIPOS>MOLECULE
mol_data/opt/b3lyp/geoms/mol2/6ea6ea-4ea6ea.out
 47 50 0 0 0
SMALL
GASTEIGER

@<TRIPOS>ATOM
      1 C          -4.4631   -2.2779   -0.1709 C.ar    1  LIG1        0.1138
      2 C          -3.0989   -2.4057    0.1401 C.ar    1  LIG1       -0.0278
      3 C          -2.3836   -1.2512    0.4367 C.ar    1  LIG1       -0.0571
      4 C          -3.0288   -0.0182    0.4004 C.ar    1  LIG1       -0.0355
      5 C          -4.3903    0.0238    0.0573 C.ar    1  LIG1        0.0750
      6 N          -5.0927   -1.0909   -0.2083 N.ar    1  LIG1       -0.2383
      7 H          -1.3322   -1.3096    0.7017 H       1  LIG1        0.0619
      8 H          -2.6349   -3.3854    0.1535 H       1  LIG1        0.0645
      9 C          -5.2448   -3.4460   -0.4641 C.1     1  LIG1       -0.0498
     10 C          -5.8760   -4.4486   -0.7052 C.1     1  LIG1       -0.1124
     11 H          -6.4453   -5.3229   -0.9221 H       1  LIG1        0.1232
     12 H          -2.4947    0.8915    0.6391 H       1  LIG1        0.0639
     13 C          -4.6760    2.5564   -0.3574 C.ar    1  LIG1        0.1230
     14 C          -5.1784    1.2866    0.0231 C.ar    1  LIG1        0.0342
     15 C          -6.5352    1.2326    0.3743 C.ar    1  LIG1       -0.0479
     16 C          -7.3081    2.3819    0.3766 C.ar    1  LIG1       -0.0350
     17 C          -6.7121    3.6011    0.0103 C.ar    1  LIG1        0.0736
     18 N          -5.4284    3.6728   -0.3563 N.ar    1  LIG1       -0.2377
     19 H          -6.9580    0.2729    0.6484 H       1  LIG1        0.0626
     20 C          -3.3344    2.7557   -0.8351 C.1     1  LIG1       -0.0491
     21 C          -2.2212    2.9683   -1.2573 C.1     1  LIG1       -0.1124
     22 H          -1.2440    3.1566   -1.6382 H       1  LIG1        0.1232
     23 H          -8.3489    2.3477    0.6796 H       1  LIG1        0.0639
     24 C          -6.9943    6.0859    0.4877 C.ar    1  LIG1        0.0344
     25 C          -7.7959    7.2384    0.4157 C.ar    1  LIG1       -0.0379
     26 C          -7.5016    4.8606   -0.0130 C.ar    1  LIG1        0.0158
     27 C          -9.0837    7.2171   -0.1314 C.ar    1  LIG1       -0.0140
     28 H          -7.4007    8.1620    0.8253 H       1  LIG1        0.0636
     29 C          -8.7961    4.8482   -0.5501 C.ar    1  LIG1       -0.0508
     30 C          -9.5779    5.9960   -0.6141 C.ar    1  LIG1       -0.0533
     31 H          -9.1844    3.9209   -0.9601 H       1  LIG1        0.0625
     32 C          -5.7173    6.2036    1.1214 C.1     1  LIG1       -0.0690
     33 C          -4.6731    6.3912    1.7027 C.1     1  LIG1       -0.1139
     34 H          -3.7346    6.5202    2.1895 H       1  LIG1        0.1232
     35 H         -10.5654    5.9494   -1.0582 H       1  LIG1        0.0624
     36 C         -11.2237    8.5904    0.1652 C.ar    1  LIG1        0.1208
     37 C          -9.8654    8.4766   -0.2297 C.ar    1  LIG1        0.0160
     38 C          -9.2551    9.6363   -0.7275 C.ar    1  LIG1       -0.0499
     39 C          -9.9761   10.8200   -0.8300 C.ar    1  LIG1       -0.0429
     40 C         -11.3128   10.8135   -0.4288 C.ar    1  LIG1        0.0290
     41 N         -11.9269    9.7367    0.0601 N.ar    1  LIG1       -0.2461
     42 H          -8.2195    9.5923   -1.0508 H       1  LIG1        0.0625
     43 H         -11.9178   11.7152   -0.5019 H       1  LIG1        0.0830
     44 C         -11.9396    7.4882    0.7455 C.1     1  LIG1       -0.0492
     45 C         -12.5657    6.5839    1.2479 C.1     1  LIG1       -0.1124
     46 H         -13.1174    5.7893    1.6945 H       1  LIG1        0.1232
     47 H          -9.5197   11.7237   -1.2204 H       1  LIG1        0.0633
@<TRIPOS>BOND
     1    22    21    1
     2    21    20    3
     3    47    39    1
     4    35    30    1
     5    42    38    1
     6    31    29    1
     7    11    10    1
     8    20    13    1
     9    39    38   ar
    10    39    40   ar
    11    38    37   ar
    12    10     9    3
    13    30    29   ar
    14    30    27   ar
    15    29    26   ar
    16    43    40    1
    17     9     1    1
    18    40    41   ar
    19    13    18   ar
    20    13    14   ar
    21    18    17   ar
    22    37    27    1
    23    37    36   ar
    24     6     1   ar
    25     6     5   ar
    26     1     2   ar
    27    27    25   ar
    28    26    17    1
    29    26    24   ar
    30    17    16   ar
    31    14     5    1
    32    14    15   ar
    33     5     4   ar
    34    41    36   ar
    35     2     8    1
    36     2     3   ar
    37    36    44    1
    38    15    16   ar
    39    15    19    1
    40    16    23    1
    41     4     3   ar
    42     4    12    1
    43    25    24   ar
    44    25    28    1
    45     3     7    1
    46    24    32    1
    47    44    45    3
    48    32    33    3
    49    45    46    1
    50    33    34    1
