@<TRIPOS>MOLECULE
mol_data/opt/b3lyp/geoms/mol2/6ea6ea6ea6ea-.out
 46 49 0 0 0
SMALL
GASTEIGER

@<TRIPOS>ATOM
      1 C          -4.2252   -2.3569   -0.0013 C.ar    1  LIG1        0.1138
      2 C          -2.8219   -2.3152   -0.0004 C.ar    1  LIG1       -0.0278
      3 C          -2.2112   -1.0657    0.0007 C.ar    1  LIG1       -0.0571
      4 C          -2.9964    0.0813    0.0009 C.ar    1  LIG1       -0.0355
      5 C          -4.4014   -0.0450    0.0000 C.ar    1  LIG1        0.0750
      6 N          -4.9848   -1.2505   -0.0011 N.ar    1  LIG1       -0.2383
      7 H          -1.1284   -0.9838    0.0014 H       1  LIG1        0.0619
      8 H          -2.2471   -3.2342   -0.0007 H       1  LIG1        0.0645
      9 C          -4.9049   -3.6221   -0.0025 C.1     1  LIG1       -0.0498
     10 C          -5.4408   -4.7058   -0.0035 C.1     1  LIG1       -0.1124
     11 H          -5.9284   -5.6533   -0.0043 H       1  LIG1        0.1232
     12 H          -2.5120    1.0493    0.0019 H       1  LIG1        0.0639
     13 C          -6.7251    1.0680    0.0001 C.ar    1  LIG1        0.1230
     14 C          -5.3020    1.1405    0.0002 C.ar    1  LIG1        0.0342
     15 C          -4.7709    2.4411    0.0003 C.ar    1  LIG1       -0.0479
     16 C          -5.5788    3.5632    0.0004 C.ar    1  LIG1       -0.0349
     17 C          -6.9768    3.3939    0.0003 C.ar    1  LIG1        0.0751
     18 N          -7.5010    2.1669    0.0002 N.ar    1  LIG1       -0.2377
     19 H          -3.6979    2.5905    0.0003 H       1  LIG1        0.0626
     20 C          -7.4932   -0.1456    0.0001 C.1     1  LIG1       -0.0491
     21 C          -8.2817   -1.0625    0.0002 C.1     1  LIG1       -0.1124
     22 H          -8.9126   -1.9206    0.0003 H       1  LIG1        0.1232
     23 H          -5.1157    4.5417    0.0006 H       1  LIG1        0.0639
     24 C          -9.3409    4.4122    0.0010 C.ar    1  LIG1        0.1230
     25 C          -7.9203    4.5415    0.0004 C.ar    1  LIG1        0.0342
     26 C          -7.4417    5.8596   -0.0003 C.ar    1  LIG1       -0.0479
     27 C          -8.2913    6.9543   -0.0003 C.ar    1  LIG1       -0.0349
     28 C          -9.6767    6.7324    0.0003 C.ar    1  LIG1        0.0751
     29 N         -10.1562    5.4798    0.0009 N.ar    1  LIG1       -0.2377
     30 H          -6.3750    6.0499   -0.0009 H       1  LIG1        0.0626
     31 C         -10.0571    3.1680    0.0018 C.1     1  LIG1       -0.0491
     32 C         -10.8069    2.2191    0.0026 C.1     1  LIG1       -0.1124
     33 H         -11.3974    1.3328    0.0033 H       1  LIG1        0.1232
     34 H          -7.8831    7.9531   -0.0008 H       1  LIG1        0.0639
     35 C         -10.5018    9.2076   -0.0002 C.ar    1  LIG1        0.1222
     36 C         -10.7213    7.8030    0.0003 C.ar    1  LIG1        0.0342
     37 C         -12.0666    7.3887    0.0008 C.ar    1  LIG1       -0.0485
     38 C         -13.0969    8.3145    0.0009 C.ar    1  LIG1       -0.0429
     39 C         -12.7650    9.6703    0.0003 C.ar    1  LIG1        0.0290
     40 N         -11.5099   10.1091   -0.0002 N.ar    1  LIG1       -0.2460
     41 H         -12.2641    6.3239    0.0012 H       1  LIG1        0.0625
     42 H         -13.5386   10.4360    0.0003 H       1  LIG1        0.0830
     43 C          -9.2125    9.8450   -0.0007 C.1     1  LIG1       -0.0491
     44 C          -8.1787   10.4739   -0.0012 C.1     1  LIG1       -0.1124
     45 H          -7.2673   11.0261   -0.0016 H       1  LIG1        0.1232
     46 H         -14.1346    7.9969    0.0013 H       1  LIG1        0.0633
@<TRIPOS>BOND
     1    11    10    1
     2    10     9    3
     3     9     1    1
     4    45    44    1
     5     1     6   ar
     6     1     2   ar
     7    44    43    3
     8     6     5   ar
     9    30    26    1
    10    34    27    1
    11    43    35    1
    12     8     2    1
    13     2     3   ar
    14    27    26   ar
    15    27    28   ar
    16    26    25   ar
    17    35    40   ar
    18    35    36   ar
    19    40    39   ar
    20     5    14    1
    21     5     4   ar
    22    13    20    1
    23    13    14   ar
    24    13    18   ar
    25    20    21    3
    26    14    15   ar
    27    18    17   ar
    28    21    22    1
    29    28    36    1
    30    28    29   ar
    31    36    37   ar
    32    19    15    1
    33    15    16   ar
    34    17    25    1
    35    17    16   ar
    36    42    39    1
    37    39    38   ar
    38    25    24   ar
    39    16    23    1
    40     3     4   ar
    41     3     7    1
    42    37    38   ar
    43    37    41    1
    44    38    46    1
    45    29    24   ar
    46     4    12    1
    47    24    31    1
    48    31    32    3
    49    32    33    1
