@<TRIPOS>MOLECULE
mol_data/opt/b3lyp/geoms/mol2/6ea6ea-6ea.out
 35 37 0 0 0
SMALL
GASTEIGER

@<TRIPOS>ATOM
      1 C          -4.4415   -2.2211   -0.0001 C.ar    1  LIG1        0.1138
      2 C          -3.0393   -2.3179   -0.0002 C.ar    1  LIG1       -0.0278
      3 C          -2.3107   -1.1361   -0.0002 C.ar    1  LIG1       -0.0571
      4 C          -2.9768    0.0873   -0.0002 C.ar    1  LIG1       -0.0355
      5 C          -4.3822    0.1012   -0.0002 C.ar    1  LIG1        0.0750
      6 N          -5.0869   -1.0463   -0.0001 N.ar    1  LIG1       -0.2383
      7 H          -1.2250   -1.1604   -0.0003 H       1  LIG1        0.0619
      8 H          -2.5596   -3.2900   -0.0001 H       1  LIG1        0.0645
      9 C          -5.2438   -3.4124   -0.0000 C.1     1  LIG1       -0.0498
     10 C          -5.8907   -4.4338    0.0000 C.1     1  LIG1       -0.1124
     11 H          -6.4742   -5.3254    0.0001 H       1  LIG1        0.1232
     12 H          -2.4158    1.0091   -0.0003 H       1  LIG1        0.0639
     13 C          -4.7614    2.6873   -0.0001 C.ar    1  LIG1        0.1230
     14 C          -5.2178    1.3413   -0.0001 C.ar    1  LIG1        0.0342
     15 C          -6.6140    1.1891   -0.0001 C.ar    1  LIG1       -0.0479
     16 C          -7.4707    2.2767   -0.0001 C.ar    1  LIG1       -0.0349
     17 C          -6.9280    3.5720   -0.0001 C.ar    1  LIG1        0.0751
     18 N          -5.5975    3.7387   -0.0001 N.ar    1  LIG1       -0.2377
     19 H          -7.0100    0.1812   -0.0002 H       1  LIG1        0.0626
     20 C          -3.3816    3.0981   -0.0001 C.1     1  LIG1       -0.0491
     21 C          -2.2562    3.5426   -0.0001 C.1     1  LIG1       -0.1124
     22 H          -1.2620    3.9265   -0.0010 H       1  LIG1        0.1232
     23 H          -8.5381    2.1187   -0.0001 H       1  LIG1        0.0639
     24 C          -9.1362    4.9613   -0.0001 C.ar    1  LIG1        0.1222
     25 C          -7.7192    4.8416   -0.0001 C.ar    1  LIG1        0.0342
     26 C          -6.9985    6.0506   -0.0001 C.ar    1  LIG1       -0.0485
     27 C          -7.6531    7.2713   -0.0001 C.ar    1  LIG1       -0.0429
     28 C          -9.0489    7.2701   -0.0001 C.ar    1  LIG1        0.0290
     29 N          -9.7723    6.1549   -0.0001 N.ar    1  LIG1       -0.2460
     30 H          -5.9172    5.9917   -0.0001 H       1  LIG1        0.0625
     31 H          -9.6095    8.2032   -0.0001 H       1  LIG1        0.0830
     32 C         -10.0604    3.8600   -0.0001 C.1     1  LIG1       -0.0491
     33 C         -10.9157    3.0040   -0.0001 C.1     1  LIG1       -0.1124
     34 H         -11.6635    2.2447   -0.0005 H       1  LIG1        0.1232
     35 H          -7.0984    8.2041   -0.0001 H       1  LIG1        0.0633
@<TRIPOS>BOND
     1    22    21    1
     2    34    33    1
     3    12     4    1
     4     7     3    1
     5     4     3   ar
     6     4     5   ar
     7     3     2   ar
     8    19    15    1
     9     5    14    1
    10     5     6   ar
    11     2     8    1
    12     2     1   ar
    13    23    16    1
    14    15    14   ar
    15    15    16   ar
    16    30    26    1
    17    14    13   ar
    18    16    17   ar
    19    35    27    1
    20    26    27   ar
    21    26    25   ar
    22    27    28   ar
    23    13    18   ar
    24    13    20    1
    25    17    25    1
    26    17    18   ar
    27    25    24   ar
    28    28    31    1
    29    28    29   ar
    30    24    29   ar
    31    24    32    1
    32    21    20    3
    33    33    32    3
    34     6     1   ar
    35     1     9    1
    36     9    10    3
    37    10    11    1
