@<TRIPOS>MOLECULE
mol_data/opt/b3lyp/geoms/mol2/6ea6ea6ea-6ea.out
 46 49 0 0 0
SMALL
GASTEIGER

@<TRIPOS>ATOM
      1 C          -4.3206   -2.3660   -0.0010 C.ar    1  LIG1        0.1138
      2 C          -2.9169   -2.3876   -0.0005 C.ar    1  LIG1       -0.0278
      3 C          -2.2501   -1.1672    0.0003 C.ar    1  LIG1       -0.0571
      4 C          -2.9827    0.0142    0.0005 C.ar    1  LIG1       -0.0355
      5 C          -4.3917   -0.0486   -0.0001 C.ar    1  LIG1        0.0750
      6 N          -5.0295   -1.2263   -0.0008 N.ar    1  LIG1       -0.2383
      7 H          -1.1647   -1.1343    0.0007 H       1  LIG1        0.0619
      8 H          -2.3844   -3.3318   -0.0007 H       1  LIG1        0.0645
      9 C          -5.0566   -3.5993   -0.0018 C.1     1  LIG1       -0.0498
     10 C          -5.6399   -4.6582   -0.0025 C.1     1  LIG1       -0.1124
     11 H          -6.1692   -5.5831   -0.0031 H       1  LIG1        0.1232
     12 H          -2.4557    0.9595    0.0012 H       1  LIG1        0.0639
     13 C          -6.6632    1.1668    0.0004 C.ar    1  LIG1        0.1230
     14 C          -5.2369    1.1771    0.0000 C.ar    1  LIG1        0.0342
     15 C          -4.6511    2.4512   -0.0002 C.ar    1  LIG1       -0.0479
     16 C          -5.4067    3.6127   -0.0002 C.ar    1  LIG1       -0.0349
     17 C          -6.8058    3.5066    0.0002 C.ar    1  LIG1        0.0751
     18 N          -7.3877    2.2980    0.0005 N.ar    1  LIG1       -0.2377
     19 H          -3.5726    2.5542   -0.0006 H       1  LIG1        0.0626
     20 C          -7.4850   -0.0114    0.0009 C.1     1  LIG1       -0.0491
     21 C          -8.3201   -0.8862    0.0015 C.1     1  LIG1       -0.1124
     22 H          -8.9973   -1.7082    0.0026 H       1  LIG1        0.1232
     23 H          -4.9170    4.5743   -0.0004 H       1  LIG1        0.0639
     24 C          -7.4277    6.0410    0.0000 C.ar    1  LIG1        0.1230
     25 C          -7.7552    4.6580    0.0002 C.ar    1  LIG1        0.0342
     26 C          -9.1305    4.3723    0.0005 C.ar    1  LIG1       -0.0479
     27 C         -10.0858    5.3743    0.0006 C.ar    1  LIG1       -0.0349
     28 C          -9.6681    6.7155    0.0004 C.ar    1  LIG1        0.0751
     29 N          -8.3593    7.0086    0.0001 N.ar    1  LIG1       -0.2377
     30 H          -9.4266    3.3306    0.0007 H       1  LIG1        0.0626
     31 C          -6.0916    6.5767   -0.0002 C.1     1  LIG1       -0.0491
     32 C          -5.0108    7.1207   -0.0005 C.1     1  LIG1       -0.1124
     33 H          -4.0561    7.5943   -0.0015 H       1  LIG1        0.1232
     34 H         -11.1336    5.1166    0.0008 H       1  LIG1        0.0639
     35 C         -11.9984    7.8889    0.0006 C.ar    1  LIG1        0.1222
     36 C         -10.5763    7.9041    0.0004 C.ar    1  LIG1        0.0342
     37 C          -9.9734    9.1759    0.0002 C.ar    1  LIG1       -0.0485
     38 C         -10.7405   10.3291    0.0002 C.ar    1  LIG1       -0.0429
     39 C         -12.1299   10.1957    0.0004 C.ar    1  LIG1        0.0290
     40 N         -12.7446    9.0170    0.0006 N.ar    1  LIG1       -0.2460
     41 H          -8.8913    9.2191    0.0001 H       1  LIG1        0.0625
     42 H         -12.7764   11.0715    0.0004 H       1  LIG1        0.0830
     43 C         -12.8139    6.7048    0.0007 C.1     1  LIG1       -0.0491
     44 C         -13.5842    5.7717    0.0009 C.1     1  LIG1       -0.1124
     45 H         -14.2559    4.9443    0.0010 H       1  LIG1        0.1232
     46 H         -10.2767   11.3102    0.0001 H       1  LIG1        0.0633
@<TRIPOS>BOND
     1    11    10    1
     2    10     9    3
     3     9     1    1
     4    33    32    1
     5     1     6   ar
     6     1     2   ar
     7     6     5   ar
     8     8     2    1
     9    19    15    1
    10     2     3   ar
    11    32    31    3
    12    23    16    1
    13    15    16   ar
    14    15    14   ar
    15    31    24    1
    16    16    17   ar
    17     5    14    1
    18     5     4   ar
    19    24    29   ar
    20    24    25   ar
    21    14    13   ar
    22    41    37    1
    23    46    38    1
    24    29    28   ar
    25    17    25    1
    26    17    18   ar
    27    37    38   ar
    28    37    36   ar
    29    38    39   ar
    30    25    26   ar
    31     3     4   ar
    32     3     7    1
    33    28    36    1
    34    28    27   ar
    35    36    35   ar
    36    39    42    1
    37    39    40   ar
    38    13    18   ar
    39    13    20    1
    40     4    12    1
    41    26    27   ar
    42    26    30    1
    43    35    40   ar
    44    35    43    1
    45    27    34    1
    46    43    44    3
    47    44    45    1
    48    20    21    3
    49    21    22    1
