@<TRIPOS>MOLECULE
mol_data/opt/b3lyp/geoms/mol2/6ed13ie-13dd-6ie-.out
 51 54 0 0 0
SMALL
GASTEIGER

@<TRIPOS>ATOM
      1 C          -4.6942   -2.0465   -0.7921 C.ar    1  LIG1        0.1139
      2 C          -3.3237   -2.2056   -1.0706 C.ar    1  LIG1       -0.0266
      3 C          -2.5484   -1.0649   -1.1826 C.ar    1  LIG1       -0.0396
      4 C          -3.1246    0.2000   -0.9744 C.ar    1  LIG1        0.0792
      5 C          -4.4902    0.2646   -0.5838 C.ar    1  LIG1        0.1061
      6 N          -5.2480   -0.8501   -0.5466 N.ar    1  LIG1       -0.2357
      7 H          -1.5021   -1.1299   -1.4616 H       1  LIG1        0.0632
      8 H          -2.9077   -3.1931   -1.2285 H       1  LIG1        0.0646
      9 C          -5.5588   -3.1887   -0.7582 C.1     1  LIG1       -0.0498
     10 C          -6.2643   -4.1704   -0.7384 C.1     1  LIG1       -0.1124
     11 H          -6.8932   -5.0311   -0.7182 H       1  LIG1        0.1232
     12 N          -1.6670    2.2512   -1.5912 N.1     1  LIG1       -0.1908
     13 C          -2.3389    1.3523   -1.2826 C.1     1  LIG1        0.1014
     14 C          -5.2160    1.4860   -0.2455 C.ar    1  LIG1        0.0709
     15 C          -4.8866    2.7200    0.3239 C.ar    1  LIG1       -0.0076
     16 C          -6.1082    3.4569    0.4386 C.ar    1  LIG1        0.0549
     17 C          -7.1466    2.6488   -0.0499 C.ar    1  LIG1        0.0805
     18 N          -6.5852    1.4629   -0.4290 N.ar    1  LIG1       -0.3506
     19 H          -7.0455    0.6777   -0.8657 H       1  LIG1        0.1660
     20 C          -3.5767    3.2092    0.8611 C.3     1  LIG1       -0.0365
     21 H          -3.7592    3.8983    1.6898 H       1  LIG1        0.0279
     22 H          -2.9950    3.7436    0.1040 H       1  LIG1        0.0279
     23 H          -2.9550    2.3880    1.2265 H       1  LIG1        0.0279
     24 C          -6.2473    4.7353    1.0328 C.1     1  LIG1       -0.0672
     25 C          -6.3461    5.8226    1.5548 C.1     1  LIG1       -0.1138
     26 H          -6.4503    6.7940    1.9801 H       1  LIG1        0.1232
     27 C          -8.5769    2.8599   -0.1116 C.ar    1  LIG1        0.0834
     28 C          -9.3504    3.9569   -0.4872 C.ar    1  LIG1        0.0964
     29 C         -10.7304    3.5671   -0.3691 C.ar    1  LIG1        0.0950
     30 C         -10.7668    2.2437    0.0702 C.ar    1  LIG1        0.0676
     31 N          -9.4582    1.8489    0.2078 N.ar    1  LIG1       -0.3509
     32 H          -9.1738    0.9562    0.5813 H       1  LIG1        0.1660
     33 N          -8.5341    6.2321   -1.3931 N.1     1  LIG1       -0.1908
     34 C          -8.8857    5.2055   -0.9731 C.1     1  LIG1        0.1026
     35 N         -12.7776    5.0602   -0.8698 N.1     1  LIG1       -0.1908
     36 C         -11.8540    4.3896   -0.6410 C.1     1  LIG1        0.1026
     37 C         -11.9776    0.4886    1.4498 C.ar    1  LIG1        0.0474
     38 C         -11.9102    1.3576    0.3319 C.ar    1  LIG1        0.0218
     39 C         -12.9929    1.3751   -0.5566 C.ar    1  LIG1       -0.0340
     40 C         -14.0935    0.5376   -0.3403 C.ar    1  LIG1        0.0434
     41 C         -14.0422   -0.3061    0.7840 C.ar    1  LIG1        0.0433
     42 N         -13.0279   -0.3233    1.6451 N.ar    1  LIG1       -0.2583
     43 H         -12.9822    2.0311   -1.4193 H       1  LIG1        0.0637
     44 H         -14.8671   -0.9849    0.9874 H       1  LIG1        0.0842
     45 C         -10.9095    0.4164    2.5159 C.3     1  LIG1       -0.0217
     46 H         -10.4510    1.3885    2.7149 H       1  LIG1        0.0293
     47 H         -10.1121   -0.2906    2.2473 H       1  LIG1        0.0293
     48 H         -11.3619    0.0384    3.4337 H       1  LIG1        0.0293
     49 C         -15.2133    0.5225   -1.2232 C.1     1  LIG1       -0.0681
     50 C         -16.1659    0.5030   -1.9681 C.1     1  LIG1       -0.1139
     51 H         -17.0058    0.4943   -2.6241 H       1  LIG1        0.1232
@<TRIPOS>BOND
     1    51    50    1
     2    50    49    3
     3    12    13    3
     4     7     3    1
     5    43    39    1
     6    33    34    3
     7    13     4    1
     8     8     2    1
     9    49    40    1
    10     3     2   ar
    11     3     4   ar
    12     2     1   ar
    13     4     5   ar
    14    34    28    1
    15    35    36    3
    16    19    18    1
    17     1     9    1
    18     1     6   ar
    19     9    10    3
    20    10    11    1
    21    36    29    1
    22     5     6   ar
    23     5    14    1
    24    39    40   ar
    25    39    38   ar
    26    28    29   ar
    27    28    27   ar
    28    18    14   ar
    29    18    17   ar
    30    29    30   ar
    31    40    41   ar
    32    14    15   ar
    33    27    17    1
    34    27    31   ar
    35    17    16   ar
    36    30    31   ar
    37    30    38    1
    38    22    20    1
    39    31    32    1
    40    15    16   ar
    41    15    20    1
    42    38    37   ar
    43    16    24    1
    44    41    44    1
    45    41    42   ar
    46    20    23    1
    47    20    21    1
    48    24    25    3
    49    37    42   ar
    50    37    45    1
    51    25    26    1
    52    47    45    1
    53    45    46    1
    54    45    48    1
