@<TRIPOS>MOLECULE
mol_data/opt/b3lyp/geoms/mol2/6ed12id12ai-6fh-.out
 47 50 0 0 0
SMALL
GASTEIGER

@<TRIPOS>ATOM
      1 C          -4.0390   -1.9762    0.5409 C.ar    1  LIG1        0.1140
      2 C          -2.7779   -2.0177   -0.0872 C.ar    1  LIG1       -0.0266
      3 C          -2.3539   -0.9000   -0.7832 C.ar    1  LIG1       -0.0395
      4 C          -3.1738    0.2406   -0.8262 C.ar    1  LIG1        0.0808
      5 C          -4.3961    0.2179   -0.1040 C.ar    1  LIG1        0.1249
      6 N          -4.8150   -0.8811    0.5399 N.ar    1  LIG1       -0.2340
      7 H          -1.4102   -0.9000   -1.3180 H       1  LIG1        0.0632
      8 H          -2.1743   -2.9162   -0.0382 H       1  LIG1        0.0646
      9 C          -4.5377   -3.1311    1.2247 C.1     1  LIG1       -0.0498
     10 C          -4.9370   -4.1210    1.7921 C.1     1  LIG1       -0.1124
     11 H          -5.3123   -4.9833    2.2942 H       1  LIG1        0.1232
     12 N          -2.4626    2.2094   -2.3558 N.1     1  LIG1       -0.1908
     13 C          -2.7914    1.3395   -1.6556 C.1     1  LIG1        0.1014
     14 C          -5.2907    1.3734   -0.0225 C.ar    1  LIG1        0.1594
     15 C          -5.1142    2.7222    0.1796 C.ar    1  LIG1        0.0150
     16 C          -6.4419    3.2713    0.2588 C.ar    1  LIG1        0.1040
     17 C          -7.3299    2.2146    0.1100 C.ar    1  LIG1        0.1882
     18 O          -6.6371    1.0691   -0.0513 O.2     1  LIG1       -0.4485
     19 C          -3.8547    3.5093    0.3660 C.3     1  LIG1       -0.0348
     20 H          -4.0243    4.3250    1.0742 H       1  LIG1        0.0279
     21 H          -3.5125    3.9455   -0.5778 H       1  LIG1        0.0279
     22 H          -3.0453    2.8841    0.7496 H       1  LIG1        0.0279
     23 N          -7.0902    5.7359    0.6674 N.1     1  LIG1       -0.1907
     24 C          -6.7896    4.6256    0.4809 C.1     1  LIG1        0.1034
     25 C          -8.7568    2.1459    0.1042 C.ar    1  LIG1        0.1721
     26 C          -9.7496    3.0805    0.2629 C.ar    1  LIG1       -0.0092
     27 C         -10.9958    2.3961    0.1928 C.ar    1  LIG1       -0.0038
     28 C         -10.6939    1.0609   -0.0211 C.ar    1  LIG1        0.1439
     29 O          -9.3253    0.9119   -0.0745 O.2     1  LIG1       -0.4513
     30 H          -9.6038    4.1383    0.4298 H       1  LIG1        0.0659
     31 C         -12.3406    3.0391    0.3690 C.3     1  LIG1       -0.0361
     32 H         -13.0241    2.3961    0.9308 H       1  LIG1        0.0279
     33 H         -12.8160    3.2708   -0.5919 H       1  LIG1        0.0279
     34 H         -12.2397    3.9812    0.9141 H       1  LIG1        0.0279
     35 C         -10.9761   -1.4540    0.1060 C.ar    1  LIG1        0.2233
     36 C         -11.4862   -0.1508   -0.1698 C.ar    1  LIG1        0.0805
     37 C         -12.8293   -0.0664   -0.5733 C.ar    1  LIG1       -0.0238
     38 C         -13.6286   -1.2073   -0.6569 C.ar    1  LIG1        0.0438
     39 C         -13.0150   -2.4240   -0.3220 C.ar    1  LIG1        0.0520
     40 N         -11.7384   -2.5392    0.0352 N.ar    1  LIG1       -0.2190
     41 H         -13.2484    0.8980   -0.8376 H       1  LIG1        0.0645
     42 H         -13.5910   -3.3492   -0.3556 H       1  LIG1        0.0849
     43 O          -9.6979   -1.7033    0.4697 O.3     1  LIG1       -0.4919
     44 H          -9.1630   -0.8991    0.3893 H       1  LIG1        0.2937
     45 N         -14.9863   -1.1425   -0.9971 N.pl3   1  LIG1       -0.3568
     46 H         -15.2298   -0.3673   -1.6001 H       1  LIG1        0.1424
     47 H         -15.3599   -2.0090   -1.3627 H       1  LIG1        0.1424
@<TRIPOS>BOND
     1    12    13    3
     2    13     4    1
     3    46    45    1
     4    47    45    1
     5     7     3    1
     6    45    38    1
     7    41    37    1
     8     4     3   ar
     9     4     5   ar
    10     3     2   ar
    11    38    37   ar
    12    38    39   ar
    13    33    31    1
    14    21    19    1
    15    37    36   ar
    16    42    39    1
    17    39    40   ar
    18    36    28    1
    19    36    35   ar
    20     5    14    1
    21     5     6   ar
    22     2     8    1
    23     2     1   ar
    24    29    28   ar
    25    29    25   ar
    26    18    14   ar
    27    18    17   ar
    28    14    15   ar
    29    28    27   ar
    30    40    35   ar
    31    25    17    1
    32    25    26   ar
    33    35    43    1
    34    17    16   ar
    35    15    16   ar
    36    15    19    1
    37    27    26   ar
    38    27    31    1
    39    16    24    1
    40    26    30    1
    41    19    22    1
    42    19    20    1
    43    31    34    1
    44    31    32    1
    45    44    43    1
    46    24    23    3
    47     6     1   ar
    48     1     9    1
    49     9    10    3
    50    10    11    1
