@<TRIPOS>MOLECULE
mol_data/opt/b3lyp/geoms/mol2/6ed6ed6ed6ed.out
 50 53 0 0 0
SMALL
GASTEIGER

@<TRIPOS>ATOM
      1 C          -4.3733   -2.2949   -0.0062 C.ar    1  LIG1        0.1139
      2 C          -2.9740   -2.4152   -0.0035 C.ar    1  LIG1       -0.0266
      3 C          -2.2321   -1.2485    0.0011 C.ar    1  LIG1       -0.0396
      4 C          -2.8712    0.0047    0.0029 C.ar    1  LIG1        0.0778
      5 C          -4.2992    0.0405   -0.0002 C.ar    1  LIG1        0.0924
      6 N          -4.9861   -1.1043   -0.0046 N.ar    1  LIG1       -0.2370
      7 H          -1.1480   -1.2820    0.0035 H       1  LIG1        0.0632
      8 H          -2.5011   -3.3898   -0.0050 H       1  LIG1        0.0646
      9 C          -5.2002   -3.4646   -0.0109 C.1     1  LIG1       -0.0498
     10 C          -5.8607   -4.4771   -0.0149 C.1     1  LIG1       -0.1124
     11 H          -6.4527   -5.3639   -0.0184 H       1  LIG1        0.1232
     12 N          -1.2084    1.9940    0.0128 N.1     1  LIG1       -0.1908
     13 C          -1.9919    1.1327    0.0083 C.1     1  LIG1        0.1013
     14 C          -6.5767    1.2205   -0.0002 C.ar    1  LIG1        0.1231
     15 C          -5.1471    1.2677    0.0007 C.ar    1  LIG1        0.0367
     16 C          -4.6043    2.5551    0.0023 C.ar    1  LIG1       -0.0304
     17 C          -5.3923    3.7124    0.0028 C.ar    1  LIG1        0.0785
     18 C          -6.8089    3.5664    0.0016 C.ar    1  LIG1        0.0924
     19 N          -7.3190    2.3370    0.0003 N.ar    1  LIG1       -0.2364
     20 H          -3.5348    2.7036    0.0030 H       1  LIG1        0.0638
     21 C          -7.3850    0.0365   -0.0012 C.1     1  LIG1       -0.0491
     22 C          -8.2237   -0.8357   -0.0018 C.1     1  LIG1       -0.1124
     23 H          -8.8946   -1.6635   -0.0026 H       1  LIG1        0.1232
     24 N          -4.0157    5.9115    0.0064 N.1     1  LIG1       -0.1908
     25 C          -4.6652    4.9454    0.0048 C.1     1  LIG1        0.1013
     26 C          -9.2236    4.4263    0.0026 C.ar    1  LIG1        0.1231
     27 C          -7.8136    4.6645    0.0016 C.ar    1  LIG1        0.0367
     28 C          -7.4478    6.0134    0.0004 C.ar    1  LIG1       -0.0304
     29 C          -8.3838    7.0545   -0.0000 C.ar    1  LIG1        0.0785
     30 C          -9.7692    6.7204    0.0007 C.ar    1  LIG1        0.0924
     31 N         -10.1081    5.4337    0.0021 N.ar    1  LIG1       -0.2364
     32 H          -6.4074    6.3022   -0.0003 H       1  LIG1        0.0638
     33 C          -9.8624    3.1441    0.0046 C.1     1  LIG1       -0.0491
     34 C         -10.5724    2.1643    0.0063 C.1     1  LIG1       -0.1124
     35 H         -11.1198    1.2505    0.0071 H       1  LIG1        0.1232
     36 N          -7.3015    9.4125   -0.0009 N.1     1  LIG1       -0.1908
     37 C          -7.8233    8.3719   -0.0006 C.1     1  LIG1        0.1013
     38 C         -12.2781    7.2337    0.0044 C.ar    1  LIG1        0.1224
     39 C         -10.9146    7.6761   -0.0002 C.ar    1  LIG1        0.0367
     40 C         -10.7141    9.0633   -0.0059 C.ar    1  LIG1       -0.0310
     41 C         -11.7955    9.9469   -0.0070 C.ar    1  LIG1        0.0705
     42 C         -13.0899    9.4043   -0.0024 C.ar    1  LIG1        0.0464
     43 N         -13.3169    8.1008    0.0032 N.ar    1  LIG1       -0.2448
     44 H          -9.7206    9.4851   -0.0098 H       1  LIG1        0.0638
     45 H         -13.9607   10.0559   -0.0032 H       1  LIG1        0.0843
     46 C         -12.7223    5.8733    0.0114 C.1     1  LIG1       -0.0491
     47 C         -13.3009    4.8104    0.0177 C.1     1  LIG1       -0.1124
     48 H         -13.7388    3.8396    0.0222 H       1  LIG1        0.1232
     49 N         -11.4692   12.5203   -0.0179 N.1     1  LIG1       -0.1908
     50 C         -11.6013   11.3647   -0.0130 C.1     1  LIG1        0.1007
@<TRIPOS>BOND
     1    11    10    1
     2    49    50    3
     3    10     9    3
     4    50    41    1
     5     9     1    1
     6    44    40    1
     7    41    40   ar
     8    41    42   ar
     9     1     6   ar
    10     1     2   ar
    11    40    39   ar
    12     8     2    1
    13     6     5   ar
    14     2     3   ar
    15    45    42    1
    16    23    22    1
    17    42    43   ar
    18    22    21    3
    19    21    14    1
    20    36    37    3
    21    37    29    1
    22    32    28    1
    23     5    15    1
    24     5     4   ar
    25    39    30    1
    26    39    38   ar
    27    14    19   ar
    28    14    15   ar
    29    29    28   ar
    30    29    30   ar
    31    19    18   ar
    32    28    27   ar
    33    30    31   ar
    34    15    16   ar
    35     3     4   ar
    36     3     7    1
    37    27    18    1
    38    27    26   ar
    39    18    17   ar
    40    31    26   ar
    41    16    17   ar
    42    16    20    1
    43    26    33    1
    44    17    25    1
    45     4    13    1
    46    43    38   ar
    47    38    46    1
    48    33    34    3
    49    25    24    3
    50    34    35    1
    51    13    12    3
    52    46    47    3
    53    47    48    1
