@<TRIPOS>MOLECULE
mol_data/opt/b3lyp/geoms/mol2/6ed6ed6ed.out
 38 40 0 0 0
SMALL
GASTEIGER

@<TRIPOS>ATOM
      1 C          -4.1316   -1.9314   -1.0618 C.ar    1  LIG1        0.1139
      2 C          -3.1028   -2.2519   -0.1568 C.ar    1  LIG1       -0.0266
      3 C          -2.8519   -1.3863    0.8941 C.ar    1  LIG1       -0.0396
      4 C          -3.6233   -0.2197    1.0210 C.ar    1  LIG1        0.0778
      5 C          -4.6305    0.0286    0.0563 C.ar    1  LIG1        0.0924
      6 N          -4.8722   -0.8128   -0.9504 N.ar    1  LIG1       -0.2370
      7 H          -2.0759   -1.5996    1.6212 H       1  LIG1        0.0632
      8 H          -2.5279   -3.1612   -0.2873 H       1  LIG1        0.0646
      9 C          -4.4239   -2.8057   -2.1566 C.1     1  LIG1       -0.0498
     10 C          -4.6459   -3.5641   -3.0714 C.1     1  LIG1       -0.1124
     11 H          -4.8537   -4.2213   -3.8849 H       1  LIG1        0.1232
     12 N          -3.1874    1.3709    3.0239 N.1     1  LIG1       -0.1908
     13 C          -3.3927    0.6658    2.1214 C.1     1  LIG1        0.1013
     14 C          -6.8903    1.1923    0.1158 C.ar    1  LIG1        0.1231
     15 C          -5.4736    1.2571    0.0960 C.ar    1  LIG1        0.0367
     16 C          -4.8907    2.5200    0.0841 C.ar    1  LIG1       -0.0304
     17 C          -5.6950    3.6672    0.0621 C.ar    1  LIG1        0.0785
     18 C          -7.0999    3.5006    0.0522 C.ar    1  LIG1        0.0924
     19 N          -7.6620    2.2925    0.0913 N.ar    1  LIG1       -0.2364
     20 H          -3.8118    2.6287    0.0829 H       1  LIG1        0.0638
     21 C          -7.5851   -0.0556    0.2019 C.1     1  LIG1       -0.0491
     22 C          -8.1961   -1.0934    0.3031 C.1     1  LIG1       -0.1124
     23 H          -8.7366   -2.0090    0.3796 H       1  LIG1        0.1232
     24 N          -4.5639    6.0020    0.0460 N.1     1  LIG1       -0.1908
     25 C          -5.0817    4.9603    0.0575 C.1     1  LIG1        0.1013
     26 C          -9.0540    4.8542    0.9476 C.ar    1  LIG1        0.1224
     27 C          -8.0344    4.6588   -0.0195 C.ar    1  LIG1        0.0367
     28 C          -7.9471    5.5715   -1.0683 C.ar    1  LIG1       -0.0310
     29 C          -8.8695    6.6219   -1.1481 C.ar    1  LIG1        0.0705
     30 C          -9.8548    6.7137   -0.1494 C.ar    1  LIG1        0.0464
     31 N          -9.9415    5.8665    0.8686 N.ar    1  LIG1       -0.2448
     32 H          -7.1822    5.4662   -1.8296 H       1  LIG1        0.0638
     33 H         -10.5937    7.5103   -0.1868 H       1  LIG1        0.0843
     34 C          -9.1705    4.0082    2.0955 C.1     1  LIG1       -0.0491
     35 C          -9.2705    3.3284    3.0898 C.1     1  LIG1       -0.1124
     36 H          -9.3625    2.7231    3.9624 H       1  LIG1        0.1232
     37 N          -8.8088    8.3399   -3.0903 N.1     1  LIG1       -0.1908
     38 C          -8.8289    7.5687   -2.2197 C.1     1  LIG1        0.1007
@<TRIPOS>BOND
     1    11    10    1
     2    37    38    3
     3    10     9    3
     4    38    29    1
     5     9     1    1
     6    32    28    1
     7    29    28   ar
     8    29    30   ar
     9    28    27   ar
    10     1     6   ar
    11     1     2   ar
    12     6     5   ar
    13     8     2    1
    14    33    30    1
    15     2     3   ar
    16    30    31   ar
    17    27    18    1
    18    27    26   ar
    19    24    25    3
    20    18    17   ar
    21    18    19   ar
    22     5    15    1
    23     5     4   ar
    24    25    17    1
    25    17    16   ar
    26    20    16    1
    27    16    15   ar
    28    19    14   ar
    29    15    14   ar
    30    14    21    1
    31    21    22    3
    32    22    23    1
    33    31    26   ar
    34     3     4   ar
    35     3     7    1
    36    26    34    1
    37     4    13    1
    38    34    35    3
    39    13    12    3
    40    35    36    1
