@<TRIPOS>MOLECULE
mol_data/opt/b3lyp/geoms/mol2/6ed6ed.out
 26 27 0 0 0
SMALL
GASTEIGER

@<TRIPOS>ATOM
      1 C          -4.4364   -2.0468   -0.5596 C.ar    1  LIG1        0.1139
      2 C          -3.1491   -2.1421    0.0006 C.ar    1  LIG1       -0.0266
      3 C          -2.6063   -1.0214    0.6055 C.ar    1  LIG1       -0.0396
      4 C          -3.3505    0.1691    0.6370 C.ar    1  LIG1        0.0778
      5 C          -4.6343    0.1767    0.0381 C.ar    1  LIG1        0.0924
      6 N          -5.1543   -0.9083   -0.5383 N.ar    1  LIG1       -0.2370
      7 H          -1.6215   -1.0523    1.0591 H       1  LIG1        0.0632
      8 H          -2.6050   -3.0782   -0.0436 H       1  LIG1        0.0646
      9 C          -5.0319   -3.1866   -1.1884 C.1     1  LIG1       -0.0498
     10 C          -5.5072   -4.1668   -1.7126 C.1     1  LIG1       -0.1124
     11 H          -5.9411   -5.0211   -2.1800 H       1  LIG1        0.1232
     12 N          -2.3445    2.2493    1.8171 N.1     1  LIG1       -0.1908
     13 C          -2.8086    1.3243    1.2853 C.1     1  LIG1        0.1013
     14 C          -6.7929    1.4233    0.5293 C.ar    1  LIG1        0.1224
     15 C          -5.4766    1.4064    0.0011 C.ar    1  LIG1        0.0367
     16 C          -4.9958    2.5744   -0.5866 C.ar    1  LIG1       -0.0310
     17 C          -5.8216    3.7029   -0.6567 C.ar    1  LIG1        0.0705
     18 C          -7.1173    3.6086   -0.1193 C.ar    1  LIG1        0.0464
     19 N          -7.5869    2.5112    0.4613 N.ar    1  LIG1       -0.2448
     20 H          -3.9949    2.6115   -1.0020 H       1  LIG1        0.0638
     21 H          -7.7884    4.4627   -0.1657 H       1  LIG1        0.0843
     22 C          -7.3429    0.2898    1.2083 C.1     1  LIG1       -0.0491
     23 C          -7.8213   -0.6420    1.8113 C.1     1  LIG1       -0.1124
     24 H          -8.2482   -1.4674    2.3334 H       1  LIG1        0.1232
     25 N          -5.0221    5.9044   -1.7711 N.1     1  LIG1       -0.1908
     26 C          -5.3742    4.9158   -1.2694 C.1     1  LIG1        0.1007
@<TRIPOS>BOND
     1    11    10    1
     2    25    26    3
     3    10     9    3
     4    26    17    1
     5     9     1    1
     6    20    16    1
     7    17    16   ar
     8    17    18   ar
     9    16    15   ar
    10     1     6   ar
    11     1     2   ar
    12     6     5   ar
    13    21    18    1
    14    18    19   ar
    15     8     2    1
    16     2     3   ar
    17    15     5    1
    18    15    14   ar
    19     5     4   ar
    20    19    14   ar
    21    14    22    1
    22     3     4   ar
    23     3     7    1
    24     4    13    1
    25    22    23    3
    26    13    12    3
    27    23    24    1
