@<TRIPOS>MOLECULE
mol_data/opt/b3lyp/geoms/mol2/6ed6lf4ee13ee-6ff-13el-13li-4ai.out
 107 114 0 0 0
SMALL
GASTEIGER

@<TRIPOS>ATOM
      1 C          -4.8514   -2.7116    1.2536 C.ar    1  LIG1        0.1139
      2 C          -3.5038   -2.8605    1.6300 C.ar    1  LIG1       -0.0266
      3 C          -2.7461   -1.7189    1.8262 C.ar    1  LIG1       -0.0396
      4 C          -3.3416   -0.4607    1.6426 C.ar    1  LIG1        0.0779
      5 C          -4.7035   -0.4037    1.2501 C.ar    1  LIG1        0.0949
      6 N          -5.4289   -1.5114    1.0676 N.ar    1  LIG1       -0.2370
      7 H          -1.7057   -1.7829    2.1267 H       1  LIG1        0.0632
      8 H          -3.0811   -3.8493    1.7634 H       1  LIG1        0.0646
      9 C          -5.6671   -3.8713    1.0457 C.1     1  LIG1       -0.0498
     10 C          -6.3274   -4.8700    0.8776 C.1     1  LIG1       -0.1124
     11 H          -6.9243   -5.7398    0.7252 H       1  LIG1        0.1232
     12 N          -1.9057    1.6551    2.0842 N.1     1  LIG1       -0.1908
     13 C          -2.5673    0.7199    1.8794 C.1     1  LIG1        0.1013
     14 C          -6.5905    1.2503    1.6612 C.ar    1  LIG1        0.2247
     15 C          -5.3883    0.8917    0.9983 C.ar    1  LIG1        0.0666
     16 C          -4.8956    1.8090    0.0830 C.ar    1  LIG1       -0.0037
     17 C          -5.5677    3.0115   -0.1807 C.ar    1  LIG1        0.1436
     18 C          -6.7625    3.2648    0.5159 C.ar    1  LIG1        0.1173
     19 N          -7.2369    2.3737    1.4182 N.ar    1  LIG1       -0.2086
     20 H          -3.9865    1.6102   -0.4743 H       1  LIG1        0.0663
     21 O          -7.0564    0.4019    2.6026 O.3     1  LIG1       -0.4792
     22 C          -8.2717    0.7616    3.2626 C.3     1  LIG1        0.0804
     23 H          -8.4495   -0.0323    3.9888 H       1  LIG1        0.0660
     24 H          -8.1777    1.7277    3.7664 H       1  LIG1        0.0660
     25 H          -9.1034    0.8174    2.5541 H       1  LIG1        0.0660
     26 O          -5.0501    3.7916   -1.1733 O.3     1  LIG1       -0.5046
     27 H          -5.0727    4.7263   -0.9076 H       1  LIG1        0.2922
     28 C          -7.2282    5.7822    0.1725 C.ar    1  LIG1        0.0347
     29 C          -8.1641    6.8016   -0.0522 C.ar    1  LIG1       -0.0354
     30 C          -7.6538    4.4338    0.2789 C.ar    1  LIG1        0.0206
     31 C          -9.5375    6.5571   -0.1804 C.ar    1  LIG1        0.0161
     32 H          -7.8016    7.8187   -0.1138 H       1  LIG1        0.0637
     33 C          -9.0269    4.1928    0.1947 C.ar    1  LIG1       -0.0352
     34 C          -9.9710    5.2043   -0.0316 C.ar    1  LIG1        0.0345
     35 H          -9.3766    3.1742    0.3088 H       1  LIG1        0.0637
     36 C          -5.8627    6.1631    0.3558 C.1     1  LIG1       -0.0690
     37 C          -4.7044    6.4927    0.4937 C.1     1  LIG1       -0.1139
     38 H          -3.6883    6.7760    0.6499 H       1  LIG1        0.1232
     39 C         -11.3408    4.8003   -0.1104 C.1     1  LIG1       -0.0690
     40 C         -12.4887    4.4123   -0.1507 C.1     1  LIG1       -0.1139
     41 H         -13.5090    4.1061   -0.1971 H       1  LIG1        0.1232
     42 C         -10.4377    7.6815   -0.4338 C.ar    1  LIG1        0.0649
     43 C         -10.1856    8.9641   -0.9485 C.ar    1  LIG1        0.0659
     44 C         -11.4339    9.6806   -0.9621 C.ar    1  LIG1        0.0660
     45 C         -12.4161    8.8204   -0.4620 C.ar    1  LIG1        0.0689
     46 N         -11.7890    7.6301   -0.1698 N.ar    1  LIG1       -0.3520
     47 H         -12.2313    6.8507    0.2988 H       1  LIG1        0.1660
     48 C          -8.9669    9.4963   -1.4348 C.1     1  LIG1       -0.0663
     49 C          -7.9468    9.9896   -1.8619 C.1     1  LIG1       -0.1138
     50 H          -7.0515   10.4198   -2.2468 H       1  LIG1        0.1232
     51 C         -11.6218   10.9994   -1.4418 C.1     1  LIG1       -0.0663
     52 C         -11.7694   12.1289   -1.8512 C.1     1  LIG1       -0.1138
     53 H         -11.9010   13.1208   -2.2165 H       1  LIG1        0.1232
     54 C         -14.8072    7.9970   -0.4538 C.ar    1  LIG1        0.2225
     55 C         -13.8467    9.0207   -0.2422 C.ar    1  LIG1        0.0644
     56 C         -14.3529   10.2470    0.1918 C.ar    1  LIG1       -0.0037
     57 C         -15.7151   10.4362    0.4400 C.ar    1  LIG1        0.1451
     58 C         -16.5781    9.3299    0.2632 C.ar    1  LIG1        0.1335
     59 N         -16.0848    8.1529   -0.1990 N.ar    1  LIG1       -0.2072
     60 H         -13.6883   11.0869    0.3552 H       1  LIG1        0.0663
     61 O         -14.4705    6.7580   -0.9340 O.3     1  LIG1       -0.4919
     62 H         -13.6067    6.8037   -1.3689 H       1  LIG1        0.2937
     63 O         -16.0723   11.6853    0.8192 O.3     1  LIG1       -0.5045
     64 H         -16.9966   11.7446    1.1227 H       1  LIG1        0.2922
     65 C         -18.0246    9.2880    0.4849 C.ar    1  LIG1        0.0884
     66 C         -19.0102   10.1098    1.0700 C.ar    1  LIG1        0.0938
     67 C         -20.2507    9.4024    0.9855 C.ar    1  LIG1        0.1628
     68 C         -20.0163    8.1733    0.3678 C.ar    1  LIG1        0.1104
     69 N         -18.6706    8.1527    0.0701 N.ar    1  LIG1       -0.3477
     70 H         -18.1217    7.3708   -0.2653 H       1  LIG1        0.1661
     71 C         -18.8862   11.3834    1.6738 C.1     1  LIG1       -0.0638
     72 C         -18.8241   12.4755    2.1993 C.1     1  LIG1       -0.1137
     73 H         -18.7613   13.4274    2.6740 H       1  LIG1        0.1232
     74 O         -21.4214    9.8817    1.4879 O.3     1  LIG1       -0.4917
     75 C         -22.4306   10.1947    0.5193 C.3     1  LIG1        0.0789
     76 H         -23.2708   10.6058    1.0810 H       1  LIG1        0.0660
     77 H         -22.0639   10.9434   -0.1930 H       1  LIG1        0.0660
     78 H         -22.7595    9.3004   -0.0173 H       1  LIG1        0.0660
     79 C         -20.8881    7.0846   -0.0036 C.ar    1  LIG1        0.1095
     80 C         -22.0976    6.6131    0.5071 C.ar    1  LIG1        0.1503
     81 C         -22.5363    5.5099   -0.2789 C.ar    1  LIG1        0.0171
     82 C         -21.5745    5.3134   -1.2673 C.ar    1  LIG1        0.0535
     83 N         -20.5681    6.2419   -1.0585 N.ar    1  LIG1       -0.3498
     84 H         -19.9183    6.5015   -1.7854 H       1  LIG1        0.1661
     85 O         -22.8051    7.0849    1.5781 O.3     1  LIG1       -0.4927
     86 C         -22.1404    7.0211    2.8446 C.3     1  LIG1        0.0789
     87 H         -22.8765    7.3304    3.5891 H       1  LIG1        0.0660
     88 H         -21.8102    5.9974    3.0595 H       1  LIG1        0.0660
     89 H         -21.2855    7.7010    2.8854 H       1  LIG1        0.0660
     90 C         -23.7709    4.7094    0.0090 C.3     1  LIG1       -0.0342
     91 H         -23.6277    3.6491   -0.2185 H       1  LIG1        0.0279
     92 H         -24.6353    5.0571   -0.5710 H       1  LIG1        0.0279
     93 H         -24.0402    4.8076    1.0641 H       1  LIG1        0.0279
     94 C         -22.6170    3.8105   -2.9726 C.ar    1  LIG1       -0.0526
     95 C         -22.4922    2.8886   -4.0101 C.ar    1  LIG1       -0.0609
     96 C         -21.4713    4.3365   -2.3508 C.ar    1  LIG1       -0.0011
     97 C         -21.2350    2.4843   -4.4549 C.ar    1  LIG1       -0.0588
     98 H         -23.3857    2.4918   -4.4838 H       1  LIG1        0.0618
     99 C         -20.2092    3.9089   -2.8110 C.ar    1  LIG1       -0.0497
    100 C         -20.0731    2.9959   -3.8580 C.ar    1  LIG1       -0.0498
    101 H         -19.3132    4.2758   -2.3165 H       1  LIG1        0.0627
    102 H         -21.1516    1.7672   -5.2676 H       1  LIG1        0.0620
    103 H         -23.6004    4.1436   -2.6612 H       1  LIG1        0.0624
    104 C         -18.7080    2.5561   -4.3337 C.3     1  LIG1       -0.0397
    105 H         -17.9109    3.0017   -3.7325 H       1  LIG1        0.0278
    106 H         -18.5394    2.8445   -5.3777 H       1  LIG1        0.0278
    107 H         -18.5991    1.4671   -4.2805 H       1  LIG1        0.0278
@<TRIPOS>BOND
     1   106   104    1
     2   102    97    1
     3    98    95    1
     4    97    95   ar
     5    97   100   ar
     6   104   107    1
     7   104   100    1
     8   104   105    1
     9    95    94   ar
    10   100    99   ar
    11    94   103    1
    12    94    96   ar
    13    99    96   ar
    14    99   101    1
    15    96    82    1
    16    50    49    1
    17    53    52    1
    18    49    48    3
    19    52    51    3
    20    84    83    1
    21    51    44    1
    22    48    43    1
    23    62    61    1
    24    82    83   ar
    25    82    81   ar
    26    26    27    1
    27    26    17    1
    28    83    79   ar
    29    44    43   ar
    30    44    45   ar
    31    43    42   ar
    32    61    54    1
    33    92    90    1
    34    20    16    1
    35    45    55    1
    36    45    46   ar
    37    54    55   ar
    38    54    59   ar
    39    42    31    1
    40    42    46   ar
    41    81    90    1
    42    81    80   ar
    43    70    69    1
    44    55    56   ar
    45    91    90    1
    46    59    58   ar
    47    41    40    1
    48    77    75    1
    49    17    16   ar
    50    17    18   ar
    51    31    29   ar
    52    31    34   ar
    53    46    47    1
    54    40    39    3
    55    32    29    1
    56    39    34    1
    57    29    28   ar
    58    34    33   ar
    59    78    75    1
    60    79    68    1
    61    79    80   ar
    62    90    93    1
    63    69    68   ar
    64    69    65   ar
    65    16    15   ar
    66    28    30   ar
    67    28    36    1
    68    56    60    1
    69    56    57   ar
    70    33    30   ar
    71    33    35    1
    72    58    57   ar
    73    58    65    1
    74    30    18    1
    75    36    37    3
    76    68    67   ar
    77    57    63    1
    78    65    66   ar
    79    37    38    1
    80    80    85    1
    81    18    19   ar
    82    75    76    1
    83    75    74    1
    84    11    10    1
    85    63    64    1
    86    10     9    3
    87    67    66   ar
    88    67    74    1
    89    15     5    1
    90    15    14   ar
    91     9     1    1
    92     6     5   ar
    93     6     1   ar
    94    66    71    1
    95     5     4   ar
    96     1     2   ar
    97    19    14   ar
    98    85    86    1
    99     2     8    1
   100     2     3   ar
   101     4     3   ar
   102     4    13    1
   103    14    21    1
   104    71    72    3
   105     3     7    1
   106    13    12    3
   107    72    73    1
   108    25    22    1
   109    21    22    1
   110    86    89    1
   111    86    88    1
   112    86    87    1
   113    22    24    1
   114    22    23    1
