@<TRIPOS>MOLECULE
mol_data/opt/b3lyp/geoms/mol2/6ee.out
 15 15 0 0 0
SMALL
GASTEIGER

@<TRIPOS>ATOM
      1 C          -4.5975   -2.0196    0.0001 C.ar    1  LIG1        0.1132
      2 C          -3.1913   -2.0245   -0.0000 C.ar    1  LIG1       -0.0267
      3 C          -2.5141   -0.8141   -0.0002 C.ar    1  LIG1       -0.0422
      4 C          -3.2507    0.3824   -0.0003 C.ar    1  LIG1        0.0428
      5 C          -4.6575    0.2742   -0.0002 C.ar    1  LIG1        0.0443
      6 N          -5.3191   -0.8782   -0.0000 N.ar    1  LIG1       -0.2455
      7 H          -1.4296   -0.7823   -0.0002 H       1  LIG1        0.0631
      8 H          -2.6557   -2.9673    0.0001 H       1  LIG1        0.0646
      9 H          -5.2607    1.1793   -0.0003 H       1  LIG1        0.0842
     10 C          -5.3199   -3.2571    0.0003 C.1     1  LIG1       -0.0498
     11 C          -5.9017   -4.3172    0.0004 C.1     1  LIG1       -0.1124
     12 H          -6.4303   -5.2426    0.0003 H       1  LIG1        0.1232
     13 C          -2.6169    1.6589   -0.0005 C.1     1  LIG1       -0.0681
     14 C          -2.0846    2.7457   -0.0006 C.1     1  LIG1       -0.1139
     15 H          -1.6169    3.7032   -0.0006 H       1  LIG1        0.1232
@<TRIPOS>BOND
     1    15    14    1
     2    14    13    3
     3    13     4    1
     4     4     5   ar
     5     4     3   ar
     6     9     5    1
     7     7     3    1
     8     5     6   ar
     9     3     2   ar
    10     6     1   ar
    11     2     1   ar
    12     2     8    1
    13     1    10    1
    14    10    11    3
    15    12    11    1
