@<TRIPOS>MOLECULE
mol_data/opt/b3lyp/geoms/mol2/6ee4fe-12dd13dh-.out
 48 51 0 0 0
SMALL
GASTEIGER

@<TRIPOS>ATOM
      1 C          -4.0182   -2.0021   -0.6866 C.ar    1  LIG1        0.1139
      2 C          -2.9192   -2.1206    0.1807 C.ar    1  LIG1       -0.0266
      3 C          -2.6197   -1.0568    1.0156 C.ar    1  LIG1       -0.0416
      4 C          -3.3930    0.1160    0.9650 C.ar    1  LIG1        0.0508
      5 C          -4.4492    0.1613    0.0161 C.ar    1  LIG1        0.0912
      6 N          -4.7593   -0.8807   -0.7613 N.ar    1  LIG1       -0.2371
      7 H          -1.8007   -1.1203    1.7241 H       1  LIG1        0.0631
      8 H          -2.3370   -3.0348    0.1998 H       1  LIG1        0.0646
      9 C          -4.3897   -3.0951   -1.5354 C.1     1  LIG1       -0.0498
     10 C          -4.6784   -4.0358   -2.2382 C.1     1  LIG1       -0.1124
     11 H          -4.9440   -4.8550   -2.8661 H       1  LIG1        0.1232
     12 C          -3.1378    1.1687    1.8914 C.1     1  LIG1       -0.0675
     13 C          -2.9070    2.0195    2.7202 C.1     1  LIG1       -0.1138
     14 H          -2.7099    2.7796    3.4407 H       1  LIG1        0.1232
     15 C          -4.8372    2.6417   -0.4142 C.ar    1  LIG1        0.1268
     16 C          -5.7159    3.7170   -0.5406 C.ar    1  LIG1       -0.0076
     17 C          -5.3337    1.3510   -0.1406 C.ar    1  LIG1        0.0442
     18 C          -7.1043    3.5483   -0.4517 C.ar    1  LIG1        0.0374
     19 H          -5.3066    4.7060   -0.7174 H       1  LIG1        0.0662
     20 C          -6.7153    1.1811   -0.0893 C.ar    1  LIG1       -0.0329
     21 C          -7.6259    2.2416   -0.2367 C.ar    1  LIG1        0.0362
     22 H          -7.1035    0.1805    0.0606 H       1  LIG1        0.0638
     23 O          -3.4989    2.7906   -0.5666 O.3     1  LIG1       -0.5061
     24 H          -3.2907    3.7132   -0.7683 H       1  LIG1        0.2922
     25 C          -9.0164    1.9073   -0.2202 C.1     1  LIG1       -0.0689
     26 C         -10.1623    1.5114   -0.2129 C.1     1  LIG1       -0.1139
     27 H         -11.1507    1.1148   -0.2593 H       1  LIG1        0.1232
     28 C          -7.9596    4.7175   -0.5889 C.ar    1  LIG1        0.1556
     29 C          -7.8136    5.9563   -1.1843 C.ar    1  LIG1        0.1155
     30 C          -9.0537    6.6752   -0.9798 C.ar    1  LIG1        0.1169
     31 C          -9.8708    5.8277   -0.2540 C.ar    1  LIG1        0.1717
     32 O          -9.1958    4.6611   -0.0238 O.2     1  LIG1       -0.4506
     33 N          -5.7464    6.8210   -2.4665 N.1     1  LIG1       -0.1907
     34 C          -6.6857    6.4356   -1.8970 C.1     1  LIG1        0.1043
     35 N          -9.5593    8.9803   -2.0206 N.1     1  LIG1       -0.1907
     36 C          -9.3530    7.9472   -1.5263 C.1     1  LIG1        0.1043
     37 C         -11.2076    5.8288    0.2629 C.ar    1  LIG1        0.1028
     38 C         -12.1540    6.8325    0.5455 C.ar    1  LIG1        0.1006
     39 C         -13.3234    6.1869    1.0625 C.ar    1  LIG1        0.0604
     40 C         -13.0549    4.8257    1.0815 C.ar    1  LIG1        0.0244
     41 N         -11.7833    4.6352    0.6018 N.ar    1  LIG1       -0.3556
     42 H         -11.3091    3.7456    0.5045 H       1  LIG1        0.1655
     43 H         -13.6652    3.9983    1.4081 H       1  LIG1        0.0826
     44 N         -12.0358    9.4036    0.4180 N.1     1  LIG1       -0.1907
     45 C         -12.0341    8.2385    0.4451 C.1     1  LIG1        0.1032
     46 N         -14.4551    6.8401    1.5282 N.pl3   1  LIG1       -0.3558
     47 H         -14.5551    7.7886    1.1895 H       1  LIG1        0.1424
     48 H         -15.3170    6.3188    1.4486 H       1  LIG1        0.1424
@<TRIPOS>BOND
     1    11    10    1
     2    33    34    3
     3    10     9    3
     4    35    36    3
     5    34    29    1
     6     9     1    1
     7    36    30    1
     8    29    30   ar
     9    29    28   ar
    10    30    31   ar
    11    24    23    1
    12     6     1   ar
    13     6     5   ar
    14    19    16    1
    15     1     2   ar
    16    28    18    1
    17    28    32   ar
    18    23    15    1
    19    16    18   ar
    20    16    15   ar
    21    18    21   ar
    22    15    17   ar
    23    27    26    1
    24    31    32   ar
    25    31    37    1
    26    21    25    1
    27    21    20   ar
    28    25    26    3
    29    17    20   ar
    30    17     5    1
    31    20    22    1
    32     5     4   ar
    33     2     8    1
    34     2     3   ar
    35    37    38   ar
    36    37    41   ar
    37    44    45    3
    38    45    38    1
    39    42    41    1
    40    38    39   ar
    41    41    40   ar
    42     4     3   ar
    43     4    12    1
    44     3     7    1
    45    39    40   ar
    46    39    46    1
    47    40    43    1
    48    47    46    1
    49    48    46    1
    50    12    13    3
    51    13    14    1
