@<TRIPOS>MOLECULE
mol_data/opt/b3lyp/geoms/mol2/6ee4ih13fa-4ld-.out
 54 57 0 0 0
SMALL
GASTEIGER

@<TRIPOS>ATOM
      1 C          -4.2851   -2.0201    1.1711 C.ar    1  LIG1        0.1139
      2 C          -3.0562   -2.3191    0.5593 C.ar    1  LIG1       -0.0266
      3 C          -2.5122   -1.3883   -0.3100 C.ar    1  LIG1       -0.0416
      4 C          -3.1782   -0.1718   -0.5409 C.ar    1  LIG1        0.0507
      5 C          -4.3897    0.0667    0.1653 C.ar    1  LIG1        0.0880
      6 N          -4.9280   -0.8532    0.9753 N.ar    1  LIG1       -0.2372
      7 H          -1.5826   -1.5914   -0.8313 H       1  LIG1        0.0631
      8 H          -2.5646   -3.2650    0.7560 H       1  LIG1        0.0646
      9 C          -4.9046   -2.9739    2.0440 C.1     1  LIG1       -0.0498
     10 C          -5.4021   -3.7998    2.7741 C.1     1  LIG1       -0.1124
     11 H          -5.8538   -4.5156    3.4215 H       1  LIG1        0.1232
     12 C          -2.6572    0.7406   -1.5052 C.1     1  LIG1       -0.0675
     13 C          -2.1855    1.4708   -2.3477 C.1     1  LIG1       -0.1138
     14 H          -1.7904    2.1278   -3.0878 H       1  LIG1        0.1232
     15 C          -4.6831    2.5982    0.3644 C.ar    1  LIG1       -0.0405
     16 C          -5.5280    3.6974    0.2028 C.ar    1  LIG1       -0.0472
     17 C          -5.1753    1.3263    0.0073 C.ar    1  LIG1        0.0063
     18 C          -6.8393    3.6041   -0.2983 C.ar    1  LIG1        0.0228
     19 H          -5.1691    4.6739    0.5061 H       1  LIG1        0.0627
     20 C          -6.4794    1.2129   -0.4876 C.ar    1  LIG1       -0.0309
     21 C          -7.3085    2.3170   -0.6676 C.ar    1  LIG1        0.0345
     22 H          -6.8504    0.2262   -0.7521 H       1  LIG1        0.0643
     23 C          -3.3129    2.8070    0.9688 C.3     1  LIG1       -0.0391
     24 H          -3.2790    3.7521    1.5174 H       1  LIG1        0.0278
     25 H          -2.5328    2.8387    0.2010 H       1  LIG1        0.0278
     26 H          -3.0501    2.0058    1.6660 H       1  LIG1        0.0278
     27 N          -8.6302    2.1448   -1.1837 N.pl3   1  LIG1       -0.3574
     28 H          -8.7507    2.6415   -2.0645 H       1  LIG1        0.1423
     29 H          -8.8304    1.1634   -1.3477 H       1  LIG1        0.1423
     30 C          -7.6768    4.7983   -0.3665 C.ar    1  LIG1        0.0907
     31 C          -7.3604    6.1610   -0.2980 C.ar    1  LIG1        0.1427
     32 C          -8.5553    6.9069   -0.2979 C.ar    1  LIG1        0.0059
     33 C          -9.6135    5.9976   -0.3748 C.ar    1  LIG1        0.0540
     34 N          -9.0587    4.7440   -0.4290 N.ar    1  LIG1       -0.3511
     35 H          -9.5404    3.8534   -0.3847 H       1  LIG1        0.1660
     36 O          -6.0812    6.6453   -0.2466 O.3     1  LIG1       -0.5046
     37 H          -6.1231    7.6096   -0.2418 H       1  LIG1        0.2922
     38 H          -8.6548    7.9815   -0.2911 H       1  LIG1        0.0675
     39 C         -11.6912    7.3879   -0.0441 C.ar    1  LIG1        0.1292
     40 C         -13.0717    7.5529   -0.1608 C.ar    1  LIG1       -0.0181
     41 C         -11.0554    6.1964   -0.4731 C.ar    1  LIG1        0.0413
     42 C         -13.8716    6.5484   -0.6936 C.ar    1  LIG1       -0.0409
     43 H         -13.5039    8.4911    0.1713 H       1  LIG1        0.0655
     44 C         -11.8787    5.1944   -1.0162 C.ar    1  LIG1       -0.0317
     45 C         -13.2663    5.3554   -1.1197 C.ar    1  LIG1        0.0526
     46 H         -11.4366    4.2786   -1.3925 H       1  LIG1        0.0638
     47 H         -14.9437    6.6792   -0.7861 H       1  LIG1        0.0631
     48 O         -10.9537    8.4309    0.4705 O.3     1  LIG1       -0.4945
     49 C         -10.7800    8.3880    1.8924 C.3     1  LIG1        0.0788
     50 H         -10.2173    9.2838    2.1610 H       1  LIG1        0.0660
     51 H         -11.7490    8.4001    2.4060 H       1  LIG1        0.0660
     52 H         -10.2168    7.4988    2.1963 H       1  LIG1        0.0660
     53 N         -14.7047    3.4479   -2.1396 N.1     1  LIG1       -0.1909
     54 C         -14.0613    4.3033   -1.6832 C.1     1  LIG1        0.0992
@<TRIPOS>BOND
     1    14    13    1
     2    13    12    3
     3    53    54    3
     4    28    27    1
     5    54    45    1
     6    12     4    1
     7    46    44    1
     8    29    27    1
     9    27    21    1
    10    45    44   ar
    11    45    42   ar
    12    44    41   ar
    13     7     3    1
    14    47    42    1
    15    22    20    1
    16    42    40   ar
    17    21    20   ar
    18    21    18   ar
    19     4     3   ar
    20     4     5   ar
    21    20    17   ar
    22    41    33    1
    23    41    39   ar
    24    34    35    1
    25    34    33   ar
    26    34    30   ar
    27    33    32   ar
    28    30    18    1
    29    30    31   ar
    30     3     2   ar
    31    18    16   ar
    32    31    32   ar
    33    31    36    1
    34    32    38    1
    35    36    37    1
    36    40    39   ar
    37    40    43    1
    38    39    48    1
    39    17     5    1
    40    17    15   ar
    41     5     6   ar
    42    25    23    1
    43    16    15   ar
    44    16    19    1
    45    15    23    1
    46    48    49    1
    47     2     8    1
    48     2     1   ar
    49    23    24    1
    50    23    26    1
    51     6     1   ar
    52     1     9    1
    53    49    50    1
    54    49    52    1
    55    49    51    1
    56     9    10    3
    57    10    11    1
