@<TRIPOS>MOLECULE
mol_data/opt/b3lyp/geoms/mol2/6ee6ee.out
 28 29 0 0 0
SMALL
GASTEIGER

@<TRIPOS>ATOM
      1 C          -4.4724   -1.9981   -0.7096 C.ar    1  LIG1        0.1139
      2 C          -3.1508   -2.1157   -0.2449 C.ar    1  LIG1       -0.0266
      3 C          -2.5632   -1.0188    0.3623 C.ar    1  LIG1       -0.0416
      4 C          -3.2887    0.1782    0.4980 C.ar    1  LIG1        0.0508
      5 C          -4.6144    0.2006   -0.0108 C.ar    1  LIG1        0.0904
      6 N          -5.1800   -0.8598   -0.5920 N.ar    1  LIG1       -0.2371
      7 H          -1.5486   -1.0707    0.7428 H       1  LIG1        0.0631
      8 H          -2.6143   -3.0503   -0.3627 H       1  LIG1        0.0646
      9 C          -5.1159   -3.1125   -1.3403 C.1     1  LIG1       -0.0498
     10 C          -5.6292   -4.0716   -1.8681 C.1     1  LIG1       -0.1124
     11 H          -6.0986   -4.9059   -2.3364 H       1  LIG1        0.1232
     12 C          -2.6948    1.3004    1.1477 C.1     1  LIG1       -0.0675
     13 C          -2.1580    2.2289    1.7085 C.1     1  LIG1       -0.1138
     14 H          -1.7027    3.0562    2.2024 H       1  LIG1        0.1232
     15 C          -6.7206    1.4324    0.6999 C.ar    1  LIG1        0.1224
     16 C          -5.4573    1.4294    0.0593 C.ar    1  LIG1        0.0366
     17 C          -5.0292    2.6122   -0.5395 C.ar    1  LIG1       -0.0330
     18 C          -5.8474    3.7507   -0.5142 C.ar    1  LIG1        0.0435
     19 C          -7.0914    3.6335    0.1367 C.ar    1  LIG1        0.0444
     20 N          -7.5140    2.5234    0.7291 N.ar    1  LIG1       -0.2448
     21 H          -4.0665    2.6539   -1.0365 H       1  LIG1        0.0638
     22 H          -7.7613    4.4896    0.1721 H       1  LIG1        0.0842
     23 C          -7.2130    0.2803    1.3945 C.1     1  LIG1       -0.0491
     24 C          -7.6376   -0.6690    2.0110 C.1     1  LIG1       -0.1124
     25 H          -8.0164   -1.5121    2.5409 H       1  LIG1        0.1232
     26 C          -5.4502    4.9762   -1.1241 C.1     1  LIG1       -0.0681
     27 C          -5.1201    6.0205   -1.6388 C.1     1  LIG1       -0.1139
     28 H          -4.8311    6.9394   -2.0942 H       1  LIG1        0.1232
@<TRIPOS>BOND
     1    11    10    1
     2    28    27    1
     3    10     9    3
     4    27    26    3
     5     9     1    1
     6    26    18    1
     7    21    17    1
     8     1     6   ar
     9     1     2   ar
    10     6     5   ar
    11    17    18   ar
    12    17    16   ar
    13    18    19   ar
    14     8     2    1
    15     2     3   ar
    16     5    16    1
    17     5     4   ar
    18    16    15   ar
    19    19    22    1
    20    19    20   ar
    21     3     4   ar
    22     3     7    1
    23     4    12    1
    24    15    20   ar
    25    15    23    1
    26    12    13    3
    27    23    24    3
    28    13    14    1
    29    24    25    1
