@<TRIPOS>MOLECULE
mol_data/opt/b3lyp/geoms/mol2/6ee6ee6ee.out
 41 43 0 0 0
SMALL
GASTEIGER

@<TRIPOS>ATOM
      1 C          -4.1625   -1.8292   -1.3336 C.ar    1  LIG1        0.1139
      2 C          -3.0828   -2.1788   -0.5038 C.ar    1  LIG1       -0.0266
      3 C          -2.7636   -1.3438    0.5535 C.ar    1  LIG1       -0.0416
      4 C          -3.5133   -0.1744    0.7734 C.ar    1  LIG1        0.0508
      5 C          -4.5795    0.0966   -0.1250 C.ar    1  LIG1        0.0904
      6 N          -4.8879   -0.7127   -1.1410 N.ar    1  LIG1       -0.2371
      7 H          -1.9439   -1.5823    1.2229 H       1  LIG1        0.0631
      8 H          -2.5214   -3.0861   -0.6956 H       1  LIG1        0.0646
      9 C          -4.5256   -2.6698   -2.4358 C.1     1  LIG1       -0.0498
     10 C          -4.8052   -3.4008   -3.3575 C.1     1  LIG1       -0.1124
     11 H          -5.0665   -4.0325   -4.1751 H       1  LIG1        0.1232
     12 C          -3.2039    0.6717    1.8790 C.1     1  LIG1       -0.0675
     13 C          -2.9143    1.3621    2.8299 C.1     1  LIG1       -0.1138
     14 H          -2.6759    1.9811    3.6641 H       1  LIG1        0.1232
     15 C          -6.8281    1.2592    0.1239 C.ar    1  LIG1        0.1231
     16 C          -5.4183    1.3225    0.0027 C.ar    1  LIG1        0.0366
     17 C          -4.8365    2.5856   -0.0239 C.ar    1  LIG1       -0.0324
     18 C          -5.6263    3.7436    0.0417 C.ar    1  LIG1        0.0514
     19 C          -7.0307    3.5693    0.1354 C.ar    1  LIG1        0.0904
     20 N          -7.5945    2.3620    0.1847 N.ar    1  LIG1       -0.2364
     21 H          -3.7598    2.6865   -0.1000 H       1  LIG1        0.0638
     22 C          -7.5205    0.0092    0.2277 C.1     1  LIG1       -0.0491
     23 C          -8.1242   -1.0313    0.3452 C.1     1  LIG1       -0.1124
     24 H          -8.6568   -1.9500    0.4331 H       1  LIG1        0.1232
     25 C          -5.0048    5.0276    0.0301 C.1     1  LIG1       -0.0675
     26 C          -4.4428    6.0993    0.0227 C.1     1  LIG1       -0.1138
     27 H          -3.9643    7.0515    0.0180 H       1  LIG1        0.1232
     28 C          -8.8973    4.9083    1.2231 C.ar    1  LIG1        0.1224
     29 C          -7.9671    4.7288    0.1697 C.ar    1  LIG1        0.0366
     30 C          -7.9693    5.6619   -0.8652 C.ar    1  LIG1       -0.0330
     31 C          -8.8851    6.7237   -0.8545 C.ar    1  LIG1        0.0435
     32 C          -9.7752    6.7934    0.2352 C.ar    1  LIG1        0.0444
     33 N          -9.7811    5.9278    1.2414 N.ar    1  LIG1       -0.2448
     34 H          -7.2703    5.5637   -1.6881 H       1  LIG1        0.0638
     35 H         -10.5082    7.5958    0.2790 H       1  LIG1        0.0842
     36 C          -8.9243    4.0362    2.3593 C.1     1  LIG1       -0.0491
     37 C          -8.9491    3.3331    3.3423 C.1     1  LIG1       -0.1124
     38 H          -8.9784    2.6997    4.1985 H       1  LIG1        0.1232
     39 C          -8.9266    7.6919   -1.8998 C.1     1  LIG1       -0.0681
     40 C          -8.9680    8.5183   -2.7829 C.1     1  LIG1       -0.1139
     41 H          -9.0067    9.2441   -3.5620 H       1  LIG1        0.1232
@<TRIPOS>BOND
     1    11    10    1
     2    41    40    1
     3    10     9    3
     4    40    39    3
     5     9     1    1
     6    39    31    1
     7    34    30    1
     8     1     6   ar
     9     1     2   ar
    10     6     5   ar
    11    30    31   ar
    12    30    29   ar
    13    31    32   ar
    14     8     2    1
    15     2     3   ar
    16     5    16    1
    17     5     4   ar
    18    21    17    1
    19    17    16   ar
    20    17    18   ar
    21    16    15   ar
    22    27    26    1
    23    26    25    3
    24    25    18    1
    25    18    19   ar
    26    15    20   ar
    27    15    22    1
    28    19    29    1
    29    19    20   ar
    30    29    28   ar
    31    22    23    3
    32    32    35    1
    33    32    33   ar
    34    23    24    1
    35     3     4   ar
    36     3     7    1
    37     4    12    1
    38    28    33   ar
    39    28    36    1
    40    12    13    3
    41    36    37    3
    42    13    14    1
    43    37    38    1
