@<TRIPOS>MOLECULE
mol_data/opt/b3lyp/geoms/mol2/6ee6ee6ee6ee.out
 54 57 0 0 0
SMALL
GASTEIGER

@<TRIPOS>ATOM
      1 C          -3.6471   -1.5074   -1.7741 C.ar    1  LIG1        0.1139
      2 C          -2.9182   -2.1631   -0.7663 C.ar    1  LIG1       -0.0266
      3 C          -3.0157   -1.6939    0.5327 C.ar    1  LIG1       -0.0416
      4 C          -3.8285   -0.5818    0.8166 C.ar    1  LIG1        0.0508
      5 C          -4.5181    0.0173   -0.2708 C.ar    1  LIG1        0.0904
      6 N          -4.4262   -0.4400   -1.5216 N.ar    1  LIG1       -0.2371
      7 H          -2.4770   -2.1774    1.3407 H       1  LIG1        0.0631
      8 H          -2.2989   -3.0181   -1.0122 H       1  LIG1        0.0646
      9 C          -3.5750   -1.9657   -3.1297 C.1     1  LIG1       -0.0498
     10 C          -3.4915   -2.3775   -4.2635 C.1     1  LIG1       -0.1124
     11 H          -3.4302   -2.7260   -5.2688 H       1  LIG1        0.1232
     12 C          -3.9522   -0.1142    2.1582 C.1     1  LIG1       -0.0675
     13 C          -4.0353    0.2508    3.3091 C.1     1  LIG1       -0.1138
     14 H          -4.1229    0.5844    4.3175 H       1  LIG1        0.1232
     15 C          -6.7443    1.2305   -0.4740 C.ar    1  LIG1        0.1231
     16 C          -5.3827    1.2175   -0.0838 C.ar    1  LIG1        0.0366
     17 C          -4.8630    2.3883    0.4581 C.ar    1  LIG1       -0.0324
     18 C          -5.6576    3.5381    0.5845 C.ar    1  LIG1        0.0514
     19 C          -7.0011    3.4522    0.1385 C.ar    1  LIG1        0.0904
     20 N          -7.5139    2.3267   -0.3598 N.ar    1  LIG1       -0.2364
     21 H          -3.8303    2.4237    0.7860 H       1  LIG1        0.0638
     22 C          -7.3943    0.0587   -0.9806 C.1     1  LIG1       -0.0491
     23 C          -7.9710   -0.9238   -1.3844 C.1     1  LIG1       -0.1124
     24 H          -8.4747   -1.7867   -1.7545 H       1  LIG1        0.1232
     25 C          -5.1071    4.7220    1.1589 C.1     1  LIG1       -0.0675
     26 C          -4.6093    5.7072    1.6550 C.1     1  LIG1       -0.1138
     27 H          -4.1874    6.5838    2.0901 H       1  LIG1        0.1232
     28 C          -9.1754    4.5687    0.8438 C.ar    1  LIG1        0.1231
     29 C          -7.9232    4.6219    0.1835 C.ar    1  LIG1        0.0366
     30 C          -7.5904    5.8104   -0.4583 C.ar    1  LIG1       -0.0324
     31 C          -8.4782    6.8970   -0.4670 C.ar    1  LIG1        0.0514
     32 C          -9.7175    6.7302    0.2020 C.ar    1  LIG1        0.0904
     33 N         -10.0343    5.6030    0.8398 N.ar    1  LIG1       -0.2364
     34 H          -6.6371    5.9053   -0.9657 H       1  LIG1        0.0638
     35 C          -9.5858    3.4176    1.5914 C.1     1  LIG1       -0.0491
     36 C          -9.9427    2.4700    2.2513 C.1     1  LIG1       -0.1124
     37 H         -10.2618    1.6259    2.8178 H       1  LIG1        0.1232
     38 C          -8.1076    8.1109   -1.1181 C.1     1  LIG1       -0.0675
     39 C          -7.7582    9.1264   -1.6760 C.1     1  LIG1       -0.1138
     40 H          -7.4658   10.0283   -2.1626 H       1  LIG1        0.1232
     41 C         -11.2761    8.3169    1.4324 C.ar    1  LIG1        0.1224
     42 C         -10.7526    7.8031    0.2203 C.ar    1  LIG1        0.0366
     43 C         -11.2595    8.3120   -0.9736 C.ar    1  LIG1       -0.0330
     44 C         -12.2691    9.2848   -0.9526 C.ar    1  LIG1        0.0435
     45 C         -12.7259    9.7096    0.3105 C.ar    1  LIG1        0.0444
     46 N         -12.2470    9.2536    1.4614 N.ar    1  LIG1       -0.2448
     47 H         -10.8832    7.9490   -1.9234 H       1  LIG1        0.0638
     48 H         -13.5144   10.4563    0.3730 H       1  LIG1        0.0842
     49 C         -10.7711    7.8999    2.7066 C.1     1  LIG1       -0.0491
     50 C         -10.3441    7.5877    3.7936 C.1     1  LIG1       -0.1124
     51 H          -9.9760    7.2955    4.7497 H       1  LIG1        0.1232
     52 C         -12.8212    9.8220   -2.1520 C.1     1  LIG1       -0.0681
     53 C         -13.2942   10.2834   -3.1658 C.1     1  LIG1       -0.1139
     54 H         -13.7126   10.6871   -4.0587 H       1  LIG1        0.1232
@<TRIPOS>BOND
     1    11    10    1
     2    10     9    3
     3    54    53    1
     4    53    52    3
     5     9     1    1
     6    40    39    1
     7    52    44    1
     8    47    43    1
     9     1     6   ar
    10     1     2   ar
    11    24    23    1
    12    39    38    3
    13     6     5   ar
    14    23    22    3
    15    38    31    1
    16     8     2    1
    17    22    15    1
    18    43    44   ar
    19    43    42   ar
    20    34    30    1
    21    44    45   ar
    22     2     3   ar
    23    15    20   ar
    24    15    16   ar
    25    31    30   ar
    26    31    32   ar
    27    30    29   ar
    28    20    19   ar
    29     5    16    1
    30     5     4   ar
    31    16    17   ar
    32    19    29    1
    33    19    18   ar
    34    29    28   ar
    35    32    42    1
    36    32    33   ar
    37    42    41   ar
    38    45    48    1
    39    45    46   ar
    40    17    18   ar
    41    17    21    1
    42     3     4   ar
    43     3     7    1
    44    18    25    1
    45     4    12    1
    46    33    28   ar
    47    28    35    1
    48    25    26    3
    49    41    46   ar
    50    41    49    1
    51    35    36    3
    52    26    27    1
    53    12    13    3
    54    36    37    1
    55    49    50    3
    56    13    14    1
    57    50    51    1
