@<TRIPOS>MOLECULE
mol_data/opt/b3lyp/geoms/mol2/6ee6fh12da-13id4fa13de-6lh13aa.out
 92 99 0 0 0
SMALL
GASTEIGER

@<TRIPOS>ATOM
      1 C          -4.6357   -1.7987    1.9327 C.ar    1  LIG1        0.1139
      2 C          -3.2634   -1.8621    2.2090 C.ar    1  LIG1       -0.0266
      3 C          -2.5176   -0.7062    2.0496 C.ar    1  LIG1       -0.0416
      4 C          -3.1219    0.4997    1.6515 C.ar    1  LIG1        0.0509
      5 C          -4.5381    0.5021    1.4519 C.ar    1  LIG1        0.0928
      6 N          -5.2302   -0.6485    1.5743 N.ar    1  LIG1       -0.2370
      7 H          -1.4454   -0.7177    2.2141 H       1  LIG1        0.0631
      8 H          -2.8075   -2.7963    2.5142 H       1  LIG1        0.0646
      9 C          -5.4598   -2.9651    2.0232 C.1     1  LIG1       -0.0498
     10 C          -6.1383   -3.9625    2.1047 C.1     1  LIG1       -0.1124
     11 H          -6.7467   -4.8350    2.1759 H       1  LIG1        0.1232
     12 C          -2.2525    1.6073    1.4204 C.1     1  LIG1       -0.0675
     13 C          -1.4239    2.4704    1.2331 C.1     1  LIG1       -0.1138
     14 H          -0.7164    3.2463    1.0489 H       1  LIG1        0.1232
     15 C          -6.6423    1.5590    0.4817 C.ar    1  LIG1        0.2225
     16 C          -5.3474    1.6859    1.0901 C.ar    1  LIG1        0.0647
     17 C          -4.9135    2.9903    1.3296 C.ar    1  LIG1       -0.0245
     18 C          -5.6511    4.1200    0.9501 C.ar    1  LIG1        0.0549
     19 C          -6.8631    3.8622    0.2598 C.ar    1  LIG1        0.1316
     20 N          -7.3234    2.6118    0.0670 N.ar    1  LIG1       -0.2074
     21 H          -3.9777    3.1516    1.8489 H       1  LIG1        0.0645
     22 O          -7.2400    0.3765    0.2823 O.3     1  LIG1       -0.4919
     23 H          -6.6933   -0.2969    0.7630 H       1  LIG1        0.2937
     24 N          -5.2295    5.3847    1.3615 N.pl3   1  LIG1       -0.3562
     25 H          -4.3037    5.3809    1.7691 H       1  LIG1        0.1424
     26 H          -5.3140    6.1416    0.6961 H       1  LIG1        0.1424
     27 C          -7.7683    4.8971   -0.2412 C.ar    1  LIG1        0.1731
     28 C          -7.6575    6.1770   -0.7711 C.ar    1  LIG1        0.0996
     29 C          -8.9776    6.6189   -1.1171 C.ar    1  LIG1        0.0038
     30 C          -9.8165    5.5875   -0.7901 C.ar    1  LIG1        0.1534
     31 O          -9.0866    4.5539   -0.2633 O.2     1  LIG1       -0.4504
     32 N          -5.4772    7.4831   -1.2273 N.1     1  LIG1       -0.1907
     33 C          -6.4652    6.8966   -1.0298 C.1     1  LIG1        0.1030
     34 H          -9.2391    7.5646   -1.5636 H       1  LIG1        0.0669
     35 C         -11.2307    5.3543   -0.8769 C.ar    1  LIG1        0.0868
     36 C         -12.2786    6.1654   -1.2958 C.ar    1  LIG1       -0.0042
     37 C         -13.4692    5.3904   -1.1367 C.ar    1  LIG1        0.0807
     38 C         -13.1195    4.1277   -0.6287 C.ar    1  LIG1        0.0683
     39 N         -11.7604    4.1377   -0.4925 N.ar    1  LIG1       -0.3504
     40 H         -11.2107    3.3913   -0.0913 H       1  LIG1        0.1660
     41 C         -12.1927    7.5662   -1.8180 C.3     1  LIG1       -0.0364
     42 H         -13.1878    7.9493   -2.0551 H       1  LIG1        0.0279
     43 H         -11.5881    7.6210   -2.7311 H       1  LIG1        0.0279
     44 H         -11.7396    8.2419   -1.0829 H       1  LIG1        0.0279
     45 N         -15.7892    6.2339   -1.8970 N.1     1  LIG1       -0.1908
     46 C         -14.7603    5.8281   -1.5320 C.1     1  LIG1        0.1016
     47 C         -15.1439    2.9793    0.3324 C.ar    1  LIG1        0.1266
     48 C         -15.8611    1.8139    0.5979 C.ar    1  LIG1       -0.0104
     49 C         -13.8956    2.9240   -0.3289 C.ar    1  LIG1        0.0410
     50 C         -15.3501    0.5531    0.2525 C.ar    1  LIG1        0.0031
     51 H         -16.8223    1.8938    1.0947 H       1  LIG1        0.0661
     52 C         -13.3942    1.6543   -0.6620 C.ar    1  LIG1       -0.0485
     53 C         -14.0927    0.4894   -0.3768 C.ar    1  LIG1       -0.0517
     54 H         -12.4403    1.5859   -1.1767 H       1  LIG1        0.0625
     55 O         -15.5966    4.2013    0.7100 O.3     1  LIG1       -0.5061
     56 H         -16.4865    4.1255    1.0801 H       1  LIG1        0.2922
     57 H         -13.6462   -0.4683   -0.6231 H       1  LIG1        0.0624
     58 C         -16.1051   -0.6662    0.5342 C.ar    1  LIG1        0.0658
     59 C         -17.1058   -0.9547    1.4684 C.ar    1  LIG1        0.0929
     60 C         -17.4736   -2.3368    1.3188 C.ar    1  LIG1        0.0680
     61 C         -16.6828   -2.8595    0.2806 C.ar    1  LIG1        0.0690
     62 N         -15.8801   -1.8279   -0.1495 N.ar    1  LIG1       -0.3520
     63 H         -15.2590   -1.9466   -0.9387 H       1  LIG1        0.1660
     64 N         -18.1139    0.6692    3.2042 N.1     1  LIG1       -0.1908
     65 C         -17.6552   -0.0679    2.4269 C.1     1  LIG1        0.1025
     66 C         -18.4511   -2.9759    2.1181 C.1     1  LIG1       -0.0662
     67 C         -19.2971   -3.4634    2.8352 C.1     1  LIG1       -0.1138
     68 H         -20.0371   -3.8813    3.4778 H       1  LIG1        0.1232
     69 C         -15.7563   -4.5422   -1.3889 C.ar    1  LIG1        0.2246
     70 C         -16.6291   -4.1868   -0.3241 C.ar    1  LIG1        0.0628
     71 C         -17.4758   -5.2171    0.1070 C.ar    1  LIG1       -0.0246
     72 C         -17.4379   -6.4983   -0.4466 C.ar    1  LIG1        0.0532
     73 C         -16.4884   -6.7432   -1.4653 C.ar    1  LIG1        0.1115
     74 N         -15.6977   -5.7429   -1.9193 N.ar    1  LIG1       -0.2090
     75 H         -18.1909   -5.0110    0.8946 H       1  LIG1        0.0645
     76 O         -14.9219   -3.5741   -1.8925 O.3     1  LIG1       -0.4792
     77 C         -14.0490   -3.9460   -2.9627 C.3     1  LIG1        0.0804
     78 H         -13.4707   -3.0497   -3.1907 H       1  LIG1        0.0660
     79 H         -13.3848   -4.7602   -2.6616 H       1  LIG1        0.0660
     80 H         -14.6195   -4.2575   -3.8422 H       1  LIG1        0.0660
     81 N         -18.2905   -7.5044    0.0192 N.pl3   1  LIG1       -0.3563
     82 H         -19.0761   -7.1504    0.5505 H       1  LIG1        0.1424
     83 H         -18.5997   -8.1418   -0.7057 H       1  LIG1        0.1424
     84 C         -16.3054   -8.0332   -2.1132 C.ar    1  LIG1        0.0669
     85 C         -16.6899   -9.3418   -1.8104 C.ar    1  LIG1       -0.0349
     86 C         -16.1706  -10.1880   -2.8217 C.ar    1  LIG1       -0.0438
     87 C         -15.4849   -9.3890   -3.7176 C.ar    1  LIG1        0.0022
     88 N         -15.5730   -8.0985   -3.2794 N.ar    1  LIG1       -0.3594
     89 H         -15.1528   -7.2776   -3.6870 H       1  LIG1        0.1654
     90 H         -14.9522   -9.6393   -4.6229 H       1  LIG1        0.0807
     91 H         -17.2171   -9.6580   -0.9237 H       1  LIG1        0.0639
     92 H         -16.2807  -11.2612   -2.8847 H       1  LIG1        0.0633
@<TRIPOS>BOND
     1    90    87    1
     2    80    77    1
     3    87    88   ar
     4    87    86   ar
     5    89    88    1
     6    88    84   ar
     7    78    77    1
     8    77    79    1
     9    77    76    1
    10    92    86    1
    11    86    85   ar
    12    43    41    1
    13    84    85   ar
    14    84    73    1
    15    42    41    1
    16    74    73   ar
    17    74    69   ar
    18    45    46    3
    19    76    69    1
    20    41    36    1
    21    41    44    1
    22    85    91    1
    23    34    29    1
    24    46    37    1
    25    73    72   ar
    26    69    70   ar
    27    36    37   ar
    28    36    35   ar
    29    32    33    3
    30    54    52    1
    31    37    38   ar
    32    29    30   ar
    33    29    28   ar
    34    33    28    1
    35    63    62    1
    36    35    30    1
    37    35    39   ar
    38    30    31   ar
    39    28    27   ar
    40    83    81    1
    41    52    53   ar
    42    52    49   ar
    43    38    39   ar
    44    38    49    1
    45    57    53    1
    46    39    40    1
    47    72    81    1
    48    72    71   ar
    49    53    50   ar
    50    49    47   ar
    51    70    71   ar
    52    70    61    1
    53    31    27   ar
    54    27    19    1
    55    62    61   ar
    56    62    58   ar
    57    81    82    1
    58    20    19   ar
    59    20    15   ar
    60    71    75    1
    61    50    58    1
    62    50    48   ar
    63    19    18   ar
    64    61    60   ar
    65    22    15    1
    66    22    23    1
    67    47    48   ar
    68    47    55    1
    69    15    16   ar
    70    58    59   ar
    71    48    51    1
    72    26    24    1
    73    55    56    1
    74    18    17   ar
    75    18    24    1
    76    14    13    1
    77    16    17   ar
    78    16     5    1
    79    13    12    3
    80    60    59   ar
    81    60    66    1
    82    17    21    1
    83    24    25    1
    84    12     4    1
    85     5     6   ar
    86     5     4   ar
    87    59    65    1
    88     6     1   ar
    89     4     3   ar
    90     1     9    1
    91     1     2   ar
    92     9    10    3
    93     3     2   ar
    94     3     7    1
    95    10    11    1
    96    66    67    3
    97     2     8    1
    98    65    64    3
    99    67    68    1
