@<TRIPOS>MOLECULE
mol_data/opt/b3lyp/geoms/mol2/6ef13al4fi-6fe-.out
 52 55 0 0 0
SMALL
GASTEIGER

@<TRIPOS>ATOM
      1 C          -4.5965   -1.9982    1.1268 C.ar    1  LIG1        0.1141
      2 C          -3.2054   -2.0613    1.3206 C.ar    1  LIG1       -0.0243
      3 C          -2.4481   -0.9147    1.1157 C.ar    1  LIG1       -0.0154
      4 C          -3.0821    0.2528    0.6969 C.ar    1  LIG1        0.1442
      5 C          -4.4770    0.2184    0.4559 C.ar    1  LIG1        0.1298
      6 N          -5.2095   -0.8807    0.7006 N.ar    1  LIG1       -0.2333
      7 H          -1.3777   -0.8981    1.2916 H       1  LIG1        0.0655
      8 H          -2.7448   -2.9871    1.6454 H       1  LIG1        0.0646
      9 C          -5.4148   -3.1494    1.3772 C.1     1  LIG1       -0.0498
     10 C          -6.0793   -4.1352    1.5993 C.1     1  LIG1       -0.1124
     11 H          -6.6747   -4.9981    1.7891 H       1  LIG1        0.1232
     12 O          -2.3381    1.3825    0.5497 O.3     1  LIG1       -0.5046
     13 H          -2.9371    2.1467    0.5568 H       1  LIG1        0.2922
     14 C          -5.2109    1.3848   -0.0232 C.ar    1  LIG1        0.0726
     15 C          -4.8245    2.5696   -0.6649 C.ar    1  LIG1        0.0077
     16 C          -6.0026    3.3319   -0.8676 C.ar    1  LIG1        0.1460
     17 C          -7.0865    2.6188   -0.3453 C.ar    1  LIG1        0.0927
     18 N          -6.5641    1.4374    0.1391 N.ar    1  LIG1       -0.3498
     19 H          -7.0733    0.7004    0.6056 H       1  LIG1        0.1661
     20 H          -3.8454    2.7914   -1.0621 H       1  LIG1        0.0676
     21 O          -6.1457    4.5176   -1.5128 O.3     1  LIG1       -0.4930
     22 C          -4.9527    5.1168   -1.9899 C.3     1  LIG1        0.0789
     23 H          -5.2459    6.0629   -2.4471 H       1  LIG1        0.0660
     24 H          -4.2463    5.3138   -1.1725 H       1  LIG1        0.0660
     25 H          -4.4589    4.4904   -2.7450 H       1  LIG1        0.0660
     26 C          -9.0597    4.1331    0.0396 C.ar    1  LIG1        0.1266
     27 C         -10.4407    4.3286    0.0315 C.ar    1  LIG1       -0.0114
     28 C          -8.5255    2.8806   -0.3319 C.ar    1  LIG1        0.0436
     29 C         -11.3319    3.3002   -0.3068 C.ar    1  LIG1       -0.0064
     30 H         -10.8416    5.3022    0.3061 H       1  LIG1        0.0660
     31 C          -9.4342    1.8594   -0.6534 C.ar    1  LIG1       -0.0455
     32 C         -10.8224    2.0254   -0.6443 C.ar    1  LIG1       -0.0417
     33 H          -9.0313    0.8916   -0.9407 H       1  LIG1        0.0628
     34 O          -8.1960    5.1121    0.4262 O.3     1  LIG1       -0.5061
     35 H          -8.6972    5.9126    0.6304 H       1  LIG1        0.2922
     36 C         -11.7305    0.8572   -0.9616 C.3     1  LIG1       -0.0391
     37 H         -11.1491   -0.0587   -1.0932 H       1  LIG1        0.0278
     38 H         -12.3094    1.0179   -1.8775 H       1  LIG1        0.0278
     39 H         -12.4531    0.6853   -0.1569 H       1  LIG1        0.0278
     40 C         -13.5647    3.6071   -1.4718 C.ar    1  LIG1        0.2203
     41 C         -12.7971    3.5822   -0.2802 C.ar    1  LIG1        0.0450
     42 C         -13.4695    3.8737    0.9020 C.ar    1  LIG1       -0.0321
     43 C         -14.8500    4.1473    0.8897 C.ar    1  LIG1        0.0436
     44 C         -15.4927    4.1109   -0.3591 C.ar    1  LIG1        0.0468
     45 N         -14.8693    3.8544   -1.5085 N.ar    1  LIG1       -0.2197
     46 H         -12.9271    3.8758    1.8421 H       1  LIG1        0.0638
     47 H         -16.5612    4.3042   -0.4205 H       1  LIG1        0.0843
     48 O         -12.9984    3.3799   -2.6815 O.3     1  LIG1       -0.4920
     49 H         -12.0401    3.2924   -2.5588 H       1  LIG1        0.2937
     50 C         -15.5706    4.4407    2.0849 C.1     1  LIG1       -0.0681
     51 C         -16.1847    4.6907    3.0974 C.1     1  LIG1       -0.1139
     52 H         -16.7282    4.9094    3.9872 H       1  LIG1        0.1232
@<TRIPOS>BOND
     1    25    22    1
     2    48    49    1
     3    48    40    1
     4    23    22    1
     5    22    21    1
     6    22    24    1
     7    38    36    1
     8    21    16    1
     9    45    40   ar
    10    45    44   ar
    11    40    41   ar
    12    37    36    1
    13    20    15    1
    14    36    32    1
    15    36    39    1
    16    33    31    1
    17    16    15   ar
    18    16    17   ar
    19    15    14   ar
    20    31    32   ar
    21    31    28   ar
    22    32    29   ar
    23    47    44    1
    24    44    43   ar
    25    17    28    1
    26    17    18   ar
    27    28    26   ar
    28    29    41    1
    29    29    27   ar
    30    41    42   ar
    31    14    18   ar
    32    14     5    1
    33    27    26   ar
    34    27    30    1
    35    26    34    1
    36    18    19    1
    37    34    35    1
    38     5     4   ar
    39     5     6   ar
    40    12    13    1
    41    12     4    1
    42     4     3   ar
    43     6     1   ar
    44    43    42   ar
    45    43    50    1
    46    42    46    1
    47     3     7    1
    48     3     2   ar
    49     1     2   ar
    50     1     9    1
    51     2     8    1
    52     9    10    3
    53    10    11    1
    54    50    51    3
    55    51    52    1
