@<TRIPOS>MOLECULE
mol_data/opt/b3lyp/geoms/mol2/6ef6ef6ef.out
 38 40 0 0 0
SMALL
GASTEIGER

@<TRIPOS>ATOM
      1 C          -4.0522   -1.9660   -0.9318 C.ar    1  LIG1        0.1141
      2 C          -3.1281   -2.2520    0.0907 C.ar    1  LIG1       -0.0243
      3 C          -3.0096   -1.3744    1.1564 C.ar    1  LIG1       -0.0154
      4 C          -3.8083   -0.2285    1.1794 C.ar    1  LIG1        0.1429
      5 C          -4.7033   -0.0095    0.1090 C.ar    1  LIG1        0.1164
      6 N          -4.8201   -0.8630   -0.9113 N.ar    1  LIG1       -0.2347
      7 H          -2.3200   -1.5550    1.9742 H       1  LIG1        0.0655
      8 H          -2.5246   -3.1514    0.0378 H       1  LIG1        0.0646
      9 C          -4.1973   -2.8589   -2.0445 C.1     1  LIG1       -0.0498
     10 C          -4.2931   -3.6335   -2.9682 C.1     1  LIG1       -0.1124
     11 H          -4.3913   -4.3042   -3.7901 H       1  LIG1        0.1232
     12 O          -3.6845    0.6127    2.2398 O.3     1  LIG1       -0.5046
     13 H          -4.3411    1.3212    2.1623 H       1  LIG1        0.2922
     14 C          -6.9773    1.1455    0.0552 C.ar    1  LIG1        0.1233
     15 C          -5.5596    1.2133    0.0785 C.ar    1  LIG1        0.0413
     16 C          -4.9721    2.4791    0.0691 C.ar    1  LIG1       -0.0061
     17 C          -5.7727    3.6213    0.0126 C.ar    1  LIG1        0.1435
     18 C          -7.1719    3.4551   -0.0323 C.ar    1  LIG1        0.1164
     19 N          -7.7411    2.2486   -0.0013 N.ar    1  LIG1       -0.2340
     20 H          -3.8926    2.5965    0.0751 H       1  LIG1        0.0662
     21 C          -7.6689   -0.1078    0.1194 C.1     1  LIG1       -0.0491
     22 C          -8.2665   -1.1553    0.1982 C.1     1  LIG1       -0.1124
     23 H          -8.7903   -2.0816    0.2494 H       1  LIG1        0.1232
     24 O          -5.1548    4.8308    0.0070 O.3     1  LIG1       -0.5046
     25 H          -5.8260    5.5300    0.0157 H       1  LIG1        0.2922
     26 C          -9.0389    4.9277    0.8817 C.ar    1  LIG1        0.1226
     27 C          -8.0747    4.6409   -0.1195 C.ar    1  LIG1        0.0412
     28 C          -7.9856    5.5050   -1.2135 C.ar    1  LIG1       -0.0067
     29 C          -8.8506    6.5981   -1.2989 C.ar    1  LIG1        0.1356
     30 C          -9.7787    6.7854   -0.2672 C.ar    1  LIG1        0.0704
     31 N          -9.8693    5.9831    0.7888 N.ar    1  LIG1       -0.2424
     32 H          -7.2809    5.3201   -2.0187 H       1  LIG1        0.0662
     33 H         -10.4751    7.6248   -0.3036 H       1  LIG1        0.0867
     34 C          -9.1559    4.1228    2.0612 C.1     1  LIG1       -0.0491
     35 C          -9.2501    3.4692    3.0736 C.1     1  LIG1       -0.1124
     36 H          -9.3474    2.8806    3.9563 H       1  LIG1        0.1232
     37 O          -8.7521    7.4191   -2.3768 O.3     1  LIG1       -0.5052
     38 H          -9.4262    8.1104   -2.3197 H       1  LIG1        0.2922
@<TRIPOS>BOND
     1    11    10    1
     2    10     9    3
     3    37    38    1
     4    37    29    1
     5     9     1    1
     6    32    28    1
     7    29    28   ar
     8    29    30   ar
     9    28    27   ar
    10     1     6   ar
    11     1     2   ar
    12     6     5   ar
    13    33    30    1
    14    30    31   ar
    15    27    18    1
    16    27    26   ar
    17    18    19   ar
    18    18    17   ar
    19    19    14   ar
    20    24    17    1
    21    24    25    1
    22    17    16   ar
    23     8     2    1
    24    14    15   ar
    25    14    21    1
    26    16    20    1
    27    16    15   ar
    28    15     5    1
    29     2     3   ar
    30     5     4   ar
    31    21    22    3
    32    22    23    1
    33    31    26   ar
    34    26    34    1
    35     3     4   ar
    36     3     7    1
    37     4    12    1
    38    34    35    3
    39    13    12    1
    40    35    36    1
