@<TRIPOS>MOLECULE
mol_data/opt/b3lyp/geoms/mol2/6ef6ef6ef-6ef-.out
 50 53 0 0 0
SMALL
GASTEIGER

@<TRIPOS>ATOM
      1 C          -4.6410   -2.3797   -0.3202 C.ar    1  LIG1        0.1141
      2 C          -3.2453   -2.4807   -0.1673 C.ar    1  LIG1       -0.0243
      3 C          -2.5031   -1.3260    0.0207 C.ar    1  LIG1       -0.0154
      4 C          -3.1632   -0.0950    0.0457 C.ar    1  LIG1        0.1429
      5 C          -4.5652   -0.0788   -0.1262 C.ar    1  LIG1        0.1164
      6 N          -5.2771   -1.1962   -0.2970 N.ar    1  LIG1       -0.2347
      7 H          -1.4269   -1.3515    0.1545 H       1  LIG1        0.0655
      8 H          -2.7676   -3.4538   -0.1937 H       1  LIG1        0.0646
      9 C          -5.4336   -3.5593   -0.5119 C.1     1  LIG1       -0.0498
     10 C          -6.0703   -4.5750   -0.6719 C.1     1  LIG1       -0.1124
     11 H          -6.6464   -5.4597   -0.8147 H       1  LIG1        0.1232
     12 O          -2.4160    1.0227    0.2442 O.3     1  LIG1       -0.5046
     13 H          -3.0031    1.7909    0.3093 H       1  LIG1        0.2922
     14 C          -6.3780    1.4816    0.7677 C.ar    1  LIG1        0.1233
     15 C          -5.3130    1.2120   -0.1309 C.ar    1  LIG1        0.0413
     16 C          -4.9948    2.2115   -1.0466 C.ar    1  LIG1       -0.0061
     17 C          -5.7016    3.4202   -1.0845 C.ar    1  LIG1        0.1435
     18 C          -6.7572    3.5980   -0.1569 C.ar    1  LIG1        0.1164
     19 N          -7.0615    2.6318    0.7252 N.ar    1  LIG1       -0.2340
     20 H          -4.2154    2.0629   -1.7882 H       1  LIG1        0.0662
     21 C          -6.7654    0.5472    1.7833 C.1     1  LIG1       -0.0491
     22 C          -7.0896   -0.2150    2.6636 C.1     1  LIG1       -0.1124
     23 H          -7.3774   -0.8998    3.4274 H       1  LIG1        0.1232
     24 O          -5.3596    4.2760   -2.0753 O.3     1  LIG1       -0.5046
     25 H          -5.5022    5.2003   -1.8031 H       1  LIG1        0.2922
     26 C          -7.3588    6.1249   -0.2544 C.ar    1  LIG1        0.1233
     27 C          -7.6972    4.7572   -0.1280 C.ar    1  LIG1        0.0413
     28 C          -9.0509    4.4737    0.0871 C.ar    1  LIG1       -0.0061
     29 C          -9.9943    5.4915    0.1294 C.ar    1  LIG1        0.1435
     30 C          -9.5638    6.8300   -0.0442 C.ar    1  LIG1        0.1164
     31 N          -8.2753    7.1091   -0.2212 N.ar    1  LIG1       -0.2340
     32 H          -9.3449    3.4389    0.2372 H       1  LIG1        0.0662
     33 C          -5.9998    6.5690   -0.3806 C.1     1  LIG1       -0.0491
     34 C          -4.8531    6.9392   -0.5060 C.1     1  LIG1       -0.1124
     35 H          -3.8463    7.2795   -0.5918 H       1  LIG1        0.1232
     36 O         -11.3186    5.2523    0.3309 O.3     1  LIG1       -0.5046
     37 H         -11.4482    4.3105    0.5104 H       1  LIG1        0.2922
     38 C         -10.2973    9.1220    0.7693 C.ar    1  LIG1        0.1226
     39 C         -10.5151    7.9740   -0.0313 C.ar    1  LIG1        0.0412
     40 C         -11.6525    7.9505   -0.8437 C.ar    1  LIG1       -0.0067
     41 C         -12.5105    9.0461   -0.8617 C.ar    1  LIG1        0.1356
     42 C         -12.1980   10.1462   -0.0503 C.ar    1  LIG1        0.0704
     43 N         -11.1350   10.1800    0.7429 N.ar    1  LIG1       -0.2424
     44 H         -11.8591    7.0794   -1.4592 H       1  LIG1        0.0662
     45 H         -12.8507   11.0164   -0.0567 H       1  LIG1        0.0867
     46 C          -9.2063    9.2141    1.6949 C.1     1  LIG1       -0.0491
     47 C          -8.3204    9.3148    2.5113 C.1     1  LIG1       -0.1124
     48 H          -7.5284    9.4050    3.2177 H       1  LIG1        0.1232
     49 O         -13.6345    9.1181   -1.6264 O.3     1  LIG1       -0.5052
     50 H         -13.7393    8.2963   -2.1243 H       1  LIG1        0.2922
@<TRIPOS>BOND
     1    50    49    1
     2    24    25    1
     3    24    17    1
     4    20    16    1
     5    49    41    1
     6    44    40    1
     7    17    16   ar
     8    17    18   ar
     9    16    15   ar
    10    41    40   ar
    11    41    42   ar
    12    40    39   ar
    13    11    10    1
    14    10     9    3
    15    35    34    1
    16     9     1    1
    17    34    33    3
    18    33    26    1
    19     1     6   ar
    20     1     2   ar
    21     6     5   ar
    22    26    31   ar
    23    26    27   ar
    24    31    30   ar
    25     8     2    1
    26     2     3   ar
    27    18    27    1
    28    18    19   ar
    29    15     5    1
    30    15    14   ar
    31    27    28   ar
    32     5     4   ar
    33    45    42    1
    34    42    43   ar
    35    30    39    1
    36    30    29   ar
    37    39    38   ar
    38     3     4   ar
    39     3     7    1
    40     4    12    1
    41    28    29   ar
    42    28    32    1
    43    29    36    1
    44    12    13    1
    45    36    37    1
    46    19    14   ar
    47    43    38   ar
    48    14    21    1
    49    38    46    1
    50    46    47    3
    51    21    22    3
    52    47    48    1
    53    22    23    1
