@<TRIPOS>MOLECULE
mol_data/opt/b3lyp/geoms/mol2/6ef6ef6ef6ef.out
 50 53 0 0 0
SMALL
GASTEIGER

@<TRIPOS>ATOM
      1 C          -3.5805   -1.7209   -1.2886 C.ar    1  LIG1        0.1141
      2 C          -2.9930   -2.3038   -0.1501 C.ar    1  LIG1       -0.0243
      3 C          -3.2758   -1.7754    1.0992 C.ar    1  LIG1       -0.0154
      4 C          -4.1320   -0.6752    1.1887 C.ar    1  LIG1        0.1429
      5 C          -4.6724   -0.1434   -0.0028 C.ar    1  LIG1        0.1164
      6 N          -4.4037   -0.6617   -1.2037 N.ar    1  LIG1       -0.2347
      7 H          -2.8566   -2.1949    2.0076 H       1  LIG1        0.0655
      8 H          -2.3325   -3.1569   -0.2595 H       1  LIG1        0.0646
      9 C          -3.3068   -2.2499   -2.5932 C.1     1  LIG1       -0.0498
     10 C          -3.0534   -2.7213   -3.6777 C.1     1  LIG1       -0.1124
     11 H          -2.8420   -3.1229   -4.6415 H       1  LIG1        0.1232
     12 O          -4.4053   -0.1797    2.4244 O.3     1  LIG1       -0.5046
     13 H          -5.0597    0.5306    2.3446 H       1  LIG1        0.2922
     14 C          -6.9116    1.0007   -0.4321 C.ar    1  LIG1        0.1233
     15 C          -5.5747    1.0455    0.0426 C.ar    1  LIG1        0.0413
     16 C          -5.1131    2.2550    0.5635 C.ar    1  LIG1       -0.0061
     17 C          -5.9491    3.3730    0.5815 C.ar    1  LIG1        0.1435
     18 C          -7.2543    3.2398    0.0652 C.ar    1  LIG1        0.1164
     19 N          -7.7096    2.0805   -0.4138 N.ar    1  LIG1       -0.2340
     20 H          -4.0970    2.3551    0.9331 H       1  LIG1        0.0662
     21 C          -7.4882   -0.2122   -0.9320 C.1     1  LIG1       -0.0491
     22 C          -7.9949   -1.2335   -1.3331 C.1     1  LIG1       -0.1124
     23 H          -8.4335   -2.1311   -1.7032 H       1  LIG1        0.1232
     24 O          -5.4558    4.5270    1.1000 O.3     1  LIG1       -0.5046
     25 H          -6.1524    5.2010    1.0957 H       1  LIG1        0.2922
     26 C          -9.4192    4.4097    0.7302 C.ar    1  LIG1        0.1233
     27 C          -8.1813    4.4089    0.0362 C.ar    1  LIG1        0.0413
     28 C          -7.8427    5.5525   -0.6882 C.ar    1  LIG1       -0.0061
     29 C          -8.7227    6.6356   -0.7338 C.ar    1  LIG1        0.1435
     30 C          -9.9418    6.5365   -0.0321 C.ar    1  LIG1        0.1164
     31 N         -10.2607    5.4548    0.6809 N.ar    1  LIG1       -0.2340
     32 H          -6.9146    5.6078   -1.2492 H       1  LIG1        0.0662
     33 C          -9.8214    3.3015    1.5449 C.1     1  LIG1       -0.0491
     34 C         -10.1614    2.3844    2.2549 C.1     1  LIG1       -0.1124
     35 H         -10.4723    1.5679    2.8646 H       1  LIG1        0.1232
     36 O          -8.3509    7.7262   -1.4514 O.3     1  LIG1       -0.5046
     37 H          -9.0292    8.4126   -1.3613 H       1  LIG1        0.2922
     38 C         -11.3342    8.3385    1.1089 C.ar    1  LIG1        0.1226
     39 C         -10.9299    7.6551   -0.0672 C.ar    1  LIG1        0.0412
     40 C         -11.4871    8.0537   -1.2847 C.ar    1  LIG1       -0.0067
     41 C         -12.4296    9.0841   -1.3047 C.ar    1  LIG1        0.1356
     42 C         -12.7751    9.6841   -0.0874 C.ar    1  LIG1        0.0704
     43 N         -12.2449    9.3294    1.0788 N.ar    1  LIG1       -0.2424
     44 H         -11.2292    7.5504   -2.2117 H       1  LIG1        0.0662
     45 H         -13.5131   10.4876   -0.0636 H       1  LIG1        0.0867
     46 C         -10.7681    8.0276    2.3878 C.1     1  LIG1       -0.0491
     47 C         -10.2817    7.7944    3.4695 C.1     1  LIG1       -0.1124
     48 H          -9.8689    7.5763    4.4272 H       1  LIG1        0.1232
     49 O         -12.9653    9.4483   -2.4984 O.3     1  LIG1       -0.5052
     50 H         -13.6178   10.1489   -2.3605 H       1  LIG1        0.2922
@<TRIPOS>BOND
     1    11    10    1
     2    10     9    3
     3     9     1    1
     4    49    50    1
     5    49    41    1
     6    44    40    1
     7    23    22    1
     8    36    37    1
     9    36    29    1
    10    22    21    3
    11    41    40   ar
    12    41    42   ar
    13     1     6   ar
    14     1     2   ar
    15    40    39   ar
    16    32    28    1
    17     6     5   ar
    18    21    14    1
    19    29    28   ar
    20    29    30   ar
    21    28    27   ar
    22    14    19   ar
    23    14    15   ar
    24    19    18   ar
    25     8     2    1
    26     2     3   ar
    27    42    45    1
    28    42    43   ar
    29    39    30    1
    30    39    38   ar
    31    30    31   ar
    32     5    15    1
    33     5     4   ar
    34    27    18    1
    35    27    26   ar
    36    15    16   ar
    37    18    17   ar
    38    16    17   ar
    39    16    20    1
    40    17    24    1
    41    31    26   ar
    42    26    33    1
    43    43    38   ar
    44    25    24    1
    45     3     4   ar
    46     3     7    1
    47    38    46    1
    48     4    12    1
    49    33    34    3
    50    34    35    1
    51    13    12    1
    52    46    47    3
    53    47    48    1
