@<TRIPOS>MOLECULE
mol_data/opt/b3lyp/geoms/mol2/6ef6ef6ef6ef-.out
 50 53 0 0 0
SMALL
GASTEIGER

@<TRIPOS>ATOM
      1 C          -4.0125   -2.0449   -1.0584 C.ar    1  LIG1        0.1141
      2 C          -3.1018   -2.3884   -0.0415 C.ar    1  LIG1       -0.0243
      3 C          -2.9819   -1.5606    1.0631 C.ar    1  LIG1       -0.0154
      4 C          -3.7656   -0.4061    1.1300 C.ar    1  LIG1        0.1429
      5 C          -4.6481   -0.1281    0.0630 C.ar    1  LIG1        0.1164
      6 N          -4.7663   -0.9340   -0.9954 N.ar    1  LIG1       -0.2347
      7 H          -2.3025   -1.7865    1.8781 H       1  LIG1        0.0655
      8 H          -2.5097   -3.2926   -0.1290 H       1  LIG1        0.0646
      9 C          -4.1586   -2.8854   -2.2110 C.1     1  LIG1       -0.0498
     10 C          -4.2556   -3.6169   -3.1692 C.1     1  LIG1       -0.1124
     11 H          -4.3544   -4.2489   -4.0212 H       1  LIG1        0.1232
     12 O          -3.6404    0.3855    2.2278 O.3     1  LIG1       -0.5046
     13 H          -4.2873    1.1052    2.1766 H       1  LIG1        0.2922
     14 C          -6.9087    1.0529    0.0370 C.ar    1  LIG1        0.1233
     15 C          -5.4907    1.1043    0.0792 C.ar    1  LIG1        0.0413
     16 C          -4.8910    2.3631    0.1335 C.ar    1  LIG1       -0.0061
     17 C          -5.6790    3.5156    0.1179 C.ar    1  LIG1        0.1435
     18 C          -7.0797    3.3666    0.0480 C.ar    1  LIG1        0.1164
     19 N          -7.6604    2.1651    0.0202 N.ar    1  LIG1       -0.2340
     20 H          -3.8106    2.4694    0.1572 H       1  LIG1        0.0662
     21 C          -7.6139   -0.1947    0.0385 C.1     1  LIG1       -0.0491
     22 C          -8.2230   -1.2382    0.0649 C.1     1  LIG1       -0.1124
     23 H          -8.7555   -2.1609    0.0687 H       1  LIG1        0.1232
     24 O          -5.0472    4.7163    0.1748 O.3     1  LIG1       -0.5046
     25 H          -5.7096    5.4233    0.2061 H       1  LIG1        0.2922
     26 C          -8.9926    4.7875    0.9591 C.ar    1  LIG1        0.1233
     27 C          -7.9713    4.5606    0.0009 C.ar    1  LIG1        0.0413
     28 C          -7.8352    5.5063   -1.0122 C.ar    1  LIG1       -0.0061
     29 C          -8.6787    6.6222   -1.0857 C.ar    1  LIG1        0.1435
     30 C          -9.6811    6.7600   -0.0941 C.ar    1  LIG1        0.1164
     31 N          -9.8073    5.8472    0.8823 N.ar    1  LIG1       -0.2340
     32 H          -7.0989    5.3804   -1.8006 H       1  LIG1        0.0662
     33 C          -9.1947    3.9067    2.0719 C.1     1  LIG1       -0.0491
     34 C          -9.3643    3.1910    3.0310 C.1     1  LIG1       -0.1124
     35 H          -9.5208    2.5466    3.8650 H       1  LIG1        0.1232
     36 O          -8.5067    7.4264   -2.1593 O.3     1  LIG1       -0.5046
     37 H          -8.7462    8.3459   -1.9466 H       1  LIG1        0.2922
     38 C         -10.5658    9.1893   -0.3215 C.ar    1  LIG1        0.1226
     39 C         -10.7473    7.8066   -0.0837 C.ar    1  LIG1        0.0412
     40 C         -12.0449    7.3830    0.2350 C.ar    1  LIG1       -0.0067
     41 C         -13.0882    8.2997    0.2709 C.ar    1  LIG1        0.1356
     42 C         -12.8047    9.6467   -0.0161 C.ar    1  LIG1        0.0704
     43 N         -11.5842   10.0770   -0.2933 N.ar    1  LIG1       -0.2424
     44 H         -12.2091    6.3339    0.4616 H       1  LIG1        0.0662
     45 H         -13.6094   10.3781   -0.0042 H       1  LIG1        0.0867
     46 C          -9.2723    9.7593   -0.5662 C.1     1  LIG1       -0.0491
     47 C          -8.1815   10.2352   -0.7941 C.1     1  LIG1       -0.1124
     48 H          -7.2232   10.6678   -0.9710 H       1  LIG1        0.1232
     49 O         -14.3737    7.9753    0.5610 O.3     1  LIG1       -0.5052
     50 H         -14.4346    7.0298    0.7550 H       1  LIG1        0.2922
@<TRIPOS>BOND
     1    11    10    1
     2    10     9    3
     3     9     1    1
     4    36    37    1
     5    36    29    1
     6    32    28    1
     7    29    28   ar
     8    29    30   ar
     9     1     6   ar
    10     1     2   ar
    11    28    27   ar
    12     6     5   ar
    13    48    47    1
    14    47    46    3
    15    46    38    1
    16    38    43   ar
    17    38    39   ar
    18    43    42   ar
    19     8     2    1
    20    30    39    1
    21    30    31   ar
    22    39    40   ar
    23     2     3   ar
    24    42    45    1
    25    42    41   ar
    26    27    18    1
    27    27    26   ar
    28    19    14   ar
    29    19    18   ar
    30    14    21    1
    31    14    15   ar
    32    21    22    3
    33    18    17   ar
    34     5    15    1
    35     5     4   ar
    36    22    23    1
    37    15    16   ar
    38    17    16   ar
    39    17    24    1
    40    16    20    1
    41    24    25    1
    42    40    41   ar
    43    40    44    1
    44    41    49    1
    45    49    50    1
    46    31    26   ar
    47    26    33    1
    48     3     4   ar
    49     3     7    1
    50     4    12    1
    51    33    34    3
    52    13    12    1
    53    34    35    1
