@<TRIPOS>MOLECULE
mol_data/opt/b3lyp/geoms/mol2/6ef6ef-12ai-12ea-.out
 45 48 0 0 0
SMALL
GASTEIGER

@<TRIPOS>ATOM
      1 C          -4.1877   -2.1978    0.3558 C.ar    1  LIG1        0.1141
      2 C          -2.9066   -2.1531   -0.2254 C.ar    1  LIG1       -0.0243
      3 C          -2.4535   -0.9601   -0.7654 C.ar    1  LIG1       -0.0154
      4 C          -3.2817    0.1634   -0.7105 C.ar    1  LIG1        0.1429
      5 C          -4.5502    0.0377   -0.1013 C.ar    1  LIG1        0.1164
      6 N          -4.9848   -1.1171    0.4102 N.ar    1  LIG1       -0.2347
      7 H          -1.4788   -0.8761   -1.2341 H       1  LIG1        0.0655
      8 H          -2.2919   -3.0462   -0.2485 H       1  LIG1        0.0646
      9 C          -4.6822   -3.4201    0.9199 C.1     1  LIG1       -0.0498
     10 C          -5.0668   -4.4673    1.3866 C.1     1  LIG1       -0.1124
     11 H          -5.4228   -5.3809    1.8032 H       1  LIG1        0.1232
     12 O          -2.8219    1.3198   -1.2573 O.3     1  LIG1       -0.5046
     13 H          -3.5202    1.9903   -1.2140 H       1  LIG1        0.2922
     14 C          -6.7657    1.2210   -0.5590 C.ar    1  LIG1        0.1234
     15 C          -5.4594    1.2166   -0.0012 C.ar    1  LIG1        0.0413
     16 C          -5.0456    2.3653    0.6777 C.ar    1  LIG1       -0.0060
     17 C          -5.9000    3.4609    0.7892 C.ar    1  LIG1        0.1465
     18 C          -7.1721    3.3840    0.1772 C.ar    1  LIG1        0.1486
     19 N          -7.5807    2.2815   -0.4628 N.ar    1  LIG1       -0.2310
     20 H          -4.0793    2.4071    1.1711 H       1  LIG1        0.0662
     21 C          -7.2672    0.0997   -1.2982 C.1     1  LIG1       -0.0491
     22 C          -7.6966   -0.8255   -1.9462 C.1     1  LIG1       -0.1124
     23 H          -8.0779   -1.6508   -2.5016 H       1  LIG1        0.1232
     24 O          -5.4702    4.5394    1.4950 O.3     1  LIG1       -0.5045
     25 H          -6.2363    5.0972    1.7070 H       1  LIG1        0.2922
     26 C          -8.0952    4.5186    0.2351 C.ar    1  LIG1        0.1578
     27 C          -7.9069    5.8820    0.2906 C.ar    1  LIG1       -0.0106
     28 C          -9.1981    6.4930    0.3171 C.ar    1  LIG1       -0.0009
     29 C         -10.0933    5.4460    0.2628 C.ar    1  LIG1        0.1747
     30 O          -9.4268    4.2479    0.2196 O.2     1  LIG1       -0.4498
     31 H          -6.9600    6.4040    0.2507 H       1  LIG1        0.0659
     32 C          -9.4861    7.9590    0.4258 C.3     1  LIG1       -0.0360
     33 H         -10.4464    8.1389    0.9147 H       1  LIG1        0.0279
     34 H          -9.5348    8.4375   -0.5580 H       1  LIG1        0.0279
     35 H          -8.7052    8.4603    1.0056 H       1  LIG1        0.0279
     36 C         -11.5331    5.3726    0.2691 C.ar    1  LIG1        0.1852
     37 C         -12.5338    6.1648   -0.2708 C.ar    1  LIG1        0.0734
     38 C         -13.7769    5.5441    0.1136 C.ar    1  LIG1       -0.0077
     39 C         -13.4469    4.4374    0.8254 C.ar    1  LIG1        0.0939
     40 O         -12.0942    4.3182    0.9325 O.2     1  LIG1       -0.4586
     41 H         -14.0245    3.6601    1.3004 H       1  LIG1        0.1030
     42 C         -12.3930    7.3008   -1.1062 C.1     1  LIG1       -0.0658
     43 C         -12.3120    8.2649   -1.8339 C.1     1  LIG1       -0.1138
     44 H         -12.2375    9.1044   -2.4855 H       1  LIG1        0.1232
     45 H         -14.7674    5.8902   -0.1403 H       1  LIG1        0.0661
@<TRIPOS>BOND
     1    23    22    1
     2    44    43    1
     3    22    21    3
     4    43    42    3
     5    21    14    1
     6    12    13    1
     7    12     4    1
     8     7     3    1
     9    42    37    1
    10     3     4   ar
    11     3     2   ar
    12     4     5   ar
    13    14    19   ar
    14    14    15   ar
    15    34    32    1
    16    19    18   ar
    17    37    38   ar
    18    37    36   ar
    19     8     2    1
    20     2     1   ar
    21    45    38    1
    22     5    15    1
    23     5     6   ar
    24    15    16   ar
    25    38    39   ar
    26    18    26    1
    27    18    17   ar
    28    30    26   ar
    29    30    29   ar
    30    26    27   ar
    31    31    27    1
    32    29    36    1
    33    29    28   ar
    34    36    40   ar
    35    27    28   ar
    36    28    32    1
    37     1     6   ar
    38     1     9    1
    39    32    33    1
    40    32    35    1
    41    16    17   ar
    42    16    20    1
    43    17    24    1
    44    39    40   ar
    45    39    41    1
    46     9    10    3
    47    10    11    1
    48    24    25    1
