@<TRIPOS>MOLECULE
mol_data/opt/b3lyp/geoms/mol2/6ef6ef-6ef-6ef-.out
 50 53 0 0 0
SMALL
GASTEIGER

@<TRIPOS>ATOM
      1 C          -4.5463   -2.2612    0.2586 C.ar    1  LIG1        0.1141
      2 C          -3.2274   -2.4760   -0.1820 C.ar    1  LIG1       -0.0243
      3 C          -2.4800   -1.3820   -0.5763 C.ar    1  LIG1       -0.0154
      4 C          -3.0319   -0.0947   -0.5224 C.ar    1  LIG1        0.1429
      5 C          -4.3662    0.0397   -0.0601 C.ar    1  LIG1        0.1164
      6 N          -5.0861   -1.0354    0.3042 N.ar    1  LIG1       -0.2347
      7 H          -1.4624   -1.4850   -0.9379 H       1  LIG1        0.0655
      8 H          -2.8182   -3.4798   -0.2109 H       1  LIG1        0.0646
      9 C          -5.3660   -3.3658    0.6654 C.1     1  LIG1       -0.0498
     10 C          -6.0308   -4.3190    1.0004 C.1     1  LIG1       -0.1124
     11 H          -6.6251   -5.1503    1.3021 H       1  LIG1        0.1232
     12 O          -2.2560    0.9076   -0.9988 O.3     1  LIG1       -0.5046
     13 H          -2.4343    1.7402   -0.5270 H       1  LIG1        0.2922
     14 C          -4.6915    2.5785    0.3999 C.ar    1  LIG1        0.1233
     15 C          -5.1451    1.3137   -0.0438 C.ar    1  LIG1        0.0413
     16 C          -6.4785    1.2512   -0.4643 C.ar    1  LIG1       -0.0061
     17 C          -7.2779    2.3862   -0.4745 C.ar    1  LIG1        0.1435
     18 C          -6.7201    3.6186   -0.0558 C.ar    1  LIG1        0.1164
     19 N          -5.4630    3.6800    0.3767 N.ar    1  LIG1       -0.2340
     20 H          -6.8777    0.2901   -0.7753 H       1  LIG1        0.0662
     21 C          -3.3833    2.7679    0.9589 C.1     1  LIG1       -0.0491
     22 C          -2.2719    2.9255    1.4144 C.1     1  LIG1       -0.1124
     23 H          -1.3047    3.0682    1.8395 H       1  LIG1        0.1232
     24 O          -8.5763    2.3600   -0.8855 O.3     1  LIG1       -0.5046
     25 H          -8.8002    1.4623   -1.1681 H       1  LIG1        0.2922
     26 C          -6.9909    6.0816   -0.6238 C.ar    1  LIG1        0.1233
     27 C          -7.4995    4.8849   -0.0615 C.ar    1  LIG1        0.0413
     28 C          -8.7672    4.9424    0.5191 C.ar    1  LIG1       -0.0061
     29 C          -9.4713    6.1418    0.5579 C.ar    1  LIG1        0.1435
     30 C          -8.8764    7.2951    0.0008 C.ar    1  LIG1        0.1164
     31 N          -7.6761    7.2366   -0.5779 N.ar    1  LIG1       -0.2340
     32 H          -9.2029    4.0459    0.9513 H       1  LIG1        0.0662
     33 C          -5.7404    6.1268   -1.3248 C.1     1  LIG1       -0.0491
     34 C          -4.7110    6.1954   -1.9547 C.1     1  LIG1       -0.1124
     35 H          -3.7953    6.2592   -2.4950 H       1  LIG1        0.1232
     36 O         -10.7078    6.2456    1.1257 O.3     1  LIG1       -0.5046
     37 H         -10.9511    5.3935    1.5126 H       1  LIG1        0.2922
     38 C          -8.9075    9.7879    0.4887 C.ar    1  LIG1        0.1226
     39 C          -9.5569    8.6194    0.0209 C.ar    1  LIG1        0.0412
     40 C         -10.8658    8.7462   -0.4522 C.ar    1  LIG1       -0.0067
     41 C         -11.4745    9.9977   -0.4723 C.ar    1  LIG1        0.1356
     42 C         -10.7427   11.0989   -0.0067 C.ar    1  LIG1        0.0704
     43 N          -9.5063   10.9973    0.4648 N.ar    1  LIG1       -0.2424
     44 H         -11.3998    7.8683   -0.8050 H       1  LIG1        0.0662
     45 H         -11.1976   12.0869   -0.0213 H       1  LIG1        0.0867
     46 C          -7.5935    9.7515    1.0609 C.1     1  LIG1       -0.0491
     47 C          -6.5016    9.7500    1.5796 C.1     1  LIG1       -0.1124
     48 H          -5.5291    9.7402    2.0140 H       1  LIG1        0.1232
     49 O         -12.7408   10.2186   -0.9243 O.3     1  LIG1       -0.5052
     50 H         -13.1299    9.3809   -1.2092 H       1  LIG1        0.2922
@<TRIPOS>BOND
     1    35    34    1
     2    34    33    3
     3    33    26    1
     4    50    49    1
     5    25    24    1
     6    12    13    1
     7    12     4    1
     8     7     3    1
     9    49    41    1
    10    24    17    1
    11    44    40    1
    12    20    16    1
    13    26    31   ar
    14    26    27   ar
    15    31    30   ar
    16     3     4   ar
    17     3     2   ar
    18     4     5   ar
    19    17    16   ar
    20    17    18   ar
    21    41    40   ar
    22    41    42   ar
    23    16    15   ar
    24    40    39   ar
    25     8     2    1
    26     2     1   ar
    27    27    18    1
    28    27    28   ar
    29     5    15    1
    30     5     6   ar
    31    18    19   ar
    32    15    14   ar
    33    45    42    1
    34    42    43   ar
    35    30    39    1
    36    30    29   ar
    37    39    38   ar
    38     1     6   ar
    39     1     9    1
    40    19    14   ar
    41    14    21    1
    42    43    38   ar
    43    38    46    1
    44    28    29   ar
    45    28    32    1
    46    29    36    1
    47     9    10    3
    48    21    22    3
    49    10    11    1
    50    46    47    3
    51    36    37    1
    52    22    23    1
    53    47    48    1
