@<TRIPOS>MOLECULE
mol_data/opt/b3lyp/geoms/mol2/6ef6dl13hl13de-.out
 53 56 0 0 0
SMALL
GASTEIGER

@<TRIPOS>ATOM
      1 C          -4.5482   -2.2276   -0.6779 C.ar    1  LIG1        0.1141
      2 C          -3.3594   -2.4916    0.0287 C.ar    1  LIG1       -0.0243
      3 C          -2.8229   -1.5023    0.8374 C.ar    1  LIG1       -0.0154
      4 C          -3.4727   -0.2693    0.9191 C.ar    1  LIG1        0.1429
      5 C          -4.6459   -0.0725    0.1567 C.ar    1  LIG1        0.1164
      6 N          -5.1668   -1.0372   -0.6092 N.ar    1  LIG1       -0.2347
      7 H          -1.9214   -1.6638    1.4189 H       1  LIG1        0.0655
      8 H          -2.8833   -3.4619   -0.0581 H       1  LIG1        0.0646
      9 C          -5.1321   -3.2362   -1.5123 C.1     1  LIG1       -0.0498
     10 C          -5.5959   -4.1090   -2.2086 C.1     1  LIG1       -0.1124
     11 H          -6.0250   -4.8671   -2.8221 H       1  LIG1        0.1232
     12 O          -2.9388    0.6791    1.7384 O.3     1  LIG1       -0.5046
     13 H          -3.5724    1.4050    1.8375 H       1  LIG1        0.2922
     14 C          -6.7452    1.3441    0.3774 C.ar    1  LIG1        0.1503
     15 C          -5.3595    1.2317    0.1725 C.ar    1  LIG1        0.0433
     16 C          -4.6755    2.4359   -0.0838 C.ar    1  LIG1       -0.0057
     17 C          -5.3487    3.6503   -0.1163 C.ar    1  LIG1        0.1481
     18 C          -6.7457    3.6777    0.1811 C.ar    1  LIG1        0.1320
     19 N          -7.3943    2.5143    0.3859 N.ar    1  LIG1       -0.2305
     20 H          -3.6187    2.3925   -0.3180 H       1  LIG1        0.0662
     21 N          -8.2895   -0.6826    0.9176 N.1     1  LIG1       -0.1893
     22 C          -7.5759    0.1953    0.6519 C.1     1  LIG1        0.1198
     23 O          -4.7549    4.8248   -0.4701 O.3     1  LIG1       -0.4929
     24 C          -3.3971    4.8034   -0.9103 C.3     1  LIG1        0.0789
     25 H          -3.1632    5.8274   -1.2025 H       1  LIG1        0.0660
     26 H          -2.7198    4.4920   -0.1069 H       1  LIG1        0.0660
     27 H          -3.2742    4.1414   -1.7743 H       1  LIG1        0.0660
     28 C          -7.5889    4.8525    0.2372 C.ar    1  LIG1        0.0937
     29 C          -7.4098    6.2481    0.3235 C.ar    1  LIG1        0.0948
     30 C          -8.7088    6.8351    0.3036 C.ar    1  LIG1        0.1679
     31 C          -9.6556    5.8113    0.2619 C.ar    1  LIG1        0.1088
     32 N          -8.9620    4.6285    0.2556 N.ar    1  LIG1       -0.3473
     33 H          -9.3307    3.7144    0.0381 H       1  LIG1        0.1662
     34 N          -6.2619    6.9693    0.5788 N.pl3   1  LIG1       -0.3534
     35 H          -5.4087    6.5889    0.1983 H       1  LIG1        0.1425
     36 H          -6.3660    7.9700    0.5113 H       1  LIG1        0.1425
     37 O          -8.9598    8.1697    0.4606 O.3     1  LIG1       -0.4911
     38 C          -8.6854    8.9808   -0.6956 C.3     1  LIG1        0.0790
     39 H          -8.9009   10.0086   -0.4008 H       1  LIG1        0.0660
     40 H          -7.6341    8.9011   -1.0004 H       1  LIG1        0.0660
     41 H          -9.3302    8.7056   -1.5328 H       1  LIG1        0.0660
     42 C         -11.0976    5.8109    0.3762 C.ar    1  LIG1        0.0854
     43 C         -12.1041    6.6525   -0.1029 C.ar    1  LIG1        0.0938
     44 C         -13.3740    6.1162    0.3309 C.ar    1  LIG1        0.0600
     45 C         -13.0916    4.9706    1.0504 C.ar    1  LIG1        0.0190
     46 N         -11.7335    4.7966    1.0598 N.ar    1  LIG1       -0.3573
     47 H         -11.2433    4.1028    1.6042 H       1  LIG1        0.1655
     48 H         -13.7579    4.2844    1.5488 H       1  LIG1        0.0820
     49 N         -11.8390    8.7128   -1.6330 N.1     1  LIG1       -0.1908
     50 C         -11.9435    7.7877   -0.9327 C.1     1  LIG1        0.1026
     51 C         -14.6573    6.6521    0.0597 C.1     1  LIG1       -0.0669
     52 C         -15.7494    7.1159   -0.1753 C.1     1  LIG1       -0.1138
     53 H         -16.7075    7.5307   -0.3869 H       1  LIG1        0.1232
@<TRIPOS>BOND
     1    11    10    1
     2    10     9    3
     3    27    24    1
     4    49    50    3
     5    41    38    1
     6     9     1    1
     7    25    24    1
     8    40    38    1
     9    50    43    1
    10    24    23    1
    11    24    26    1
    12    38    39    1
    13    38    37    1
    14     1     6   ar
    15     1     2   ar
    16     6     5   ar
    17    23    17    1
    18    53    52    1
    19    20    16    1
    20    52    51    3
    21    17    16   ar
    22    17    18   ar
    23    43    44   ar
    24    43    42   ar
    25    16    15   ar
    26     8     2    1
    27     2     3   ar
    28    33    32    1
    29    51    44    1
    30     5    15    1
    31     5     4   ar
    32    15    14   ar
    33    18    28    1
    34    18    19   ar
    35    35    34    1
    36    28    32   ar
    37    28    29   ar
    38    32    31   ar
    39    31    30   ar
    40    31    42    1
    41    30    29   ar
    42    30    37    1
    43    29    34    1
    44    44    45   ar
    45    42    46   ar
    46    14    19   ar
    47    14    22    1
    48    36    34    1
    49    22    21    3
    50     3     4   ar
    51     3     7    1
    52     4    12    1
    53    45    46   ar
    54    45    48    1
    55    46    47    1
    56    12    13    1
