@<TRIPOS>MOLECULE
mol_data/opt/b3lyp/geoms/mol2/6ef6ef-6ef6ef-.out
 50 53 0 0 0
SMALL
GASTEIGER

@<TRIPOS>ATOM
      1 C          -4.0707   -1.9992    0.9476 C.ar    1  LIG1        0.1141
      2 C          -3.3924   -2.5609   -0.1496 C.ar    1  LIG1       -0.0243
      3 C          -3.3010   -1.8212   -1.3140 C.ar    1  LIG1       -0.0154
      4 C          -3.8657   -0.5404   -1.3816 C.ar    1  LIG1        0.1429
      5 C          -4.5289   -0.0424   -0.2307 C.ar    1  LIG1        0.1164
      6 N          -4.6231   -0.7796    0.8889 N.ar    1  LIG1       -0.2347
      7 H          -2.8016   -2.2048   -2.1975 H       1  LIG1        0.0655
      8 H          -2.9583   -3.5516   -0.0743 H       1  LIG1        0.0646
      9 C          -4.2029   -2.7323    2.1735 C.1     1  LIG1       -0.0498
     10 C          -4.2975   -3.3771    3.1923 C.1     1  LIG1       -0.1124
     11 H          -4.3849   -3.9326    4.0972 H       1  LIG1        0.1232
     12 O          -3.7941    0.0813   -2.5830 O.3     1  LIG1       -0.5046
     13 H          -3.7310    1.0459   -2.4716 H       1  LIG1        0.2922
     14 C          -4.8491    2.4994   -0.6624 C.ar    1  LIG1        0.1233
     15 C          -5.2801    1.2471   -0.1652 C.ar    1  LIG1        0.0413
     16 C          -6.5090    1.2372    0.5049 C.ar    1  LIG1       -0.0061
     17 C          -7.2717    2.3930    0.6124 C.ar    1  LIG1        0.1435
     18 C          -6.7960    3.5791    0.0036 C.ar    1  LIG1        0.1164
     19 N          -5.5998    3.6150   -0.5785 N.ar    1  LIG1       -0.2340
     20 H          -6.8398    0.3103    0.9640 H       1  LIG1        0.0662
     21 C          -3.5552    2.6819   -1.2547 C.1     1  LIG1       -0.0491
     22 C          -2.4689    2.8259   -1.7715 C.1     1  LIG1       -0.1124
     23 H          -1.5043    2.9650   -2.2037 H       1  LIG1        0.1232
     24 O          -8.4366    2.4478    1.3018 O.3     1  LIG1       -0.5046
     25 H          -8.6563    1.5690    1.6404 H       1  LIG1        0.2922
     26 C          -8.8854    4.9935   -0.4302 C.ar    1  LIG1        0.1233
     27 C          -7.5579    4.8566    0.0464 C.ar    1  LIG1        0.0413
     28 C          -6.9363    6.0031    0.5250 C.ar    1  LIG1       -0.0061
     29 C          -7.6167    7.2223    0.5885 C.ar    1  LIG1        0.1435
     30 C          -8.9593    7.2586    0.1355 C.ar    1  LIG1        0.1164
     31 N          -9.5375    6.1618   -0.3778 N.ar    1  LIG1       -0.2340
     32 H          -5.9054    5.9694    0.8590 H       1  LIG1        0.0662
     33 C          -9.5790    3.9122   -1.0695 C.1     1  LIG1       -0.0491
     34 C         -10.1582    3.0181   -1.6419 C.1     1  LIG1       -0.1124
     35 H         -10.6756    2.2327   -2.1422 H       1  LIG1        0.1232
     36 O          -6.8975    8.2898    1.0120 O.3     1  LIG1       -0.5046
     37 H          -7.4631    8.9151    1.4976 H       1  LIG1        0.2922
     38 C          -9.9425    9.4852    1.0355 C.ar    1  LIG1        0.1226
     39 C          -9.8060    8.4859    0.0429 C.ar    1  LIG1        0.0412
     40 C         -10.5717    8.6420   -1.1209 C.ar    1  LIG1       -0.0067
     41 C         -11.3868    9.7559   -1.2759 C.ar    1  LIG1        0.1356
     42 C         -11.4215   10.7082   -0.2426 C.ar    1  LIG1        0.0704
     43 N         -10.7304   10.5720    0.8781 N.ar    1  LIG1       -0.2424
     44 H         -10.5192    7.8705   -1.8832 H       1  LIG1        0.0662
     45 H         -12.0444   11.5932   -0.3495 H       1  LIG1        0.0867
     46 C          -9.2853    9.3916    2.3071 C.1     1  LIG1       -0.0491
     47 C          -8.7118    9.3186    3.3719 C.1     1  LIG1       -0.1124
     48 H          -8.2303    9.2460    4.3202 H       1  LIG1        0.1232
     49 O         -12.1526    9.9879   -2.3737 O.3     1  LIG1       -0.5052
     50 H         -12.0540    9.2545   -2.9963 H       1  LIG1        0.2922
@<TRIPOS>BOND
     1    50    49    1
     2    12    13    1
     3    12     4    1
     4    49    41    1
     5    23    22    1
     6     7     3    1
     7    35    34    1
     8    44    40    1
     9    22    21    3
    10    34    33    3
    11     4     3   ar
    12     4     5   ar
    13     3     2   ar
    14    41    40   ar
    15    41    42   ar
    16    21    14    1
    17    40    39   ar
    18    33    26    1
    19    14    19   ar
    20    14    15   ar
    21    19    18   ar
    22    26    31   ar
    23    26    27   ar
    24    31    30   ar
    25    45    42    1
    26    42    43   ar
    27     5    15    1
    28     5     6   ar
    29    15    16   ar
    30     2     8    1
    31     2     1   ar
    32    18    27    1
    33    18    17   ar
    34    39    30    1
    35    39    38   ar
    36    27    28   ar
    37    30    29   ar
    38    16    17   ar
    39    16    20    1
    40    28    29   ar
    41    28    32    1
    42    29    36    1
    43    17    24    1
    44    43    38   ar
    45     6     1   ar
    46     1     9    1
    47    36    37    1
    48    38    46    1
    49    24    25    1
    50     9    10    3
    51    46    47    3
    52    10    11    1
    53    47    48    1
