@<TRIPOS>MOLECULE
mol_data/opt/b3lyp/geoms/mol2/6ef6ef.out
 26 27 0 0 0
SMALL
GASTEIGER

@<TRIPOS>ATOM
      1 C          -4.4203   -2.0644   -0.5292 C.ar    1  LIG1        0.1141
      2 C          -3.1659   -2.1277    0.1061 C.ar    1  LIG1       -0.0243
      3 C          -2.6694   -0.9949    0.7308 C.ar    1  LIG1       -0.0154
      4 C          -3.4283    0.1776    0.7051 C.ar    1  LIG1        0.1429
      5 C          -4.6732    0.1601    0.0386 C.ar    1  LIG1        0.1164
      6 N          -5.1509   -0.9365   -0.5550 N.ar    1  LIG1       -0.2347
      7 H          -1.7130   -0.9950    1.2430 H       1  LIG1        0.0655
      8 H          -2.6053   -3.0559    0.1045 H       1  LIG1        0.0646
      9 C          -4.9588   -3.2226   -1.1811 C.1     1  LIG1       -0.0498
     10 C          -5.3824   -4.2182   -1.7214 C.1     1  LIG1       -0.1124
     11 H          -5.7719   -5.0851   -2.2028 H       1  LIG1        0.1232
     12 O          -2.9274    1.2742    1.3333 O.3     1  LIG1       -0.5046
     13 H          -3.5828    1.9871    1.2982 H       1  LIG1        0.2922
     14 C          -6.8236    1.4476    0.5043 C.ar    1  LIG1        0.1226
     15 C          -5.5104    1.3952   -0.0323 C.ar    1  LIG1        0.0412
     16 C          -5.0073    2.5440   -0.6481 C.ar    1  LIG1       -0.0067
     17 C          -5.8064    3.6858   -0.7345 C.ar    1  LIG1        0.1356
     18 C          -7.0945    3.6306   -0.1890 C.ar    1  LIG1        0.0704
     19 N          -7.5873    2.5528    0.4132 N.ar    1  LIG1       -0.2424
     20 H          -4.0173    2.5530   -1.0940 H       1  LIG1        0.0662
     21 H          -7.7500    4.5015   -0.2443 H       1  LIG1        0.0867
     22 C          -7.3938    0.3328    1.2003 C.1     1  LIG1       -0.0491
     23 C          -7.8797   -0.5888    1.8131 C.1     1  LIG1       -0.1124
     24 H          -8.3111   -1.4102    2.3367 H       1  LIG1        0.1232
     25 O          -5.2984    4.7881   -1.3464 O.3     1  LIG1       -0.5052
     26 H          -5.9658    5.4882   -1.3550 H       1  LIG1        0.2922
@<TRIPOS>BOND
     1    11    10    1
     2    10     9    3
     3    26    25    1
     4    25    17    1
     5     9     1    1
     6    20    16    1
     7    17    16   ar
     8    17    18   ar
     9    16    15   ar
    10     6     1   ar
    11     6     5   ar
    12     1     2   ar
    13    21    18    1
    14    18    19   ar
    15    15     5    1
    16    15    14   ar
    17     5     4   ar
    18     8     2    1
    19     2     3   ar
    20    19    14   ar
    21    14    22    1
    22     4     3   ar
    23     4    12    1
    24     3     7    1
    25    22    23    3
    26    13    12    1
    27    23    24    1
