@<TRIPOS>MOLECULE
mol_data/opt/b3lyp/geoms/mol2/6ef6ef-4ef6ef.out
 51 54 0 0 0
SMALL
GASTEIGER

@<TRIPOS>ATOM
      1 C          -4.2840   -2.1327    0.5773 C.ar    1  LIG1        0.1141
      2 C          -3.1549   -2.4342   -0.2060 C.ar    1  LIG1       -0.0243
      3 C          -2.6243   -1.4376   -1.0040 C.ar    1  LIG1       -0.0154
      4 C          -3.2005   -0.1603   -1.0133 C.ar    1  LIG1        0.1429
      5 C          -4.3337    0.0664   -0.1906 C.ar    1  LIG1        0.1164
      6 N          -4.8483   -0.9171    0.5671 N.ar    1  LIG1       -0.2347
      7 H          -1.7629   -1.6123   -1.6401 H       1  LIG1        0.0655
      8 H          -2.7215   -3.4278   -0.1797 H       1  LIG1        0.0646
      9 C          -4.8789   -3.1364    1.4118 C.1     1  LIG1       -0.0498
     10 C          -5.3566   -4.0055    2.1040 C.1     1  LIG1       -0.1124
     11 H          -5.7850   -4.7603    2.7221 H       1  LIG1        0.1232
     12 O          -2.6640    0.7316   -1.8802 O.3     1  LIG1       -0.5046
     13 H          -2.7235    1.6372   -1.5273 H       1  LIG1        0.2922
     14 C          -4.6365    2.6484   -0.1128 C.ar    1  LIG1        0.1233
     15 C          -5.1361    1.3261   -0.1623 C.ar    1  LIG1        0.0413
     16 C          -6.5292    1.1945   -0.1360 C.ar    1  LIG1       -0.0061
     17 C          -7.3528    2.3119   -0.1039 C.ar    1  LIG1        0.1435
     18 C          -6.7597    3.5990   -0.0939 C.ar    1  LIG1        0.1149
     19 N          -5.4357    3.7304   -0.0895 N.ar    1  LIG1       -0.2341
     20 H          -6.9531    0.1946   -0.1217 H       1  LIG1        0.0662
     21 C          -3.2315    2.9323   -0.0373 C.1     1  LIG1       -0.0491
     22 C          -2.0435    3.1657    0.0055 C.1     1  LIG1       -0.1124
     23 H          -1.0011    3.3796    0.0707 H       1  LIG1        0.1232
     24 O          -8.7102    2.2137   -0.0788 O.3     1  LIG1       -0.5046
     25 H          -8.9577    1.2812   -0.0075 H       1  LIG1        0.2922
     26 C          -7.2978    5.8953    0.8337 C.ar    1  LIG1        0.0348
     27 C          -8.0765    7.0647    0.7634 C.ar    1  LIG1       -0.0344
     28 C          -7.5697    4.8480   -0.0797 C.ar    1  LIG1        0.0228
     29 C          -9.1051    7.2336   -0.1628 C.ar    1  LIG1        0.0275
     30 H          -7.8799    7.8578    1.4770 H       1  LIG1        0.0637
     31 C          -8.5979    5.0142   -1.0114 C.ar    1  LIG1       -0.0091
     32 C          -9.3543    6.1848   -1.0687 C.ar    1  LIG1        0.1253
     33 H          -8.8055    4.2163   -1.7187 H       1  LIG1        0.0661
     34 C          -6.3073    5.8019    1.8594 C.1     1  LIG1       -0.0690
     35 C          -5.5121    5.7838    2.7712 C.1     1  LIG1       -0.1139
     36 H          -4.7907    5.7463    3.5538 H       1  LIG1        0.1232
     37 O         -10.3208    6.3756   -2.0083 O.3     1  LIG1       -0.5061
     38 H         -10.4483    5.5579   -2.5068 H       1  LIG1        0.2922
     39 C         -11.2757    8.5524    0.0675 C.ar    1  LIG1        0.1211
     40 C          -9.8827    8.5019   -0.2002 C.ar    1  LIG1        0.0229
     41 C          -9.2282    9.7032   -0.4705 C.ar    1  LIG1       -0.0082
     42 C          -9.9538   10.8944   -0.4891 C.ar    1  LIG1        0.1355
     43 C         -11.3288   10.8354   -0.2340 C.ar    1  LIG1        0.0704
     44 N         -11.9709    9.7046    0.0418 N.ar    1  LIG1       -0.2425
     45 H          -8.1642    9.7201   -0.6816 H       1  LIG1        0.0661
     46 H         -11.9287   11.7472   -0.2500 H       1  LIG1        0.0867
     47 C         -12.0109    7.3742    0.4251 C.1     1  LIG1       -0.0492
     48 C         -12.6319    6.3895    0.7519 C.1     1  LIG1       -0.1124
     49 H         -13.1841    5.5258    1.0413 H       1  LIG1        0.1232
     50 O          -9.2939   12.0539   -0.7596 O.3     1  LIG1       -0.5052
     51 H          -9.9219   12.7891   -0.7447 H       1  LIG1        0.2922
@<TRIPOS>BOND
     1    38    37    1
     2    37    32    1
     3    12    13    1
     4    12     4    1
     5    33    31    1
     6     7     3    1
     7    32    31   ar
     8    32    29   ar
     9     4     3   ar
    10     4     5   ar
    11    31    28   ar
    12     3     2   ar
    13    50    51    1
    14    50    42    1
    15    45    41    1
    16    42    41   ar
    17    42    43   ar
    18    41    40   ar
    19    46    43    1
    20    43    44   ar
    21     2     8    1
    22     2     1   ar
    23    40    29    1
    24    40    39   ar
    25     5    15    1
    26     5     6   ar
    27    29    27   ar
    28    15    16   ar
    29    15    14   ar
    30    16    20    1
    31    16    17   ar
    32    14    19   ar
    33    14    21    1
    34    17    18   ar
    35    17    24    1
    36    18    19   ar
    37    18    28    1
    38    28    26   ar
    39    24    25    1
    40    21    22    3
    41    22    23    1
    42    44    39   ar
    43    39    47    1
    44    47    48    3
    45     6     1   ar
    46     1     9    1
    47    48    49    1
    48    27    26   ar
    49    27    30    1
    50    26    34    1
    51     9    10    3
    52    34    35    3
    53    10    11    1
    54    35    36    1
