@<TRIPOS>MOLECULE
mol_data/opt/b3lyp/geoms/mol2/6ef6ef6ef-6ef.out
 50 53 0 0 0
SMALL
GASTEIGER

@<TRIPOS>ATOM
      1 C          -3.8225   -1.9442   -0.9072 C.ar    1  LIG1        0.1141
      2 C          -3.2289   -2.4610    0.2599 C.ar    1  LIG1       -0.0243
      3 C          -3.3881   -1.7781    1.4548 C.ar    1  LIG1       -0.0154
      4 C          -4.1274   -0.5928    1.4632 C.ar    1  LIG1        0.1429
      5 C          -4.6811   -0.1354    0.2466 C.ar    1  LIG1        0.1164
      6 N          -4.5329   -0.8037   -0.9007 N.ar    1  LIG1       -0.2347
      7 H          -2.9608   -2.1405    2.3838 H       1  LIG1        0.0655
      8 H          -2.6608   -3.3836    0.2148 H       1  LIG1        0.0646
      9 C          -3.6775   -2.6324   -2.1569 C.1     1  LIG1       -0.0498
     10 C          -3.5346   -3.2385   -3.1936 C.1     1  LIG1       -0.1124
     11 H          -3.4185   -3.7584   -4.1162 H       1  LIG1        0.1232
     12 O          -4.2810    0.0502    2.6507 O.3     1  LIG1       -0.5046
     13 H          -4.8691    0.8106    2.5284 H       1  LIG1        0.2922
     14 C          -6.7974    1.1904   -0.2808 C.ar    1  LIG1        0.1233
     15 C          -5.4619    1.1344    0.1968 C.ar    1  LIG1        0.0413
     16 C          -4.8950    2.3341    0.6188 C.ar    1  LIG1       -0.0061
     17 C          -5.6021    3.5411    0.5481 C.ar    1  LIG1        0.1435
     18 C          -6.9210    3.5065    0.0326 C.ar    1  LIG1        0.1164
     19 N          -7.4747    2.3430   -0.3461 N.ar    1  LIG1       -0.2340
     20 H          -3.8739    2.3722    0.9863 H       1  LIG1        0.0662
     21 C          -7.5092    0.0103   -0.6754 C.1     1  LIG1       -0.0491
     22 C          -8.1365   -0.9754   -0.9850 C.1     1  LIG1       -0.1124
     23 H          -8.6733   -1.8480   -1.2773 H       1  LIG1        0.1232
     24 O          -4.9745    4.6286    1.0534 O.3     1  LIG1       -0.5046
     25 H          -5.2258    5.4330    0.5649 H       1  LIG1        0.2922
     26 C          -7.5382    5.9815   -0.4504 C.ar    1  LIG1        0.1233
     27 C          -7.8552    4.6691   -0.0288 C.ar    1  LIG1        0.0413
     28 C          -9.1931    4.4332    0.3100 C.ar    1  LIG1       -0.0061
     29 C         -10.1264    5.4613    0.2833 C.ar    1  LIG1        0.1435
     30 C          -9.6918    6.7636   -0.0632 C.ar    1  LIG1        0.1164
     31 N          -8.4386    6.9838   -0.4521 N.ar    1  LIG1       -0.2340
     32 H          -9.4902    3.4208    0.5667 H       1  LIG1        0.0662
     33 C          -6.2411    6.3306   -0.9542 C.1     1  LIG1       -0.0491
     34 C          -5.1386    6.6238   -1.3626 C.1     1  LIG1       -0.1124
     35 H          -4.1786    6.8807   -1.7487 H       1  LIG1        0.1232
     36 O         -11.4420    5.2720    0.5428 O.3     1  LIG1       -0.5046
     37 H         -11.5959    4.3511    0.7944 H       1  LIG1        0.2922
     38 C         -11.3715    8.3467    1.0347 C.ar    1  LIG1        0.1226
     39 C         -10.6166    7.9306   -0.0909 C.ar    1  LIG1        0.0412
     40 C         -10.7106    8.6816   -1.2615 C.ar    1  LIG1       -0.0067
     41 C         -11.5687    9.7786   -1.3029 C.ar    1  LIG1        0.1356
     42 C         -12.3025   10.0884   -0.1502 C.ar    1  LIG1        0.0704
     43 N         -12.2004    9.4069    0.9856 N.ar    1  LIG1       -0.2424
     44 H         -10.1244    8.4165   -2.1341 H       1  LIG1        0.0662
     45 H         -12.9930   10.9338   -0.1520 H       1  LIG1        0.0867
     46 C         -11.2451    7.7034    2.3101 C.1     1  LIG1       -0.0491
     47 C         -11.1208    7.1895    3.3978 C.1     1  LIG1       -0.1124
     48 H         -11.0201    6.7444    4.3604 H       1  LIG1        0.1232
     49 O         -11.6581   10.4932   -2.4571 O.3     1  LIG1       -0.5052
     50 H         -12.2853   11.2194   -2.3362 H       1  LIG1        0.2922
@<TRIPOS>BOND
     1    11    10    1
     2    10     9    3
     3    49    50    1
     4    49    41    1
     5     9     1    1
     6    44    40    1
     7    35    34    1
     8    34    33    3
     9    41    40   ar
    10    41    42   ar
    11    23    22    1
    12    40    39   ar
    13    22    21    3
    14    33    26    1
    15     1     6   ar
    16     1     2   ar
    17     6     5   ar
    18    21    14    1
    19    31    26   ar
    20    31    30   ar
    21    26    27   ar
    22    19    14   ar
    23    19    18   ar
    24    14    15   ar
    25    45    42    1
    26    42    43   ar
    27    39    30    1
    28    39    38   ar
    29    30    29   ar
    30    27    18    1
    31    27    28   ar
    32    18    17   ar
    33    15     5    1
    34    15    16   ar
    35     8     2    1
    36     5     4   ar
    37     2     3   ar
    38    29    28   ar
    39    29    36    1
    40    28    32    1
    41    36    37    1
    42    17    16   ar
    43    17    24    1
    44    25    24    1
    45    16    20    1
    46    43    38   ar
    47    38    46    1
    48     3     4   ar
    49     3     7    1
    50     4    12    1
    51    46    47    3
    52    13    12    1
    53    47    48    1
