@<TRIPOS>MOLECULE
mol_data/opt/b3lyp/geoms/mol2/6ef6ef-6ef.out
 38 40 0 0 0
SMALL
GASTEIGER

@<TRIPOS>ATOM
      1 C          -4.3098   -2.0504   -0.6159 C.ar    1  LIG1        0.1141
      2 C          -3.2919   -2.3528    0.3070 C.ar    1  LIG1       -0.0243
      3 C          -2.8887   -1.3657    1.1871 C.ar    1  LIG1       -0.0154
      4 C          -3.4811   -0.0966    1.1419 C.ar    1  LIG1        0.1429
      5 C          -4.4987    0.1308    0.1799 C.ar    1  LIG1        0.1164
      6 N          -4.8903   -0.8432   -0.6589 N.ar    1  LIG1       -0.2347
      7 H          -2.1172   -1.5416    1.9293 H       1  LIG1        0.0655
      8 H          -2.8432   -3.3399    0.3211 H       1  LIG1        0.0646
      9 C          -4.7701   -3.0444   -1.5422 C.1     1  LIG1       -0.0498
     10 C          -5.1359   -3.9052   -2.3089 C.1     1  LIG1       -0.1124
     11 H          -5.4652   -4.6529   -2.9927 H       1  LIG1        0.1232
     12 O          -3.0765    0.7856    2.0868 O.3     1  LIG1       -0.5046
     13 H          -3.1123    1.6972    1.7485 H       1  LIG1        0.2922
     14 C          -4.8257    2.7071    0.1157 C.ar    1  LIG1        0.1233
     15 C          -5.3115    1.3795    0.0724 C.ar    1  LIG1        0.0413
     16 C          -6.6855    1.2304   -0.1498 C.ar    1  LIG1       -0.0061
     17 C          -7.5143    2.3395   -0.2594 C.ar    1  LIG1        0.1435
     18 C          -6.9470    3.6279   -0.1108 C.ar    1  LIG1        0.1164
     19 N          -5.6334    3.7826    0.0332 N.ar    1  LIG1       -0.2340
     20 H          -7.0850    0.2268   -0.2617 H       1  LIG1        0.0662
     21 C          -3.4253    3.0056    0.2073 C.1     1  LIG1       -0.0491
     22 C          -2.2429    3.2511    0.3046 C.1     1  LIG1       -0.1124
     23 H          -1.2021    3.4737    0.3649 H       1  LIG1        0.1232
     24 O          -8.8377    2.2482   -0.5340 O.3     1  LIG1       -0.5046
     25 H          -9.0983    1.3179   -0.5731 H       1  LIG1        0.2922
     26 C          -8.8669    5.1236    0.6692 C.ar    1  LIG1        0.1226
     27 C          -7.7643    4.8709   -0.1854 C.ar    1  LIG1        0.0412
     28 C          -7.4024    5.8561   -1.1028 C.ar    1  LIG1       -0.0067
     29 C          -8.1549    7.0261   -1.1816 C.ar    1  LIG1        0.1356
     30 C          -9.2505    7.1676   -0.3199 C.ar    1  LIG1        0.0704
     31 N          -9.5905    6.2562    0.5850 N.ar    1  LIG1       -0.2424
     32 H          -6.5452    5.7158   -1.7515 H       1  LIG1        0.0662
     33 H          -9.8684    8.0664   -0.3637 H       1  LIG1        0.0867
     34 C          -9.2340    4.2165    1.7176 C.1     1  LIG1       -0.0491
     35 C          -9.5303    3.4746    2.6254 C.1     1  LIG1       -0.1124
     36 H          -9.7996    2.8278    3.4279 H       1  LIG1        0.1232
     37 O          -7.7961    7.9726   -2.0911 O.3     1  LIG1       -0.5052
     38 H          -8.4030    8.7228   -2.0278 H       1  LIG1        0.2922
@<TRIPOS>BOND
     1    11    10    1
     2    10     9    3
     3    37    38    1
     4    37    29    1
     5    32    28    1
     6     9     1    1
     7    29    28   ar
     8    29    30   ar
     9    28    27   ar
    10     6     1   ar
    11     6     5   ar
    12     1     2   ar
    13    25    24    1
    14    24    17    1
    15    33    30    1
    16    30    31   ar
    17    20    16    1
    18    17    16   ar
    19    17    18   ar
    20    27    18    1
    21    27    26   ar
    22    16    15   ar
    23    18    19   ar
    24    19    14   ar
    25    15    14   ar
    26    15     5    1
    27    14    21    1
    28     5     4   ar
    29    21    22    3
    30    22    23    1
    31     2     8    1
    32     2     3   ar
    33    31    26   ar
    34    26    34    1
    35     4     3   ar
    36     4    12    1
    37     3     7    1
    38    34    35    3
    39    13    12    1
    40    35    36    1
