@<TRIPOS>MOLECULE
mol_data/opt/b3lyp/geoms/mol2/6ef6ef-.out
 26 27 0 0 0
SMALL
GASTEIGER

@<TRIPOS>ATOM
      1 C          -4.5392   -2.0469    0.2781 C.ar    1  LIG1        0.1141
      2 C          -3.2416   -2.2017   -0.2427 C.ar    1  LIG1       -0.0243
      3 C          -2.5817   -1.0789   -0.7068 C.ar    1  LIG1       -0.0154
      4 C          -3.1991    0.1775   -0.6435 C.ar    1  LIG1        0.1429
      5 C          -4.5072    0.2513   -0.1001 C.ar    1  LIG1        0.1164
      6 N          -5.1421   -0.8509    0.3325 N.ar    1  LIG1       -0.2347
      7 H          -1.5847   -1.1359   -1.1307 H       1  LIG1        0.0655
      8 H          -2.7807   -3.1826   -0.2773 H       1  LIG1        0.0646
      9 C          -5.2693   -3.1833    0.7613 C.1     1  LIG1       -0.0498
     10 C          -5.8581   -4.1616    1.1600 C.1     1  LIG1       -0.1124
     11 H          -6.3866   -5.0144    1.5188 H       1  LIG1        0.1232
     12 O          -2.5113    1.2103   -1.1876 O.3     1  LIG1       -0.5046
     13 H          -2.6999    2.0395   -0.7140 H       1  LIG1        0.2922
     14 C          -4.9353    2.7734    0.3432 C.ar    1  LIG1        0.1226
     15 C          -5.3522    1.4840   -0.0636 C.ar    1  LIG1        0.0412
     16 C          -6.6987    1.3400   -0.4252 C.ar    1  LIG1       -0.0067
     17 C          -7.5472    2.4397   -0.4099 C.ar    1  LIG1        0.1356
     18 C          -7.0210    3.6849   -0.0247 C.ar    1  LIG1        0.0704
     19 N          -5.7609    3.8433    0.3481 N.ar    1  LIG1       -0.2424
     20 H          -7.0593    0.3538   -0.7020 H       1  LIG1        0.0662
     21 H          -7.6656    4.5608   -0.0179 H       1  LIG1        0.0867
     22 C          -3.6091    3.0285    0.8269 C.1     1  LIG1       -0.0491
     23 C          -2.4815    3.2435    1.2147 C.1     1  LIG1       -0.1124
     24 H          -1.4992    3.4338    1.5825 H       1  LIG1        0.1232
     25 O          -8.8606    2.3889   -0.7525 O.3     1  LIG1       -0.5052
     26 H          -9.1018    1.4788   -0.9735 H       1  LIG1        0.2922
@<TRIPOS>BOND
     1    12    13    1
     2    12     4    1
     3     7     3    1
     4    26    25    1
     5    25    17    1
     6     3     4   ar
     7     3     2   ar
     8    20    16    1
     9     4     5   ar
    10    16    17   ar
    11    16    15   ar
    12    17    18   ar
    13     8     2    1
    14     2     1   ar
    15     5    15    1
    16     5     6   ar
    17    15    14   ar
    18    18    21    1
    19    18    19   ar
    20     1     6   ar
    21     1     9    1
    22    14    19   ar
    23    14    22    1
    24     9    10    3
    25    22    23    3
    26    10    11    1
    27    23    24    1
