@<TRIPOS>MOLECULE
mol_data/opt/b3lyp/geoms/mol2/6ef6eh-4fd13id-.out
 51 54 0 0 0
SMALL
GASTEIGER

@<TRIPOS>ATOM
      1 C          -4.0741   -2.0219    1.0367 C.ar    1  LIG1        0.1141
      2 C          -3.2193   -2.4523    0.0047 C.ar    1  LIG1       -0.0243
      3 C          -3.0835   -1.6670   -1.1291 C.ar    1  LIG1       -0.0154
      4 C          -3.7961   -0.4684   -1.2084 C.ar    1  LIG1        0.1429
      5 C          -4.6251   -0.1030   -0.1249 C.ar    1  LIG1        0.1163
      6 N          -4.7594   -0.8678    0.9616 N.ar    1  LIG1       -0.2347
      7 H          -2.4468   -1.9603   -1.9571 H       1  LIG1        0.0655
      8 H          -2.6824   -3.3893    0.1029 H       1  LIG1        0.0646
      9 C          -4.2350   -2.8170    2.2193 C.1     1  LIG1       -0.0498
     10 C          -4.3460   -3.5120    3.2027 C.1     1  LIG1       -0.1124
     11 H          -4.4576   -4.1120    4.0760 H       1  LIG1        0.1232
     12 O          -3.6581    0.2833   -2.3333 O.3     1  LIG1       -0.5046
     13 H          -4.2701    1.0335   -2.2876 H       1  LIG1        0.2922
     14 C          -6.8029    1.2250   -0.0818 C.ar    1  LIG1        0.1232
     15 C          -5.3886    1.1790   -0.1594 C.ar    1  LIG1        0.0396
     16 C          -4.7175    2.3938   -0.2708 C.ar    1  LIG1       -0.0270
     17 C          -5.4020    3.6219   -0.2825 C.ar    1  LIG1        0.0517
     18 C          -6.8183    3.5608   -0.1629 C.ar    1  LIG1        0.0965
     19 N          -7.4638    2.3913   -0.0854 N.ar    1  LIG1       -0.2358
     20 H          -3.6309    2.4000   -0.3255 H       1  LIG1        0.0644
     21 C          -7.5972    0.0340   -0.0333 C.1     1  LIG1       -0.0491
     22 C          -8.2815   -0.9624   -0.0184 C.1     1  LIG1       -0.1124
     23 H          -8.8807   -1.8427    0.0135 H       1  LIG1        0.1232
     24 N          -4.7076    4.8005   -0.4931 N.pl3   1  LIG1       -0.3563
     25 H          -3.7035    4.7102   -0.4122 H       1  LIG1        0.1424
     26 H          -5.0617    5.6030    0.0131 H       1  LIG1        0.1424
     27 C          -7.5694    5.9501    0.4805 C.ar    1  LIG1        0.1268
     28 C          -8.4962    6.9881    0.3779 C.ar    1  LIG1       -0.0092
     29 C          -7.7277    4.7437   -0.2269 C.ar    1  LIG1        0.0448
     30 C          -9.6578    6.8857   -0.3988 C.ar    1  LIG1        0.0194
     31 H          -8.2938    7.9120    0.9071 H       1  LIG1        0.0661
     32 C          -8.8864    4.6347   -1.0005 C.ar    1  LIG1       -0.0310
     33 C          -9.8334    5.6608   -1.1050 C.ar    1  LIG1        0.0617
     34 H          -9.0585    3.7032   -1.5263 H       1  LIG1        0.0638
     35 O          -6.4686    6.0893    1.2850 O.3     1  LIG1       -0.5061
     36 H          -6.5287    6.9203    1.7759 H       1  LIG1        0.2922
     37 N         -11.8692    5.2637   -2.6649 N.1     1  LIG1       -0.1908
     38 C         -10.9635    5.4265   -1.9497 C.1     1  LIG1        0.0998
     39 C         -10.6000    8.0057   -0.4441 C.ar    1  LIG1        0.0520
     40 C         -10.8479    9.0173    0.4865 C.ar    1  LIG1       -0.0078
     41 C         -11.8649    9.8510   -0.0796 C.ar    1  LIG1        0.0725
     42 C         -12.2072    9.3294   -1.3204 C.ar    1  LIG1        0.0199
     43 N         -11.4459    8.2306   -1.5244 N.ar    1  LIG1       -0.3592
     44 H         -11.5344    7.6182   -2.3229 H       1  LIG1        0.1654
     45 H         -12.9330    9.6672   -2.0438 H       1  LIG1        0.0820
     46 C         -10.2552    9.2300    1.8485 C.3     1  LIG1       -0.0365
     47 H         -10.9291    9.8368    2.4588 H       1  LIG1        0.0279
     48 H          -9.2985    9.7670    1.8072 H       1  LIG1        0.0279
     49 H         -10.0865    8.2838    2.3707 H       1  LIG1        0.0279
     50 N         -12.8835   11.9405    1.0495 N.1     1  LIG1       -0.1908
     51 C         -12.4334   11.0012    0.5286 C.1     1  LIG1        0.1009
@<TRIPOS>BOND
     1    37    38    3
     2    12    13    1
     3    12     4    1
     4    44    43    1
     5    45    42    1
     6     7     3    1
     7    38    33    1
     8    34    32    1
     9    43    42   ar
    10    43    39   ar
    11    42    41   ar
    12     4     3   ar
    13     4     5   ar
    14     3     2   ar
    15    33    32   ar
    16    33    30   ar
    17    32    29   ar
    18    24    25    1
    19    24    17    1
    20    24    26    1
    21    39    30    1
    22    39    40   ar
    23    30    28   ar
    24    20    16    1
    25    17    16   ar
    26    17    18   ar
    27    16    15   ar
    28    29    18    1
    29    29    27   ar
    30    18    19   ar
    31    15     5    1
    32    15    14   ar
    33     5     6   ar
    34    19    14   ar
    35    14    21    1
    36    41    40   ar
    37    41    51    1
    38    21    22    3
    39    22    23    1
    40     2     8    1
    41     2     1   ar
    42    28    27   ar
    43    28    31    1
    44    27    35    1
    45    40    46    1
    46    51    50    3
    47     6     1   ar
    48     1     9    1
    49    35    36    1
    50    48    46    1
    51    46    49    1
    52    46    47    1
    53     9    10    3
    54    10    11    1
