@<TRIPOS>MOLECULE
mol_data/opt/b3lyp/geoms/mol2/6ef6ef-6ef-6ef.out
 50 53 0 0 0
SMALL
GASTEIGER

@<TRIPOS>ATOM
      1 C          -4.5156   -2.2564   -0.1265 C.ar    1  LIG1        0.1141
      2 C          -3.1195   -2.4015   -0.0282 C.ar    1  LIG1       -0.0243
      3 C          -2.3510   -1.2644    0.1379 C.ar    1  LIG1       -0.0154
      4 C          -2.9621   -0.0055    0.2159 C.ar    1  LIG1        0.1429
      5 C          -4.3757    0.0568    0.1145 C.ar    1  LIG1        0.1164
      6 N          -5.1082   -1.0561   -0.0630 N.ar    1  LIG1       -0.2347
      7 H          -1.2693   -1.3104    0.2069 H       1  LIG1        0.0655
      8 H          -2.6674   -3.3854   -0.0859 H       1  LIG1        0.0646
      9 C          -5.3547   -3.4049   -0.3125 C.1     1  LIG1       -0.0498
     10 C          -6.0332   -4.3936   -0.4701 C.1     1  LIG1       -0.1124
     11 H          -6.6424   -5.2571   -0.6051 H       1  LIG1        0.1232
     12 O          -2.1285    1.0581    0.3019 O.3     1  LIG1       -0.5046
     13 H          -2.5345    1.7779    0.8163 H       1  LIG1        0.2922
     14 C          -5.0240    2.4532    0.8892 C.ar    1  LIG1        0.1233
     15 C          -5.1784    1.3151    0.0628 C.ar    1  LIG1        0.0413
     16 C          -6.2253    1.3657   -0.8648 C.ar    1  LIG1       -0.0061
     17 C          -7.0267    2.4939   -0.9762 C.ar    1  LIG1        0.1435
     18 C          -6.7650    3.6034   -0.1357 C.ar    1  LIG1        0.1164
     19 N          -5.7924    3.5509    0.7710 N.ar    1  LIG1       -0.2340
     20 H          -6.4025    0.4966   -1.4916 H       1  LIG1        0.0662
     21 C          -4.0644    2.4990    1.9555 C.1     1  LIG1       -0.0491
     22 C          -3.2413    2.5390    2.8434 C.1     1  LIG1       -0.1124
     23 H          -2.5373    2.5735    3.6433 H       1  LIG1        0.1232
     24 O          -8.0472    2.5786   -1.8735 O.3     1  LIG1       -0.5046
     25 H          -8.0827    1.7625   -2.3917 H       1  LIG1        0.2922
     26 C          -6.9417    6.1325   -0.2852 C.ar    1  LIG1        0.1233
     27 C          -7.5576    4.8597   -0.2085 C.ar    1  LIG1        0.0413
     28 C          -8.9527    4.8244   -0.1901 C.ar    1  LIG1       -0.0061
     29 C          -9.6878    6.0064   -0.2001 C.ar    1  LIG1        0.1435
     30 C          -8.9901    7.2333   -0.2008 C.ar    1  LIG1        0.1164
     31 N          -7.6587    7.2708   -0.2795 N.ar    1  LIG1       -0.2340
     32 H          -9.4678    3.8682   -0.1792 H       1  LIG1        0.0662
     33 C          -5.5230    6.2897   -0.4243 C.1     1  LIG1       -0.0491
     34 C          -4.3364    6.4600   -0.5803 C.1     1  LIG1       -0.1124
     35 H          -3.2882    6.6077   -0.6987 H       1  LIG1        0.1232
     36 O         -11.0447    6.0315   -0.2450 O.3     1  LIG1       -0.5046
     37 H         -11.3896    5.1327   -0.1596 H       1  LIG1        0.2922
     38 C         -10.6209    8.9267    0.8096 C.ar    1  LIG1        0.1226
     39 C          -9.6915    8.5477   -0.1921 C.ar    1  LIG1        0.0412
     40 C          -9.3829    9.4743   -1.1868 C.ar    1  LIG1       -0.0067
     41 C         -10.0244   10.7109   -1.1933 C.ar    1  LIG1        0.1356
     42 C         -10.9574   10.9776   -0.1830 C.ar    1  LIG1        0.0704
     43 N         -11.2391   10.1233    0.7947 N.ar    1  LIG1       -0.2424
     44 H          -8.6494    9.2373   -1.9491 H       1  LIG1        0.0662
     45 H         -11.4872   11.9321   -0.1655 H       1  LIG1        0.0867
     46 C         -10.9058    8.0863    1.9364 C.1     1  LIG1       -0.0491
     47 C         -11.1282    7.4029    2.9090 C.1     1  LIG1       -0.1124
     48 H         -11.3271    6.8090    3.7705 H       1  LIG1        0.1232
     49 O          -9.7214   11.5990   -2.1796 O.3     1  LIG1       -0.5052
     50 H         -10.2354   12.4076   -2.0488 H       1  LIG1        0.2922
@<TRIPOS>BOND
     1    25    24    1
     2    49    50    1
     3    49    41    1
     4    44    40    1
     5    24    17    1
     6    20    16    1
     7    41    40   ar
     8    41    42   ar
     9    40    39   ar
    10    17    16   ar
    11    17    18   ar
    12    16    15   ar
    13    35    34    1
    14    11    10    1
    15    34    33    3
    16    10     9    3
    17    33    26    1
    18     9     1    1
    19    26    31   ar
    20    26    27   ar
    21    31    30   ar
    22    36    29    1
    23    36    37    1
    24    27    28   ar
    25    27    18    1
    26    30    29   ar
    27    30    39    1
    28    29    28   ar
    29    39    38   ar
    30    28    32    1
    31    42    45    1
    32    42    43   ar
    33    18    19   ar
    34     1     6   ar
    35     1     2   ar
    36     8     2    1
    37     6     5   ar
    38     2     3   ar
    39    15     5    1
    40    15    14   ar
    41     5     4   ar
    42     3     7    1
    43     3     4   ar
    44     4    12    1
    45    12    13    1
    46    19    14   ar
    47    43    38   ar
    48    38    46    1
    49    14    21    1
    50    46    47    3
    51    21    22    3
    52    22    23    1
    53    47    48    1
