@<TRIPOS>MOLECULE
mol_data/opt/b3lyp/geoms/mol2/6eg.out
 14 14 0 0 0
SMALL
GASTEIGER

@<TRIPOS>ATOM
      1 C          -4.6092   -2.0424    0.0001 C.ar    1  LIG1        0.1132
      2 C          -3.2036   -2.0369   -0.0000 C.ar    1  LIG1       -0.0268
      3 C          -2.5307   -0.8230   -0.0002 C.ar    1  LIG1       -0.0445
      4 C          -3.2728    0.3641   -0.0003 C.ar    1  LIG1        0.0230
      5 C          -4.6730    0.2551   -0.0002 C.ar    1  LIG1        0.0421
      6 N          -5.3287   -0.9018   -0.0000 N.ar    1  LIG1       -0.2456
      7 H          -1.4452   -0.7980   -0.0002 H       1  LIG1        0.0630
      8 H          -2.6598   -2.9752    0.0001 H       1  LIG1        0.0646
      9 H          -5.2910    1.1518   -0.0003 H       1  LIG1        0.0841
     10 C          -5.3273   -3.2826    0.0002 C.1     1  LIG1       -0.0498
     11 C          -5.9028   -4.3462    0.0004 C.1     1  LIG1       -0.1124
     12 H          -6.4265   -5.2741    0.0004 H       1  LIG1        0.1232
     13 S          -2.4188    1.9261   -0.0005 S.3     1  LIG1       -0.1412
     14 H          -3.5196    2.7034   -0.0004 H       1  LIG1        0.1072
@<TRIPOS>BOND
     1    13    14    1
     2    13     4    1
     3     4     5   ar
     4     4     3   ar
     5     9     5    1
     6     7     3    1
     7     5     6   ar
     8     3     2   ar
     9     6     1   ar
    10     2     1   ar
    11     2     8    1
    12     1    10    1
    13    10    11    3
    14    11    12    1
