@<TRIPOS>MOLECULE
mol_data/opt/b3lyp/geoms/mol2/6eh12hh-13eh-6el.out
 53 56 0 0 0
SMALL
GASTEIGER

@<TRIPOS>ATOM
      1 C          -4.3890   -2.1100    0.1766 C.ar    1  LIG1        0.1140
      2 C          -3.0110   -2.1342   -0.0915 C.ar    1  LIG1       -0.0260
      3 C          -2.3880   -0.9424   -0.4390 C.ar    1  LIG1       -0.0362
      4 C          -3.1253    0.2415   -0.4842 C.ar    1  LIG1        0.0541
      5 C          -4.4925    0.1940   -0.0847 C.ar    1  LIG1        0.1298
      6 N          -5.1026   -0.9724    0.1898 N.ar    1  LIG1       -0.2334
      7 H          -1.3356   -0.9326   -0.7131 H       1  LIG1        0.0637
      8 H          -2.4623   -3.0684   -0.0595 H       1  LIG1        0.0646
      9 C          -5.0966   -3.3276    0.4540 C.1     1  LIG1       -0.0498
     10 C          -5.6840   -4.3620    0.6757 C.1     1  LIG1       -0.1124
     11 H          -6.2101   -5.2661    0.8792 H       1  LIG1        0.1232
     12 N          -2.5448    1.4504   -0.9118 N.pl3   1  LIG1       -0.3562
     13 H          -1.6685    1.3138   -1.4027 H       1  LIG1        0.1424
     14 H          -3.1853    1.9962   -1.4823 H       1  LIG1        0.1424
     15 C          -5.3018    1.3973    0.0106 C.ar    1  LIG1        0.1781
     16 C          -5.0565    2.7110    0.3931 C.ar    1  LIG1        0.0943
     17 C          -6.3219    3.3930    0.3626 C.ar    1  LIG1        0.0942
     18 C          -7.2643    2.4505    0.0096 C.ar    1  LIG1        0.1755
     19 O          -6.6587    1.2405   -0.1905 O.2     1  LIG1       -0.4479
     20 N          -3.9016    3.2907    0.8652 N.pl3   1  LIG1       -0.3535
     21 H          -3.0197    2.9170    0.5352 H       1  LIG1        0.1425
     22 H          -3.9517    4.2808    1.0473 H       1  LIG1        0.1425
     23 N          -6.4616    4.7402    0.7487 N.pl3   1  LIG1       -0.3535
     24 H          -6.0324    5.3678    0.0720 H       1  LIG1        0.1425
     25 H          -7.4346    5.0153    0.8354 H       1  LIG1        0.1425
     26 C          -8.6963    2.4229   -0.1254 C.ar    1  LIG1        0.1019
     27 C          -9.6785    3.4115   -0.3436 C.ar    1  LIG1        0.0742
     28 C         -10.9353    2.7360   -0.4341 C.ar    1  LIG1        0.0666
     29 C         -10.7055    1.3630   -0.2580 C.ar    1  LIG1        0.0719
     30 N          -9.3374    1.2271   -0.0901 N.ar    1  LIG1       -0.3492
     31 H          -8.8681    0.3362    0.0270 H       1  LIG1        0.1661
     32 C          -9.5222    4.8056   -0.5181 C.1     1  LIG1       -0.0656
     33 C          -9.4724    6.0091   -0.6752 C.1     1  LIG1       -0.1138
     34 H          -9.4089    7.0609   -0.8314 H       1  LIG1        0.1232
     35 N         -12.1599    3.3880   -0.6494 N.pl3   1  LIG1       -0.3554
     36 H         -12.0117    4.3774   -0.8244 H       1  LIG1        0.1424
     37 H         -12.6868    2.9882   -1.4198 H       1  LIG1        0.1424
     38 C         -11.2493   -1.1332   -0.2250 C.ar    1  LIG1        0.1225
     39 C         -11.6336    0.2408   -0.2030 C.ar    1  LIG1        0.0374
     40 C         -13.0183    0.5048   -0.0970 C.ar    1  LIG1       -0.0066
     41 C         -13.9293   -0.5427   -0.0642 C.ar    1  LIG1        0.1388
     42 C         -13.4426   -1.8603   -0.1428 C.ar    1  LIG1        0.0706
     43 N         -12.1517   -2.1387   -0.2058 N.ar    1  LIG1       -0.2424
     44 H         -13.3474    1.5300    0.0029 H       1  LIG1        0.0662
     45 H         -14.1443   -2.6913   -0.1382 H       1  LIG1        0.0867
     46 C          -9.8814   -1.5678   -0.2340 C.1     1  LIG1       -0.0491
     47 C          -8.7288   -1.9437   -0.2065 C.1     1  LIG1       -0.1124
     48 H          -7.7028   -2.2406   -0.1546 H       1  LIG1        0.1232
     49 O         -15.2785   -0.4090    0.0465 O.3     1  LIG1       -0.4936
     50 C         -15.8148    0.9018    0.1598 C.3     1  LIG1        0.0789
     51 H         -16.8950    0.7784    0.2460 H       1  LIG1        0.0660
     52 H         -15.4351    1.4175    1.0503 H       1  LIG1        0.0660
     53 H         -15.5896    1.5074   -0.7274 H       1  LIG1        0.0660
@<TRIPOS>BOND
     1    14    12    1
     2    37    35    1
     3    13    12    1
     4    12     4    1
     5    34    33    1
     6    36    35    1
     7    53    50    1
     8     7     3    1
     9    33    32    3
    10    35    28    1
    11    32    27    1
    12     4     3   ar
    13     4     5   ar
    14     3     2   ar
    15    28    27   ar
    16    28    29   ar
    17    27    26   ar
    18    29    39    1
    19    29    30   ar
    20    46    38    1
    21    46    47    3
    22    38    43   ar
    23    38    39   ar
    24    47    48    1
    25    43    42   ar
    26    39    40   ar
    27    19    18   ar
    28    19    15   ar
    29    42    45    1
    30    42    41   ar
    31    26    30   ar
    32    26    18    1
    33    40    41   ar
    34    40    44    1
    35     2     8    1
    36     2     1   ar
    37    30    31    1
    38     5    15    1
    39     5     6   ar
    40    41    49    1
    41    18    17   ar
    42    15    16   ar
    43    49    50    1
    44    24    23    1
    45    50    51    1
    46    50    52    1
    47     1     6   ar
    48     1     9    1
    49    17    16   ar
    50    17    23    1
    51    16    20    1
    52     9    10    3
    53    21    20    1
    54    10    11    1
    55    23    25    1
    56    20    22    1
