@<TRIPOS>MOLECULE
mol_data/opt/b3lyp/geoms/mol2/6eh6eh6eh-6eh-.out
 54 57 0 0 0
SMALL
GASTEIGER

@<TRIPOS>ATOM
      1 C          -4.5750   -2.3458    0.1380 C.ar    1  LIG1        0.1139
      2 C          -3.1785   -2.4132   -0.0052 C.ar    1  LIG1       -0.0260
      3 C          -2.4587   -1.2384   -0.1480 C.ar    1  LIG1       -0.0363
      4 C          -3.1288   -0.0055   -0.1441 C.ar    1  LIG1        0.0511
      5 C          -4.5398   -0.0366    0.0125 C.ar    1  LIG1        0.0956
      6 N          -5.2291   -1.1699    0.1434 N.ar    1  LIG1       -0.2365
      7 H          -1.3783   -1.2649   -0.2654 H       1  LIG1        0.0637
      8 H          -2.6797   -3.3762   -0.0070 H       1  LIG1        0.0646
      9 C          -5.3484   -3.5438    0.2846 C.1     1  LIG1       -0.0498
     10 C          -5.9684   -4.5754    0.4071 C.1     1  LIG1       -0.1124
     11 H          -6.5319   -5.4727    0.5158 H       1  LIG1        0.1232
     12 N          -2.4302    1.1904   -0.2461 N.pl3   1  LIG1       -0.3563
     13 H          -1.5274    1.1279   -0.6962 H       1  LIG1        0.1424
     14 H          -2.9708    1.9854   -0.5587 H       1  LIG1        0.1424
     15 C          -6.2963    1.5419   -0.9454 C.ar    1  LIG1        0.1231
     16 C          -5.3302    1.2316    0.0414 C.ar    1  LIG1        0.0378
     17 C          -5.1481    2.1513    1.0692 C.ar    1  LIG1       -0.0270
     18 C          -5.9004    3.3349    1.1397 C.ar    1  LIG1        0.0517
     19 C          -6.8317    3.5622    0.0890 C.ar    1  LIG1        0.0957
     20 N          -7.0132    2.6764   -0.8953 N.ar    1  LIG1       -0.2358
     21 H          -4.4259    1.9365    1.8531 H       1  LIG1        0.0644
     22 C          -6.5386    0.6766   -2.0624 C.1     1  LIG1       -0.0491
     23 C          -6.7341   -0.0345   -3.0207 C.1     1  LIG1       -0.1124
     24 H          -6.9169   -0.6731   -3.8533 H       1  LIG1        0.1232
     25 N          -5.7895    4.1615    2.2445 N.pl3   1  LIG1       -0.3563
     26 H          -4.9744    3.9901    2.8176 H       1  LIG1        0.1424
     27 H          -5.9323    5.1487    2.0809 H       1  LIG1        0.1424
     28 C          -7.3583    6.0916    0.0995 C.ar    1  LIG1        0.1231
     29 C          -7.7569    4.7342    0.0423 C.ar    1  LIG1        0.0378
     30 C          -9.1163    4.4795   -0.1318 C.ar    1  LIG1       -0.0270
     31 C         -10.0449    5.5220   -0.2013 C.ar    1  LIG1        0.0517
     32 C          -9.5437    6.8459   -0.0817 C.ar    1  LIG1        0.0957
     33 N          -8.2460    7.1024    0.0461 N.ar    1  LIG1       -0.2358
     34 H          -9.4444    3.4491   -0.2273 H       1  LIG1        0.0644
     35 C          -5.9795    6.4836    0.1697 C.1     1  LIG1       -0.0491
     36 C          -4.8183    6.8191    0.2432 C.1     1  LIG1       -0.1124
     37 H          -3.8008    7.1326    0.2803 H       1  LIG1        0.1232
     38 N         -11.4014    5.2634   -0.3358 N.pl3   1  LIG1       -0.3563
     39 H         -11.9533    6.0201   -0.7157 H       1  LIG1        0.1424
     40 H         -11.6307    4.3659   -0.7406 H       1  LIG1        0.1424
     41 C         -10.4000    9.0142   -1.1068 C.ar    1  LIG1        0.1224
     42 C         -10.4648    8.0227   -0.0975 C.ar    1  LIG1        0.0377
     43 C         -11.4158    8.1729    0.9126 C.ar    1  LIG1       -0.0277
     44 C         -12.2580    9.2925    0.9309 C.ar    1  LIG1        0.0436
     45 C         -12.0962   10.2222   -0.1153 C.ar    1  LIG1        0.0496
     46 N         -11.2135   10.0901   -1.0960 N.ar    1  LIG1       -0.2442
     47 H         -11.4869    7.4246    1.6978 H       1  LIG1        0.0644
     48 H         -12.7244   11.1132   -0.1454 H       1  LIG1        0.0849
     49 C          -9.4940    8.9044   -2.2115 C.1     1  LIG1       -0.0491
     50 C          -8.7526    8.8087   -3.1620 C.1     1  LIG1       -0.1124
     51 H          -8.0853    8.7298   -3.9883 H       1  LIG1        0.1232
     52 N         -13.1658    9.5141    1.9550 N.pl3   1  LIG1       -0.3568
     53 H         -13.9201   10.1540    1.7510 H       1  LIG1        0.1424
     54 H         -13.4665    8.7015    2.4736 H       1  LIG1        0.1424
@<TRIPOS>BOND
     1    51    50    1
     2    24    23    1
     3    50    49    3
     4    23    22    3
     5    49    41    1
     6    22    15    1
     7    41    46   ar
     8    41    42   ar
     9    46    45   ar
    10    15    20   ar
    11    15    16   ar
    12    20    19   ar
    13    40    38    1
    14    39    38    1
    15    13    12    1
    16    14    12    1
    17    38    31    1
    18     7     3    1
    19    12     4    1
    20    34    30    1
    21    31    30   ar
    22    31    32   ar
    23     3     4   ar
    24     3     2   ar
    25    48    45    1
    26     4     5   ar
    27    30    29   ar
    28    45    44   ar
    29    42    32    1
    30    42    43   ar
    31    32    33   ar
    32     8     2    1
    33     2     1   ar
    34     5    16    1
    35     5     6   ar
    36    16    17   ar
    37    29    19    1
    38    29    28   ar
    39    33    28   ar
    40    19    18   ar
    41    28    35    1
    42     1     6   ar
    43     1     9    1
    44    35    36    3
    45    36    37    1
    46     9    10    3
    47    10    11    1
    48    43    44   ar
    49    43    47    1
    50    44    52    1
    51    17    18   ar
    52    17    21    1
    53    18    25    1
    54    53    52    1
    55    52    54    1
    56    27    25    1
    57    25    26    1
