@<TRIPOS>MOLECULE
mol_data/opt/b3lyp/geoms/mol2/6eh6eh-4eh6eh.out
 55 58 0 0 0
SMALL
GASTEIGER

@<TRIPOS>ATOM
      1 C          -3.6451   -1.7524   -1.1760 C.ar    1  LIG1        0.1139
      2 C          -3.1223   -2.3955   -0.0416 C.ar    1  LIG1       -0.0260
      3 C          -3.2997   -1.8067    1.1976 C.ar    1  LIG1       -0.0363
      4 C          -3.9813   -0.5829    1.3150 C.ar    1  LIG1        0.0511
      5 C          -4.4502    0.0103    0.1079 C.ar    1  LIG1        0.0956
      6 N          -4.2956   -0.5799   -1.0823 N.ar    1  LIG1       -0.2365
      7 H          -2.9227   -2.2928    2.0941 H       1  LIG1        0.0637
      8 H          -2.5955   -3.3379   -0.1437 H       1  LIG1        0.0646
      9 C          -3.5029   -2.3377   -2.4770 C.1     1  LIG1       -0.0498
     10 C          -3.3663   -2.8605   -3.5596 C.1     1  LIG1       -0.1124
     11 H          -3.2510   -3.3056   -4.5204 H       1  LIG1        0.1232
     12 N          -4.2555   -0.0581    2.5670 N.pl3   1  LIG1       -0.3563
     13 H          -3.7022   -0.4529    3.3157 H       1  LIG1        0.1424
     14 H          -4.2944    0.9503    2.6268 H       1  LIG1        0.1424
     15 C          -4.8408    2.5132    0.6219 C.ar    1  LIG1        0.1231
     16 C          -5.2469    1.2743    0.0697 C.ar    1  LIG1        0.0378
     17 C          -6.4617    1.2554   -0.6128 C.ar    1  LIG1       -0.0270
     18 C          -7.2604    2.3991   -0.7080 C.ar    1  LIG1        0.0516
     19 C          -6.7823    3.5802   -0.0755 C.ar    1  LIG1        0.0942
     20 N          -5.6072    3.6168    0.5458 N.ar    1  LIG1       -0.2359
     21 H          -6.7773    0.3313   -1.0874 H       1  LIG1        0.0644
     22 C          -3.5650    2.6871    1.2558 C.1     1  LIG1       -0.0491
     23 C          -2.4947    2.8316    1.8034 C.1     1  LIG1       -0.1124
     24 H          -1.5432    2.9793    2.2594 H       1  LIG1        0.1232
     25 N          -8.4829    2.3546   -1.3608 N.pl3   1  LIG1       -0.3563
     26 H          -8.8563    3.2459   -1.6564 H       1  LIG1        0.1424
     27 H          -8.5763    1.6288   -2.0579 H       1  LIG1        0.1424
     28 C          -7.0276    6.0578   -0.5838 C.ar    1  LIG1        0.0346
     29 C          -7.8242    7.2134   -0.5278 C.ar    1  LIG1       -0.0361
     30 C          -7.5737    4.8472   -0.0898 C.ar    1  LIG1        0.0193
     31 C          -9.1190    7.2256   -0.0053 C.ar    1  LIG1        0.0067
     32 H          -7.4070    8.1424   -0.9026 H       1  LIG1        0.0637
     33 C          -8.8731    4.8504    0.4178 C.ar    1  LIG1       -0.0300
     34 C          -9.6657    6.0098    0.4767 C.ar    1  LIG1        0.0331
     35 H          -9.2895    3.9195    0.7943 H       1  LIG1        0.0643
     36 C          -5.7282    6.1407   -1.1702 C.1     1  LIG1       -0.0690
     37 C          -4.6505    6.2647   -1.7070 C.1     1  LIG1       -0.1139
     38 H          -3.6856    6.3477   -2.1498 H       1  LIG1        0.1232
     39 N         -10.9790    5.9200    0.9228 N.pl3   1  LIG1       -0.3575
     40 H         -11.3416    6.7491    1.3736 H       1  LIG1        0.1423
     41 H         -11.1755    5.0908    1.4671 H       1  LIG1        0.1423
     42 C         -10.3780    9.1662    1.1026 C.ar    1  LIG1        0.1210
     43 C          -9.8942    8.4989   -0.0514 C.ar    1  LIG1        0.0195
     44 C         -10.1332    9.1004   -1.2889 C.ar    1  LIG1       -0.0291
     45 C         -10.8328   10.3105   -1.3732 C.ar    1  LIG1        0.0436
     46 C         -11.2816   10.8704   -0.1592 C.ar    1  LIG1        0.0496
     47 N         -11.0639   10.3262    1.0282 N.ar    1  LIG1       -0.2443
     48 H          -9.7752    8.6137   -2.1921 H       1  LIG1        0.0643
     49 H         -11.8386   11.8077   -0.1702 H       1  LIG1        0.0849
     50 C         -10.1451    8.6523    2.4215 C.1     1  LIG1       -0.0492
     51 C          -9.9613    8.2112    3.5335 C.1     1  LIG1       -0.1124
     52 H          -9.7787    7.8402    4.5154 H       1  LIG1        0.1232
     53 N         -11.0403   10.9580   -2.5789 N.pl3   1  LIG1       -0.3568
     54 H         -10.9921   10.3892   -3.4118 H       1  LIG1        0.1424
     55 H         -11.7906   11.6336   -2.6020 H       1  LIG1        0.1424
@<TRIPOS>BOND
     1    11    10    1
     2    10     9    3
     3    54    53    1
     4    55    53    1
     5    53    45    1
     6     9     1    1
     7    48    44    1
     8    38    37    1
     9    27    25    1
    10    37    36    3
    11    26    25    1
    12    45    44   ar
    13    45    46   ar
    14    25    18    1
    15    44    43   ar
    16     1     6   ar
    17     1     2   ar
    18    36    28    1
    19    21    17    1
    20     6     5   ar
    21    32    29    1
    22    18    17   ar
    23    18    19   ar
    24    17    16   ar
    25    28    29   ar
    26    28    30   ar
    27    29    31   ar
    28    49    46    1
    29    46    47   ar
    30     8     2    1
    31    30    19    1
    32    30    33   ar
    33    19    20   ar
    34    43    31    1
    35    43    42   ar
    36     2     3   ar
    37    31    34   ar
    38    16     5    1
    39    16    15   ar
    40     5     4   ar
    41    33    34   ar
    42    33    35    1
    43    34    39    1
    44    20    15   ar
    45    15    22    1
    46    39    40    1
    47    39    41    1
    48    47    42   ar
    49    42    50    1
    50     3     4   ar
    51     3     7    1
    52    22    23    3
    53     4    12    1
    54    23    24    1
    55    50    51    3
    56    12    14    1
    57    12    13    1
    58    51    52    1
