@<TRIPOS>MOLECULE
mol_data/opt/b3lyp/geoms/mol2/6eh6dh-4ia-6ae.out
 51 54 0 0 0
SMALL
GASTEIGER

@<TRIPOS>ATOM
      1 C          -4.0111   -1.8971    1.0404 C.ar    1  LIG1        0.1139
      2 C          -2.9514   -2.2266    0.1766 C.ar    1  LIG1       -0.0260
      3 C          -2.6571   -1.3826   -0.8807 C.ar    1  LIG1       -0.0363
      4 C          -3.4085   -0.2131   -1.0735 C.ar    1  LIG1        0.0511
      5 C          -4.4461    0.0450   -0.1407 C.ar    1  LIG1        0.0957
      6 N          -4.7350   -0.7779    0.8692 N.ar    1  LIG1       -0.2365
      7 H          -1.8502   -1.6230   -1.5684 H       1  LIG1        0.0637
      8 H          -2.3831   -3.1356    0.3392 H       1  LIG1        0.0646
      9 C          -4.3466   -2.7526    2.1396 C.1     1  LIG1       -0.0498
     10 C          -4.5994   -3.4961    3.0593 C.1     1  LIG1       -0.1124
     11 H          -4.8446   -4.1414    3.8707 H       1  LIG1        0.1232
     12 N          -3.1116    0.6637   -2.1124 N.pl3   1  LIG1       -0.3563
     13 H          -2.6113    0.2488   -2.8872 H       1  LIG1        0.1424
     14 H          -3.8804    1.2437   -2.4209 H       1  LIG1        0.1424
     15 C          -6.6982    1.2121   -0.2955 C.ar    1  LIG1        0.1500
     16 C          -5.2891    1.2734   -0.2314 C.ar    1  LIG1        0.0398
     17 C          -4.7132    2.5430   -0.2226 C.ar    1  LIG1       -0.0270
     18 C          -5.5122    3.6947   -0.2360 C.ar    1  LIG1        0.0516
     19 C          -6.9236    3.5174   -0.2460 C.ar    1  LIG1        0.0933
     20 N          -7.4755    2.3060   -0.3054 N.ar    1  LIG1       -0.2338
     21 H          -3.6313    2.6391   -0.1922 H       1  LIG1        0.0644
     22 N          -7.9732   -1.0433   -0.5505 N.1     1  LIG1       -0.1893
     23 C          -7.3925   -0.0457   -0.4108 C.1     1  LIG1        0.1198
     24 N          -4.9464    4.9543   -0.2039 N.pl3   1  LIG1       -0.3563
     25 H          -3.9810    5.0290   -0.4894 H       1  LIG1        0.1424
     26 H          -5.5327    5.7171   -0.5130 H       1  LIG1        0.1424
     27 C          -7.9926    5.5699    0.8243 C.ar    1  LIG1       -0.0406
     28 C          -8.8975    6.6308    0.7146 C.ar    1  LIG1       -0.0504
     29 C          -7.8587    4.6853   -0.2703 C.ar    1  LIG1        0.0051
     30 C          -9.6771    6.8426   -0.4325 C.ar    1  LIG1       -0.0161
     31 H          -9.0277    7.2896    1.5688 H       1  LIG1        0.0626
     32 C          -8.6539    4.8769   -1.4087 C.ar    1  LIG1       -0.0517
     33 C          -9.5460    5.9396   -1.4981 C.ar    1  LIG1       -0.0533
     34 H          -8.5621    4.1777   -2.2340 H       1  LIG1        0.0624
     35 C          -7.2348    5.3592    2.1152 C.3     1  LIG1       -0.0391
     36 H          -7.5811    6.0528    2.8854 H       1  LIG1        0.0278
     37 H          -6.1580    5.5074    1.9821 H       1  LIG1        0.0278
     38 H          -7.3749    4.3405    2.4910 H       1  LIG1        0.0278
     39 H         -10.1242    6.0814   -2.4056 H       1  LIG1        0.0624
     40 C         -11.8763    7.8511   -1.1309 C.ar    1  LIG1        0.0353
     41 C         -10.6222    7.9825   -0.5082 C.ar    1  LIG1        0.0014
     42 C         -10.3159    9.2332    0.0380 C.ar    1  LIG1       -0.0357
     43 C         -11.2411   10.2830   -0.0567 C.ar    1  LIG1        0.0433
     44 C         -12.4571   10.0244   -0.7184 C.ar    1  LIG1        0.0430
     45 N         -12.7699    8.8386   -1.2411 N.ar    1  LIG1       -0.2614
     46 H          -9.3584    9.4063    0.5182 H       1  LIG1        0.0637
     47 H         -13.1940   10.8175   -0.8200 H       1  LIG1        0.0842
     48 H         -12.1768    6.8896   -1.5418 H       1  LIG1        0.0836
     49 C         -10.9639   11.5749    0.4833 C.1     1  LIG1       -0.0681
     50 C         -10.7355   12.6719    0.9398 C.1     1  LIG1       -0.1139
     51 H         -10.5371   13.6387    1.3415 H       1  LIG1        0.1232
@<TRIPOS>BOND
     1    13    12    1
     2    14    12    1
     3    39    33    1
     4    34    32    1
     5    12     4    1
     6     7     3    1
     7    48    40    1
     8    33    32   ar
     9    33    30   ar
    10    32    29   ar
    11    45    40   ar
    12    45    44   ar
    13    40    41   ar
    14     4     3   ar
    15     4     5   ar
    16     3     2   ar
    17    47    44    1
    18    44    43   ar
    19    22    23    3
    20    26    24    1
    21    41    30    1
    22    41    42   ar
    23    25    24    1
    24    30    28   ar
    25    23    15    1
    26    20    15   ar
    27    20    19   ar
    28    15    16   ar
    29    29    19    1
    30    29    27   ar
    31    19    18   ar
    32    18    17   ar
    33    18    24    1
    34    16    17   ar
    35    16     5    1
    36    17    21    1
    37     5     6   ar
    38    43    42   ar
    39    43    49    1
    40    42    46    1
    41     2     8    1
    42     2     1   ar
    43    49    50    3
    44    28    27   ar
    45    28    31    1
    46    27    35    1
    47     6     1   ar
    48    50    51    1
    49     1     9    1
    50    37    35    1
    51    35    38    1
    52    35    36    1
    53     9    10    3
    54    10    11    1
