@<TRIPOS>MOLECULE
mol_data/opt/b3lyp/geoms/mol2/6eh6eh6eh.out
 41 43 0 0 0
SMALL
GASTEIGER

@<TRIPOS>ATOM
      1 C          -3.2986   -1.3641    1.0980 C.ar    1  LIG1        0.1139
      2 C          -3.3947   -2.4369    0.1956 C.ar    1  LIG1       -0.0260
      3 C          -4.2830   -2.3414   -0.8604 C.ar    1  LIG1       -0.0363
      4 C          -5.0818   -1.1953   -1.0185 C.ar    1  LIG1        0.0511
      5 C          -4.9396   -0.1732   -0.0373 C.ar    1  LIG1        0.0956
      6 N          -4.0588   -0.2638    0.9648 N.ar    1  LIG1       -0.2365
      7 H          -4.3616   -3.1483   -1.5849 H       1  LIG1        0.0637
      8 H          -2.7757   -3.3174    0.3284 H       1  LIG1        0.0646
      9 C          -2.3748   -1.4123    2.1931 C.1     1  LIG1       -0.0498
     10 C          -1.5833   -1.4851    3.1052 C.1     1  LIG1       -0.1124
     11 H          -0.8938   -1.5352    3.9156 H       1  LIG1        0.1232
     12 N          -5.8820   -1.0560   -2.1393 N.pl3   1  LIG1       -0.3563
     13 H          -6.0636   -1.9164   -2.6379 H       1  LIG1        0.1424
     14 H          -6.7209   -0.5045   -2.0259 H       1  LIG1        0.1424
     15 C          -7.0839    1.2601   -0.1588 C.ar    1  LIG1        0.1231
     16 C          -5.6759    1.1256   -0.0959 C.ar    1  LIG1        0.0378
     17 C          -4.9360    2.3022   -0.0231 C.ar    1  LIG1       -0.0270
     18 C          -5.5460    3.5628   -0.0624 C.ar    1  LIG1        0.0517
     19 C          -6.9638    3.5864   -0.1985 C.ar    1  LIG1        0.0957
     20 N          -7.6824    2.4634   -0.2105 N.ar    1  LIG1       -0.2358
     21 H          -3.8581    2.2299    0.0859 H       1  LIG1        0.0644
     22 C          -7.9650    0.1282   -0.1178 C.1     1  LIG1       -0.0491
     23 C          -8.7106   -0.8254   -0.0937 C.1     1  LIG1       -0.1124
     24 H          -9.3742   -1.6576   -0.0471 H       1  LIG1        0.1232
     25 N          -4.7906    4.7062    0.1203 N.pl3   1  LIG1       -0.3563
     26 H          -3.7929    4.5720    0.0296 H       1  LIG1        0.1424
     27 H          -5.1075    5.5368   -0.3600 H       1  LIG1        0.1424
     28 C          -7.5802    5.9142   -1.1201 C.ar    1  LIG1        0.1224
     29 C          -7.7722    4.8433   -0.2132 C.ar    1  LIG1        0.0377
     30 C          -8.8206    4.9507    0.7019 C.ar    1  LIG1       -0.0277
     31 C          -9.6205    6.0972    0.7363 C.ar    1  LIG1        0.0436
     32 C          -9.3119    7.1167   -0.1896 C.ar    1  LIG1        0.0496
     33 N          -8.3425    7.0287   -1.0862 N.ar    1  LIG1       -0.2442
     34 H          -9.0086    4.1239    1.3797 H       1  LIG1        0.0644
     35 H          -9.8983    8.0360   -0.1960 H       1  LIG1        0.0849
     36 C          -6.5943    5.8658   -2.1608 C.1     1  LIG1       -0.0491
     37 C          -5.7551    5.8331   -3.0332 C.1     1  LIG1       -0.1124
     38 H          -5.0381    5.8000   -3.8204 H       1  LIG1        0.1232
     39 N         -10.6957    6.2190    1.5987 N.pl3   1  LIG1       -0.3568
     40 H         -10.6907    5.6246    2.4147 H       1  LIG1        0.1424
     41 H         -11.0178    7.1569    1.7885 H       1  LIG1        0.1424
@<TRIPOS>BOND
     1    38    37    1
     2    37    36    3
     3    13    12    1
     4    36    28    1
     5    12    14    1
     6    12     4    1
     7     7     3    1
     8    28    33   ar
     9    28    29   ar
    10    33    32   ar
    11     4     3   ar
    12     4     5   ar
    13     3     2   ar
    14    27    25    1
    15    29    19    1
    16    29    30   ar
    17    20    19   ar
    18    20    15   ar
    19    19    18   ar
    20    35    32    1
    21    32    31   ar
    22    15    22    1
    23    15    16   ar
    24    22    23    3
    25    16     5    1
    26    16    17   ar
    27    23    24    1
    28    18    17   ar
    29    18    25    1
    30     5     6   ar
    31    17    21    1
    32    26    25    1
    33     2     8    1
    34     2     1   ar
    35    30    31   ar
    36    30    34    1
    37    31    39    1
    38     6     1   ar
    39     1     9    1
    40    39    41    1
    41    39    40    1
    42     9    10    3
    43    10    11    1
