@<TRIPOS>MOLECULE
mol_data/opt/b3lyp/geoms/mol2/6eh6eh6eh-6eh.out
 54 57 0 0 0
SMALL
GASTEIGER

@<TRIPOS>ATOM
      1 C          -4.3006   -2.1791    0.7120 C.ar    1  LIG1        0.1139
      2 C          -3.0800   -2.3486    0.0361 C.ar    1  LIG1       -0.0260
      3 C          -2.5747   -1.2997   -0.7143 C.ar    1  LIG1       -0.0363
      4 C          -3.2817   -0.0898   -0.7862 C.ar    1  LIG1        0.0511
      5 C          -4.5019   -0.0098   -0.0646 C.ar    1  LIG1        0.0956
      6 N          -4.9876   -1.0238    0.6514 N.ar    1  LIG1       -0.2365
      7 H          -1.6350   -1.4081   -1.2502 H       1  LIG1        0.0637
      8 H          -2.5498   -3.2923    0.1032 H       1  LIG1        0.0646
      9 C          -4.8516   -3.2465    1.4943 C.1     1  LIG1       -0.0498
     10 C          -5.2860   -4.1684    2.1462 C.1     1  LIG1       -0.1124
     11 H          -5.6853   -4.9684    2.7250 H       1  LIG1        0.1232
     12 N          -2.7810    0.9921   -1.4990 N.pl3   1  LIG1       -0.3563
     13 H          -2.1349    0.7595   -2.2407 H       1  LIG1        0.1424
     14 H          -3.4641    1.6837   -1.7768 H       1  LIG1        0.1424
     15 C          -6.6144    1.2997   -0.6255 C.ar    1  LIG1        0.1231
     16 C          -5.3120    1.2462   -0.0739 C.ar    1  LIG1        0.0378
     17 C          -4.8080    2.4139    0.4894 C.ar    1  LIG1       -0.0270
     18 C          -5.5632    3.5970    0.5296 C.ar    1  LIG1        0.0517
     19 C          -6.8543    3.5506   -0.0650 C.ar    1  LIG1        0.0957
     20 N          -7.3419    2.4284   -0.6031 N.ar    1  LIG1       -0.2358
     21 H          -3.8170    2.4036    0.9364 H       1  LIG1        0.0644
     22 C          -7.2116    0.1615   -1.2603 C.1     1  LIG1       -0.0491
     23 C          -7.7143   -0.7858   -1.8188 C.1     1  LIG1       -0.1124
     24 H          -8.1617   -1.6282   -2.2930 H       1  LIG1        0.1232
     25 N          -5.0852    4.7012    1.2151 N.pl3   1  LIG1       -0.3563
     26 H          -4.0979    4.6657    1.4301 H       1  LIG1        0.1424
     27 H          -5.3575    5.6039    0.8508 H       1  LIG1        0.1424
     28 C          -7.5547    5.9957   -0.5347 C.ar    1  LIG1        0.1231
     29 C          -7.8174    4.6928   -0.0475 C.ar    1  LIG1        0.0378
     30 C          -9.0986    4.4519    0.4405 C.ar    1  LIG1       -0.0270
     31 C         -10.0776    5.4531    0.4743 C.ar    1  LIG1        0.0517
     32 C          -9.7079    6.7309   -0.0357 C.ar    1  LIG1        0.0957
     33 N          -8.4834    6.9690   -0.5057 N.ar    1  LIG1       -0.2358
     34 H          -9.3356    3.4569    0.8048 H       1  LIG1        0.0644
     35 C          -6.3013    6.3563   -1.1330 C.1     1  LIG1       -0.0491
     36 C          -5.2397    6.6700   -1.6247 C.1     1  LIG1       -0.1124
     37 H          -4.3223    6.9494   -2.0886 H       1  LIG1        0.1232
     38 N         -11.2988    5.2076    1.0727 N.pl3   1  LIG1       -0.3563
     39 H         -12.0888    5.7223    0.7095 H       1  LIG1        0.1424
     40 H         -11.5136    4.2286    1.2059 H       1  LIG1        0.1424
     41 C         -11.8954    7.9774   -0.5904 C.ar    1  LIG1        0.1224
     42 C         -10.6076    7.9242   -0.0034 C.ar    1  LIG1        0.0377
     43 C         -10.1235    9.0862    0.5992 C.ar    1  LIG1       -0.0277
     44 C         -10.9072   10.2432    0.6471 C.ar    1  LIG1        0.0436
     45 C         -12.1891   10.1678    0.0629 C.ar    1  LIG1        0.0496
     46 N         -12.6618    9.0882   -0.5397 N.ar    1  LIG1       -0.2442
     47 H          -9.1249    9.0779    1.0252 H       1  LIG1        0.0644
     48 H         -12.8453   11.0384    0.0862 H       1  LIG1        0.0849
     49 C         -12.4465    6.8716   -1.3193 C.1     1  LIG1       -0.0491
     50 C         -12.9163    5.9346   -1.9253 C.1     1  LIG1       -0.1124
     51 H         -13.3215    5.1219   -2.4825 H       1  LIG1        0.1232
     52 N         -10.4798   11.3957    1.2866 N.pl3   1  LIG1       -0.3568
     53 H          -9.4805   11.5046    1.3865 H       1  LIG1        0.1424
     54 H         -10.9426   12.2514    1.0147 H       1  LIG1        0.1424
@<TRIPOS>BOND
     1    51    50    1
     2    24    23    1
     3    13    12    1
     4    37    36    1
     5    50    49    3
     6    23    22    3
     7    14    12    1
     8    36    35    3
     9    12     4    1
    10    49    41    1
    11    22    15    1
    12     7     3    1
    13    35    28    1
    14     4     3   ar
    15     4     5   ar
    16     3     2   ar
    17    15    20   ar
    18    15    16   ar
    19    20    19   ar
    20    41    46   ar
    21    41    42   ar
    22    46    45   ar
    23    28    33   ar
    24    28    29   ar
    25    33    32   ar
    26    16     5    1
    27    16    17   ar
    28    19    29    1
    29    19    18   ar
    30     5     6   ar
    31    29    30   ar
    32    32    42    1
    33    32    31   ar
    34    42    43   ar
    35     2     8    1
    36     2     1   ar
    37    45    48    1
    38    45    44   ar
    39    30    31   ar
    40    30    34    1
    41    31    38    1
    42    17    18   ar
    43    17    21    1
    44    18    25    1
    45    43    44   ar
    46    43    47    1
    47    44    52    1
    48     6     1   ar
    49    39    38    1
    50     1     9    1
    51    27    25    1
    52    54    52    1
    53    38    40    1
    54    25    26    1
    55    52    53    1
    56     9    10    3
    57    10    11    1
