@<TRIPOS>MOLECULE
mol_data/opt/b3lyp/geoms/mol2/6eh6eh-6eh-6eh.out
 54 57 0 0 0
SMALL
GASTEIGER

@<TRIPOS>ATOM
      1 C          -4.0728   -1.9804   -1.0026 C.ar    1  LIG1        0.1139
      2 C          -3.1340   -2.3869   -0.0395 C.ar    1  LIG1       -0.0260
      3 C          -2.8506   -1.5365    1.0140 C.ar    1  LIG1       -0.0363
      4 C          -3.4836   -0.2849    1.1108 C.ar    1  LIG1        0.0511
      5 C          -4.3978    0.0543    0.0730 C.ar    1  LIG1        0.0956
      6 N          -4.6840   -0.7858   -0.9276 N.ar    1  LIG1       -0.2365
      7 H          -2.1429   -1.8348    1.7836 H       1  LIG1        0.0637
      8 H          -2.6491   -3.3532   -0.1252 H       1  LIG1        0.0646
      9 C          -4.4120   -2.8391   -2.0992 C.1     1  LIG1       -0.0498
     10 C          -4.6763   -3.5891   -3.0111 C.1     1  LIG1       -0.1124
     11 H          -4.9169   -4.2361   -3.8224 H       1  LIG1        0.1232
     12 N          -3.2824    0.5107    2.2263 N.pl3   1  LIG1       -0.3563
     13 H          -2.4731    0.2603    2.7784 H       1  LIG1        0.1424
     14 H          -3.3349    1.5089    2.0760 H       1  LIG1        0.1424
     15 C          -4.6588    2.6247    0.1290 C.ar    1  LIG1        0.1231
     16 C          -5.1978    1.3169    0.0625 C.ar    1  LIG1        0.0378
     17 C          -6.5795    1.2081   -0.0857 C.ar    1  LIG1       -0.0270
     18 C          -7.3963    2.3421   -0.1236 C.ar    1  LIG1        0.0517
     19 C          -6.7572    3.6051    0.0002 C.ar    1  LIG1        0.0957
     20 N          -5.4373    3.7227    0.1053 N.ar    1  LIG1       -0.2358
     21 H          -7.0160    0.2192   -0.1869 H       1  LIG1        0.0644
     22 C          -3.2454    2.8683    0.1775 C.1     1  LIG1       -0.0491
     23 C          -2.0538    3.0759    0.2324 C.1     1  LIG1       -0.1124
     24 H          -1.0066    3.2713    0.2497 H       1  LIG1        0.1232
     25 N          -8.7741    2.2259   -0.2332 N.pl3   1  LIG1       -0.3563
     26 H          -9.2557    3.0431   -0.5824 H       1  LIG1        0.1424
     27 H          -9.1030    1.3651   -0.6489 H       1  LIG1        0.1424
     28 C          -7.3735    5.8825   -0.9652 C.ar    1  LIG1        0.1231
     29 C          -7.5490    4.8710    0.0099 C.ar    1  LIG1        0.0378
     30 C          -8.4876    5.1033    1.0109 C.ar    1  LIG1       -0.0270
     31 C          -9.2238    6.2973    1.0666 C.ar    1  LIG1        0.0517
     32 C          -8.9889    7.2399    0.0284 C.ar    1  LIG1        0.0957
     33 N          -8.0823    7.0230   -0.9290 N.ar    1  LIG1       -0.2358
     34 H          -8.6355    4.3544    1.7851 H       1  LIG1        0.0644
     35 C          -6.4590    5.7304   -2.0583 C.1     1  LIG1       -0.0491
     36 C          -5.7102    5.6046   -2.9994 C.1     1  LIG1       -0.1124
     37 H          -5.0370    5.4916   -3.8170 H       1  LIG1        0.1232
     38 N         -10.0489    6.5533    2.1481 N.pl3   1  LIG1       -0.3563
     39 H         -10.8577    7.1315    1.9678 H       1  LIG1        0.1424
     40 H         -10.2825    5.7410    2.7026 H       1  LIG1        0.1424
     41 C         -11.0435    8.7983   -0.0368 C.ar    1  LIG1        0.1224
     42 C          -9.6439    8.5819   -0.0331 C.ar    1  LIG1        0.0377
     43 C          -8.8170    9.6995   -0.1564 C.ar    1  LIG1       -0.0277
     44 C          -9.3636   10.9835   -0.2423 C.ar    1  LIG1        0.0436
     45 C         -10.7707   11.0809   -0.1979 C.ar    1  LIG1        0.0496
     46 N         -11.5786   10.0363   -0.1102 N.ar    1  LIG1       -0.2442
     47 H          -7.7422    9.5521   -0.1937 H       1  LIG1        0.0644
     48 H         -11.2464   12.0608   -0.2476 H       1  LIG1        0.0849
     49 C         -11.9858    7.7167   -0.0155 C.1     1  LIG1       -0.0491
     50 C         -12.7870    6.8091    0.0152 C.1     1  LIG1       -0.1124
     51 H         -13.5025    6.0198    0.0149 H       1  LIG1        0.1232
     52 N          -8.5708   12.1168   -0.3100 N.pl3   1  LIG1       -0.3568
     53 H          -7.6306   11.9834   -0.6543 H       1  LIG1        0.1424
     54 H          -9.0116   12.9473   -0.6791 H       1  LIG1        0.1424
@<TRIPOS>BOND
     1    11    10    1
     2    37    36    1
     3    10     9    3
     4    36    35    3
     5     9     1    1
     6    35    28    1
     7     1     6   ar
     8     1     2   ar
     9    28    33   ar
    10    28    29   ar
    11    33    32   ar
    12     6     5   ar
    13    54    52    1
    14    53    52    1
    15    27    25    1
    16    26    25    1
    17    52    44    1
    18    48    45    1
    19    44    45   ar
    20    44    43   ar
    21    25    18    1
    22    45    46   ar
    23    47    43    1
    24    21    17    1
    25    43    42   ar
    26     8     2    1
    27    18    17   ar
    28    18    19   ar
    29    46    41   ar
    30    17    16   ar
    31     2     3   ar
    32    41    42   ar
    33    41    49    1
    34    42    32    1
    35    49    50    3
    36    19    29    1
    37    19    20   ar
    38    29    30   ar
    39    51    50    1
    40    32    31   ar
    41    16     5    1
    42    16    15   ar
    43     5     4   ar
    44    20    15   ar
    45    15    22    1
    46    22    23    3
    47    23    24    1
    48    30    31   ar
    49    30    34    1
    50     3     4   ar
    51     3     7    1
    52    31    38    1
    53     4    12    1
    54    39    38    1
    55    14    12    1
    56    38    40    1
    57    12    13    1
