@<TRIPOS>MOLECULE
mol_data/opt/b3lyp/geoms/mol2/6eh6eh6eh6eh-.out
 54 57 0 0 0
SMALL
GASTEIGER

@<TRIPOS>ATOM
      1 C          -3.7785   -1.8621    1.1872 C.ar    1  LIG1        0.1139
      2 C          -2.9983   -2.2991    0.1030 C.ar    1  LIG1       -0.0260
      3 C          -3.0211   -1.5762   -1.0785 C.ar    1  LIG1       -0.0363
      4 C          -3.8158   -0.4239   -1.1740 C.ar    1  LIG1        0.0511
      5 C          -4.5644   -0.0574   -0.0251 C.ar    1  LIG1        0.0956
      6 N          -4.5443   -0.7580    1.1080 N.ar    1  LIG1       -0.2365
      7 H          -2.4298   -1.8971   -1.9325 H       1  LIG1        0.0637
      8 H          -2.3925   -3.1937    0.1975 H       1  LIG1        0.0646
      9 C          -3.7781   -2.5901    2.4221 C.1     1  LIG1       -0.0498
     10 C          -3.7523   -3.2282    3.4495 C.1     1  LIG1       -0.1124
     11 H          -3.7446   -3.7771    4.3624 H       1  LIG1        0.1232
     12 N          -3.8308    0.3467   -2.3294 N.pl3   1  LIG1       -0.3563
     13 H          -3.5744   -0.1397   -3.1775 H       1  LIG1        0.1424
     14 H          -4.6431    0.9370   -2.4470 H       1  LIG1        0.1424
     15 C          -6.8384    1.0888    0.0082 C.ar    1  LIG1        0.1231
     16 C          -5.4259    1.1654   -0.0411 C.ar    1  LIG1        0.0378
     17 C          -4.8466    2.4301   -0.1036 C.ar    1  LIG1       -0.0270
     18 C          -5.6406    3.5848   -0.0883 C.ar    1  LIG1        0.0517
     19 C          -7.0451    3.3984   -0.0238 C.ar    1  LIG1        0.0957
     20 N          -7.6076    2.1920    0.0128 N.ar    1  LIG1       -0.2358
     21 H          -3.7644    2.5215   -0.1512 H       1  LIG1        0.0644
     22 C          -7.5179   -0.1733    0.0254 C.1     1  LIG1       -0.0491
     23 C          -8.0947   -1.2360    0.0197 C.1     1  LIG1       -0.1124
     24 H          -8.6041   -2.1712    0.0362 H       1  LIG1        0.1232
     25 N          -5.0682    4.8488   -0.0918 N.pl3   1  LIG1       -0.3563
     26 H          -4.1318    4.9043   -0.4673 H       1  LIG1        0.1424
     27 H          -5.6672    5.6016   -0.4012 H       1  LIG1        0.1424
     28 C          -8.8781    4.8381   -1.0506 C.ar    1  LIG1        0.1231
     29 C          -7.9699    4.5717    0.0014 C.ar    1  LIG1        0.0378
     30 C          -7.9721    5.4426    1.0859 C.ar    1  LIG1       -0.0270
     31 C          -8.8508    6.5363    1.1469 C.ar    1  LIG1        0.0517
     32 C          -9.7077    6.7300    0.0284 C.ar    1  LIG1        0.0957
     33 N          -9.7130    5.8898   -1.0103 N.ar    1  LIG1       -0.2358
     34 H          -7.2994    5.2562    1.9193 H       1  LIG1        0.0644
     35 C          -8.9350    4.0172   -2.2248 C.1     1  LIG1       -0.0491
     36 C          -8.9773    3.3463   -3.2302 C.1     1  LIG1       -0.1124
     37 H          -9.0344    2.7428   -4.1059 H       1  LIG1        0.1232
     38 N          -8.9228    7.3045    2.2944 N.pl3   1  LIG1       -0.3563
     39 H          -8.1427    7.1978    2.9280 H       1  LIG1        0.1424
     40 H          -9.1855    8.2724    2.1737 H       1  LIG1        0.1424
     41 C         -10.4627    9.1949    0.0895 C.ar    1  LIG1        0.1224
     42 C         -10.7363    7.8118   -0.0442 C.ar    1  LIG1        0.0377
     43 C         -12.0513    7.4368   -0.3227 C.ar    1  LIG1       -0.0277
     44 C         -13.0593    8.4003   -0.4272 C.ar    1  LIG1        0.0436
     45 C         -12.6761    9.7456   -0.2395 C.ar    1  LIG1        0.0496
     46 N         -11.4323   10.1307   -0.0020 N.ar    1  LIG1       -0.2442
     47 H         -12.2759    6.3841   -0.4643 H       1  LIG1        0.0644
     48 H         -13.4267   10.5343   -0.2981 H       1  LIG1        0.0849
     49 C          -9.1323    9.6967    0.2813 C.1     1  LIG1       -0.0491
     50 C          -8.0137   10.1264    0.4562 C.1     1  LIG1       -0.1124
     51 H          -7.0323   10.5199    0.5864 H       1  LIG1        0.1232
     52 N         -14.3825    8.0584   -0.6468 N.pl3   1  LIG1       -0.3568
     53 H         -14.9776    8.7873   -1.0139 H       1  LIG1        0.1424
     54 H         -14.5469    7.1593   -1.0766 H       1  LIG1        0.1424
@<TRIPOS>BOND
     1    37    36    1
     2    36    35    3
     3    13    12    1
     4    14    12    1
     5    12     4    1
     6    35    28    1
     7     7     3    1
     8     4     3   ar
     9     4     5   ar
    10     3     2   ar
    11    54    52    1
    12    28    33   ar
    13    28    29   ar
    14    53    52    1
    15    33    32   ar
    16    52    44    1
    17    26    25    1
    18    47    43    1
    19    44    43   ar
    20    44    45   ar
    21    27    25    1
    22    43    42   ar
    23    48    45    1
    24    45    46   ar
    25    21    17    1
    26    17    18   ar
    27    17    16   ar
    28    25    18    1
    29    18    19   ar
    30    42    32    1
    31    42    41   ar
    32    16     5    1
    33    16    15   ar
    34     5     6   ar
    35    19    29    1
    36    19    20   ar
    37    46    41   ar
    38    29    30   ar
    39    15    20   ar
    40    15    22    1
    41    23    22    3
    42    23    24    1
    43    32    31   ar
    44    41    49    1
    45     2     8    1
    46     2     1   ar
    47    49    50    3
    48    50    51    1
    49    30    31   ar
    50    30    34    1
    51     6     1   ar
    52    31    38    1
    53     1     9    1
    54    40    38    1
    55    38    39    1
    56     9    10    3
    57    10    11    1
