@<TRIPOS>MOLECULE
mol_data/opt/b3lyp/geoms/mol2/6eh6eh-6eh-6eh-.out
 54 57 0 0 0
SMALL
GASTEIGER

@<TRIPOS>ATOM
      1 C          -3.6562   -1.7631   -1.0412 C.ar    1  LIG1        0.1139
      2 C          -3.2120   -2.4338    0.1107 C.ar    1  LIG1       -0.0260
      3 C          -3.4425   -1.8574    1.3467 C.ar    1  LIG1       -0.0363
      4 C          -4.0994   -0.6183    1.4449 C.ar    1  LIG1        0.0511
      5 C          -4.4860    0.0022    0.2229 C.ar    1  LIG1        0.0956
      6 N          -4.2816   -0.5759   -0.9657 N.ar    1  LIG1       -0.2365
      7 H          -3.1268   -2.3647    2.2551 H       1  LIG1        0.0637
      8 H          -2.7034   -3.3877    0.0237 H       1  LIG1        0.0646
      9 C          -3.4577   -2.3347   -2.3408 C.1     1  LIG1       -0.0498
     10 C          -3.2753   -2.8464   -3.4219 C.1     1  LIG1       -0.1124
     11 H          -3.1186   -3.2813   -4.3815 H       1  LIG1        0.1232
     12 N          -4.4296   -0.1042    2.6879 N.pl3   1  LIG1       -0.3563
     13 H          -3.9294   -0.5244    3.4598 H       1  LIG1        0.1424
     14 H          -4.4457    0.9038    2.7620 H       1  LIG1        0.1424
     15 C          -4.8325    2.5090    0.7463 C.ar    1  LIG1        0.1231
     16 C          -5.2446    1.2886    0.1578 C.ar    1  LIG1        0.0378
     17 C          -6.4194    1.3118   -0.5922 C.ar    1  LIG1       -0.0270
     18 C          -7.1751    2.4809   -0.7191 C.ar    1  LIG1        0.0517
     19 C          -6.6969    3.6376   -0.0471 C.ar    1  LIG1        0.0957
     20 N          -5.5597    3.6372    0.6408 N.ar    1  LIG1       -0.2358
     21 H          -6.7340    0.4022   -1.0946 H       1  LIG1        0.0644
     22 C          -3.5903    2.6373    1.4532 C.1     1  LIG1       -0.0491
     23 C          -2.5493    2.7453    2.0620 C.1     1  LIG1       -0.1124
     24 H          -1.6209    2.8605    2.5717 H       1  LIG1        0.1232
     25 N          -8.3636    2.4905   -1.4354 N.pl3   1  LIG1       -0.3563
     26 H          -8.6638    3.3970   -1.7675 H       1  LIG1        0.1424
     27 H          -8.4495    1.7667   -2.1358 H       1  LIG1        0.1424
     28 C          -6.9183    6.0989   -0.6676 C.ar    1  LIG1        0.1231
     29 C          -7.4572    4.9226   -0.0917 C.ar    1  LIG1        0.0378
     30 C          -8.7386    4.9949    0.4515 C.ar    1  LIG1       -0.0270
     31 C          -9.4516    6.2007    0.4504 C.ar    1  LIG1        0.0517
     32 C          -8.8150    7.3234   -0.1349 C.ar    1  LIG1        0.0957
     33 N          -7.6010    7.2578   -0.6774 N.ar    1  LIG1       -0.2358
     34 H          -9.1842    4.1066    0.8918 H       1  LIG1        0.0644
     35 C          -5.6335    6.1048   -1.3025 C.1     1  LIG1       -0.0491
     36 C          -4.5618    6.1140   -1.8622 C.1     1  LIG1       -0.1124
     37 H          -3.6100    6.1234   -2.3401 H       1  LIG1        0.1232
     38 N         -10.7052    6.2960    1.0413 N.pl3   1  LIG1       -0.3563
     39 H         -11.2790    7.0633    0.7194 H       1  LIG1        0.1424
     40 H         -11.2161    5.4274    1.1186 H       1  LIG1        0.1424
     41 C          -9.9424    9.2337   -1.3810 C.ar    1  LIG1        0.1224
     42 C          -9.4958    8.6549   -0.1691 C.ar    1  LIG1        0.0377
     43 C          -9.6995    9.3638    1.0144 C.ar    1  LIG1       -0.0277
     44 C         -10.3048   10.6276    0.9849 C.ar    1  LIG1        0.0436
     45 C         -10.6987   11.1115   -0.2789 C.ar    1  LIG1        0.0496
     46 N         -10.5336   10.4456   -1.4136 N.ar    1  LIG1       -0.2442
     47 H          -9.3662    8.9396    1.9580 H       1  LIG1        0.0644
     48 H         -11.1723   12.0908   -0.3559 H       1  LIG1        0.0849
     49 C          -9.8146    8.5440   -2.6311 C.1     1  LIG1       -0.0491
     50 C          -9.7311    7.9596   -3.6866 C.1     1  LIG1       -0.1124
     51 H          -9.6352    7.4627   -4.6238 H       1  LIG1        0.1232
     52 N         -10.4604   11.3953    2.1273 N.pl3   1  LIG1       -0.3568
     53 H         -11.1483   12.1333    2.0822 H       1  LIG1        0.1424
     54 H         -10.4628   10.9016    3.0080 H       1  LIG1        0.1424
@<TRIPOS>BOND
     1    51    50    1
     2    11    10    1
     3    50    49    3
     4    10     9    3
     5    49    41    1
     6     9     1    1
     7    37    36    1
     8    27    25    1
     9    36    35    3
    10    26    25    1
    11    25    18    1
    12    46    41   ar
    13    46    45   ar
    14    41    42   ar
    15    35    28    1
    16    21    17    1
    17     1     6   ar
    18     1     2   ar
    19     6     5   ar
    20    18    17   ar
    21    18    19   ar
    22    33    28   ar
    23    33    32   ar
    24    28    29   ar
    25    17    16   ar
    26    48    45    1
    27    45    44   ar
    28    42    32    1
    29    42    43   ar
    30    32    31   ar
    31    29    19    1
    32    29    30   ar
    33    19    20   ar
    34     8     2    1
    35     2     3   ar
    36    16     5    1
    37    16    15   ar
    38     5     4   ar
    39    31    30   ar
    40    31    38    1
    41    30    34    1
    42    20    15   ar
    43    39    38    1
    44    15    22    1
    45    44    43   ar
    46    44    52    1
    47    43    47    1
    48    38    40    1
    49     3     4   ar
    50     3     7    1
    51     4    12    1
    52    22    23    3
    53    23    24    1
    54    53    52    1
    55    52    54    1
    56    12    14    1
    57    12    13    1
