@<TRIPOS>MOLECULE
mol_data/opt/b3lyp/geoms/mol2/6eh6eh6eh6eh.out
 54 57 0 0 0
SMALL
GASTEIGER

@<TRIPOS>ATOM
      1 C          -2.6344   -1.0412    0.0377 C.ar    1  LIG1        0.1139
      2 C          -3.0580   -2.3718    0.1947 C.ar    1  LIG1       -0.0260
      3 C          -4.4115   -2.6302    0.3145 C.ar    1  LIG1       -0.0363
      4 C          -5.3429   -1.5773    0.2906 C.ar    1  LIG1        0.0511
      5 C          -4.8193   -0.2595    0.1609 C.ar    1  LIG1        0.0956
      6 N          -3.5110   -0.0226    0.0189 N.ar    1  LIG1       -0.2365
      7 H          -4.7675   -3.6525    0.4157 H       1  LIG1        0.0637
      8 H          -2.3307   -3.1761    0.2144 H       1  LIG1        0.0646
      9 C          -1.2430   -0.7313   -0.1131 C.1     1  LIG1       -0.0498
     10 C          -0.0612   -0.5054   -0.2397 C.1     1  LIG1       -0.1124
     11 H           0.9760   -0.2885   -0.3491 H       1  LIG1        0.1232
     12 N          -6.7000   -1.8509    0.2929 N.pl3   1  LIG1       -0.3563
     13 H          -6.9416   -2.7813    0.6061 H       1  LIG1        0.1424
     14 H          -7.2970   -1.1499    0.7090 H       1  LIG1        0.1424
     15 C          -6.6525    1.3425    1.0223 C.ar    1  LIG1        0.1231
     16 C          -5.6807    0.9581    0.0667 C.ar    1  LIG1        0.0378
     17 C          -5.4804    1.8206   -1.0069 C.ar    1  LIG1       -0.0270
     18 C          -6.2373    2.9888   -1.1676 C.ar    1  LIG1        0.0517
     19 C          -7.2388    3.2452   -0.1871 C.ar    1  LIG1        0.0957
     20 N          -7.3960    2.4534    0.8739 N.ar    1  LIG1       -0.2358
     21 H          -4.7002    1.5830   -1.7238 H       1  LIG1        0.0644
     22 C          -6.8715    0.6040    2.2331 C.1     1  LIG1       -0.0491
     23 C          -7.0657   -0.0227    3.2508 C.1     1  LIG1       -0.1124
     24 H          -7.2235   -0.5536    4.1609 H       1  LIG1        0.1232
     25 N          -5.9388    3.8750   -2.1842 N.pl3   1  LIG1       -0.3563
     26 H          -5.3456    3.5035   -2.9131 H       1  LIG1        0.1424
     27 H          -6.7059    4.4184   -2.5535 H       1  LIG1        0.1424
     28 C          -8.9274    4.8663   -1.2714 C.ar    1  LIG1        0.1231
     29 C          -8.1038    4.4622   -0.1929 C.ar    1  LIG1        0.0378
     30 C          -8.1550    5.2382    0.9613 C.ar    1  LIG1       -0.0270
     31 C          -8.9409    6.3955    1.0394 C.ar    1  LIG1        0.0517
     32 C          -9.6765    6.7526   -0.1273 C.ar    1  LIG1        0.0957
     33 N          -9.6774    5.9811   -1.2149 N.ar    1  LIG1       -0.2358
     34 H          -7.5775    4.9209    1.8245 H       1  LIG1        0.0644
     35 C          -9.0554    4.0883   -2.4704 C.1     1  LIG1       -0.0491
     36 C          -9.1568    3.4373   -3.4862 C.1     1  LIG1       -0.1124
     37 H          -9.2676    2.8585   -4.3738 H       1  LIG1        0.1232
     38 N          -9.0490    7.0823    2.2347 N.pl3   1  LIG1       -0.3563
     39 H          -8.3512    6.8382    2.9242 H       1  LIG1        0.1424
     40 H          -9.1807    8.0821    2.1675 H       1  LIG1        0.1424
     41 C         -10.2154    9.2661    0.0798 C.ar    1  LIG1        0.1224
     42 C         -10.5939    7.9300   -0.1994 C.ar    1  LIG1        0.0377
     43 C         -11.9065    7.7037   -0.6169 C.ar    1  LIG1       -0.0277
     44 C         -12.8151    8.7621   -0.7143 C.ar    1  LIG1        0.0436
     45 C         -12.3363   10.0454   -0.3740 C.ar    1  LIG1        0.0496
     46 N         -11.0901   10.2919   -0.0029 N.ar    1  LIG1       -0.2442
     47 H         -12.2056    6.6922   -0.8734 H       1  LIG1        0.0644
     48 H         -13.0080   10.9029   -0.4226 H       1  LIG1        0.0849
     49 C          -8.8691    9.6228    0.4228 C.1     1  LIG1       -0.0491
     50 C          -7.7361    9.9256    0.7240 C.1     1  LIG1       -0.1124
     51 H          -6.7352   10.2031    0.9617 H       1  LIG1        0.1232
     52 N         -14.1102    8.5813   -1.1674 N.pl3   1  LIG1       -0.3568
     53 H         -14.4835    7.6453   -1.1065 H       1  LIG1        0.1424
     54 H         -14.7789    9.2953   -0.9169 H       1  LIG1        0.1424
@<TRIPOS>BOND
     1    37    36    1
     2    36    35    3
     3    26    25    1
     4    27    25    1
     5    35    28    1
     6    25    18    1
     7    21    17    1
     8    28    33   ar
     9    28    29   ar
    10    33    32   ar
    11    18    17   ar
    12    18    19   ar
    13    52    53    1
    14    52    54    1
    15    52    44    1
    16    17    16   ar
    17    47    43    1
    18    44    43   ar
    19    44    45   ar
    20    43    42   ar
    21    48    45    1
    22    45    46   ar
    23    11    10    1
    24    10     9    3
    25    42    32    1
    26    42    41   ar
    27    29    19    1
    28    29    30   ar
    29    19    20   ar
    30    32    31   ar
    31     9     1    1
    32    46    41   ar
    33     6     1   ar
    34     6     5   ar
    35     1     2   ar
    36    16     5    1
    37    16    15   ar
    38    41    49    1
    39     5     4   ar
    40     2     8    1
    41     2     3   ar
    42     4    12    1
    43     4     3   ar
    44    12    13    1
    45    12    14    1
    46     3     7    1
    47    49    50    3
    48    50    51    1
    49    20    15   ar
    50    30    31   ar
    51    30    34    1
    52    15    22    1
    53    31    38    1
    54    40    38    1
    55    22    23    3
    56    38    39    1
    57    23    24    1
