@<TRIPOS>MOLECULE
mol_data/opt/b3lyp/geoms/mol2/6eh6eh.out
 28 29 0 0 0
SMALL
GASTEIGER

@<TRIPOS>ATOM
      1 C          -4.2281   -1.7692    1.1087 C.ar    1  LIG1        0.1139
      2 C          -3.3224   -2.2387    0.1427 C.ar    1  LIG1       -0.0260
      3 C          -3.1065   -1.4781   -0.9924 C.ar    1  LIG1       -0.0363
      4 C          -3.7903   -0.2639   -1.1783 C.ar    1  LIG1        0.0511
      5 C          -4.7104    0.1171   -0.1604 C.ar    1  LIG1        0.0956
      6 N          -4.8927   -0.6124    0.9452 N.ar    1  LIG1       -0.2365
      7 H          -2.3964   -1.8087   -1.7465 H       1  LIG1        0.0637
      8 H          -2.8026   -3.1784    0.2943 H       1  LIG1        0.0646
      9 C          -4.4662   -2.5149    2.3096 C.1     1  LIG1       -0.0498
     10 C          -4.6424   -3.1683    3.3125 C.1     1  LIG1       -0.1124
     11 H          -4.8132   -3.7323    4.1999 H       1  LIG1        0.1232
     12 N          -3.4850    0.5470   -2.2592 N.pl3   1  LIG1       -0.3563
     13 H          -2.9800    0.0807   -3.0009 H       1  LIG1        0.1424
     14 H          -4.2448    1.1057   -2.6231 H       1  LIG1        0.1424
     15 C          -6.3147    1.8349   -1.2277 C.ar    1  LIG1        0.1224
     16 C          -5.4659    1.4078   -0.1776 C.ar    1  LIG1        0.0377
     17 C          -5.3654    2.2299    0.9459 C.ar    1  LIG1       -0.0277
     18 C          -6.0522    3.4467    1.0025 C.ar    1  LIG1        0.0436
     19 C          -6.8368    3.7873   -0.1200 C.ar    1  LIG1        0.0496
     20 N          -6.9726    3.0138   -1.1851 N.ar    1  LIG1       -0.2442
     21 H          -4.7528    1.9015    1.7798 H       1  LIG1        0.0644
     22 H          -7.3831    4.7310   -0.1311 H       1  LIG1        0.0849
     23 C          -6.5685    1.0246   -2.3839 C.1     1  LIG1       -0.0491
     24 C          -6.7756    0.3499   -3.3679 C.1     1  LIG1       -0.1124
     25 H          -6.9888   -0.2507   -4.2217 H       1  LIG1        0.1232
     26 N          -6.0116    4.2638    2.1185 N.pl3   1  LIG1       -0.3568
     27 H          -5.2323    4.1334    2.7468 H       1  LIG1        0.1424
     28 H          -6.2543    5.2337    1.9771 H       1  LIG1        0.1424
@<TRIPOS>BOND
     1    25    24    1
     2    24    23    3
     3    13    12    1
     4    14    12    1
     5    23    15    1
     6    12     4    1
     7     7     3    1
     8    15    20   ar
     9    15    16   ar
    10    20    19   ar
    11     4     3   ar
    12     4     5   ar
    13     3     2   ar
    14    16     5    1
    15    16    17   ar
    16     5     6   ar
    17    22    19    1
    18    19    18   ar
    19     2     8    1
    20     2     1   ar
    21     6     1   ar
    22    17    18   ar
    23    17    21    1
    24    18    26    1
    25     1     9    1
    26    28    26    1
    27    26    27    1
    28     9    10    3
    29    10    11    1
