@<TRIPOS>MOLECULE
mol_data/opt/b3lyp/geoms/mol2/6eh6eh-.out
 28 29 0 0 0
SMALL
GASTEIGER

@<TRIPOS>ATOM
      1 C          -4.4512   -2.0287    0.4298 C.ar    1  LIG1        0.1139
      2 C          -3.1835   -2.1577   -0.1642 C.ar    1  LIG1       -0.0260
      3 C          -2.6005   -1.0479   -0.7475 C.ar    1  LIG1       -0.0363
      4 C          -3.2646    0.1924   -0.7291 C.ar    1  LIG1        0.0511
      5 C          -4.5279    0.2370   -0.0716 C.ar    1  LIG1        0.0956
      6 N          -5.0961   -0.8491    0.4588 N.ar    1  LIG1       -0.2365
      7 H          -1.6293   -1.1256   -1.2298 H       1  LIG1        0.0637
      8 H          -2.6820   -3.1194   -0.1705 H       1  LIG1        0.0646
      9 C          -5.1001   -3.1634    1.0174 C.1     1  LIG1       -0.0498
     10 C          -5.6202   -4.1425    1.5022 C.1     1  LIG1       -0.1124
     11 H          -6.0899   -4.9930    1.9388 H       1  LIG1        0.1232
     12 N          -2.6996    1.2884   -1.3296 N.pl3   1  LIG1       -0.3563
     13 H          -1.9536    1.1510   -1.9911 H       1  LIG1        0.1424
     14 H          -3.2295    2.1394   -1.4161 H       1  LIG1        0.1424
     15 C          -4.9342    2.7048    0.5340 C.ar    1  LIG1        0.1224
     16 C          -5.3632    1.4756   -0.0260 C.ar    1  LIG1        0.0377
     17 C          -6.6633    1.4083   -0.5306 C.ar    1  LIG1       -0.0277
     18 C          -7.4919    2.5347   -0.5138 C.ar    1  LIG1        0.0436
     19 C          -6.9420    3.7188    0.0219 C.ar    1  LIG1        0.0496
     20 N          -5.7241    3.8019    0.5339 N.ar    1  LIG1       -0.2442
     21 H          -7.0236    0.4622   -0.9235 H       1  LIG1        0.0644
     22 H          -7.5403    4.6305    0.0408 H       1  LIG1        0.0849
     23 C          -3.6675    2.8426    1.1914 C.1     1  LIG1       -0.0491
     24 C          -2.6078    2.9666    1.7612 C.1     1  LIG1       -0.1124
     25 H          -1.6762    3.0716    2.2667 H       1  LIG1        0.1232
     26 N          -8.8033    2.4928   -0.9557 N.pl3   1  LIG1       -0.3568
     27 H          -9.2235    3.3757   -1.2072 H       1  LIG1        0.1424
     28 H          -9.0465    1.7401   -1.5828 H       1  LIG1        0.1424
@<TRIPOS>BOND
     1    13    12    1
     2    28    26    1
     3    14    12    1
     4    12     4    1
     5     7     3    1
     6    27    26    1
     7    26    18    1
     8    21    17    1
     9     3     4   ar
    10     3     2   ar
    11     4     5   ar
    12    17    18   ar
    13    17    16   ar
    14    18    19   ar
    15     8     2    1
    16     2     1   ar
    17     5    16    1
    18     5     6   ar
    19    16    15   ar
    20    19    22    1
    21    19    20   ar
    22     1     6   ar
    23     1     9    1
    24    20    15   ar
    25    15    23    1
    26     9    10    3
    27    23    24    3
    28    10    11    1
    29    24    25    1
