@<TRIPOS>MOLECULE
mol_data/opt/b3lyp/geoms/mol2/6eh6ei4fd-13le-.out
 55 58 0 0 0
SMALL
GASTEIGER

@<TRIPOS>ATOM
      1 C          -4.2244   -2.4099    0.4062 C.ar    1  LIG1        0.1139
      2 C          -2.9612   -2.4892   -0.2053 C.ar    1  LIG1       -0.0260
      3 C          -2.4450   -1.3672   -0.8319 C.ar    1  LIG1       -0.0363
      4 C          -3.1828   -0.1735   -0.8446 C.ar    1  LIG1        0.0511
      5 C          -4.4448   -0.1859   -0.1930 C.ar    1  LIG1        0.0956
      6 N          -4.9403   -1.2712    0.4026 N.ar    1  LIG1       -0.2365
      7 H          -1.4731   -1.4054   -1.3174 H       1  LIG1        0.0637
      8 H          -2.4072   -3.4214   -0.1858 H       1  LIG1        0.0646
      9 C          -4.7889   -3.5547    1.0586 C.1     1  LIG1       -0.0498
     10 C          -5.2342   -4.5403    1.6006 C.1     1  LIG1       -0.1124
     11 H          -5.6437   -5.3971    2.0832 H       1  LIG1        0.1232
     12 N          -2.6739    0.9757   -1.4343 N.pl3   1  LIG1       -0.3563
     13 H          -1.9655    0.8253   -2.1391 H       1  LIG1        0.1424
     14 H          -3.3569    1.6697   -1.7050 H       1  LIG1        0.1424
     15 C          -6.5895    1.0990   -0.6867 C.ar    1  LIG1        0.1230
     16 C          -5.2870    1.0460   -0.1393 C.ar    1  LIG1        0.0363
     17 C          -4.8286    2.1965    0.5070 C.ar    1  LIG1       -0.0449
     18 C          -5.6106    3.3493    0.6061 C.ar    1  LIG1       -0.0237
     19 C          -6.8823    3.3022   -0.0087 C.ar    1  LIG1        0.0788
     20 N          -7.3525    2.2034   -0.6145 N.ar    1  LIG1       -0.2374
     21 H          -3.8456    2.1819    0.9704 H       1  LIG1        0.0628
     22 C          -7.1604   -0.0183   -1.3823 C.1     1  LIG1       -0.0491
     23 C          -7.6483   -0.9392   -1.9944 C.1     1  LIG1       -0.1124
     24 H          -8.0820   -1.7609   -2.5156 H       1  LIG1        0.1232
     25 C          -5.1093    4.5397    1.3828 C.3     1  LIG1       -0.0377
     26 H          -5.9040    4.9785    1.9940 H       1  LIG1        0.0278
     27 H          -4.7478    5.3258    0.7135 H       1  LIG1        0.0278
     28 H          -4.2910    4.2486    2.0468 H       1  LIG1        0.0278
     29 C          -7.5486    5.7314   -0.4737 C.ar    1  LIG1        0.1267
     30 C          -8.4966    6.7525   -0.4533 C.ar    1  LIG1       -0.0091
     31 C          -7.8431    4.4442    0.0200 C.ar    1  LIG1        0.0433
     32 C          -9.7961    6.5622    0.0452 C.ar    1  LIG1        0.0227
     33 H          -8.2340    7.7268   -0.8494 H       1  LIG1        0.0661
     34 C          -9.1412    4.2320    0.4746 C.ar    1  LIG1       -0.0310
     35 C         -10.1079    5.2494    0.5096 C.ar    1  LIG1        0.0618
     36 H          -9.4129    3.2383    0.8127 H       1  LIG1        0.0638
     37 O          -6.3148    5.9399   -1.0152 O.3     1  LIG1       -0.5061
     38 H          -6.2724    6.8426   -1.3594 H       1  LIG1        0.2922
     39 N         -12.4542    4.6350    1.4299 N.1     1  LIG1       -0.1908
     40 C         -11.3938    4.9031    1.0250 C.1     1  LIG1        0.0998
     41 C         -10.7286    7.6850    0.0462 C.ar    1  LIG1        0.0913
     42 C         -10.4992    9.0491   -0.1721 C.ar    1  LIG1        0.1606
     43 C         -11.7459    9.7463   -0.0825 C.ar    1  LIG1        0.0842
     44 C         -12.7053    8.7760    0.1917 C.ar    1  LIG1        0.0213
     45 N         -12.0977    7.5684    0.2590 N.ar    1  LIG1       -0.3565
     46 H         -12.5735    6.7023    0.4694 H       1  LIG1        0.1655
     47 H         -13.7700    8.8842    0.3300 H       1  LIG1        0.0820
     48 O          -9.2839    9.5952   -0.4685 O.3     1  LIG1       -0.4918
     49 C          -8.8306   10.6216    0.4268 C.3     1  LIG1        0.0789
     50 H          -7.8549   10.9382    0.0538 H       1  LIG1        0.0660
     51 H          -9.5145   11.4740    0.4307 H       1  LIG1        0.0660
     52 H          -8.7264   10.2291    1.4452 H       1  LIG1        0.0660
     53 C         -11.9898   11.1294   -0.2770 C.1     1  LIG1       -0.0645
     54 C         -12.2054   12.3099   -0.4408 C.1     1  LIG1       -0.1137
     55 H         -12.4012   13.3444   -0.6016 H       1  LIG1        0.1232
@<TRIPOS>BOND
     1    24    23    1
     2    13    12    1
     3    23    22    3
     4    14    12    1
     5    12     4    1
     6    22    15    1
     7    38    37    1
     8     7     3    1
     9    37    29    1
    10    33    30    1
    11     4     3   ar
    12     4     5   ar
    13     3     2   ar
    14    15    20   ar
    15    15    16   ar
    16    20    19   ar
    17    55    54    1
    18    29    30   ar
    19    29    31   ar
    20    48    42    1
    21    48    49    1
    22    30    32   ar
    23    54    53    3
    24    53    43    1
    25     2     8    1
    26     2     1   ar
    27     5    16    1
    28     5     6   ar
    29    42    43   ar
    30    42    41   ar
    31    16    17   ar
    32    43    44   ar
    33    19    31    1
    34    19    18   ar
    35    31    34   ar
    36    32    41    1
    37    32    35   ar
    38    41    45   ar
    39    50    49    1
    40    44    45   ar
    41    44    47    1
    42    45    46    1
    43     6     1   ar
    44     1     9    1
    45    49    51    1
    46    49    52    1
    47    34    35   ar
    48    34    36    1
    49    17    18   ar
    50    17    21    1
    51    35    40    1
    52    18    25    1
    53    27    25    1
    54    40    39    3
    55     9    10    3
    56    25    26    1
    57    25    28    1
    58    10    11    1
