@<TRIPOS>MOLECULE
mol_data/opt/b3lyp/geoms/mol2/6eh6eh-6eh.out
 41 43 0 0 0
SMALL
GASTEIGER

@<TRIPOS>ATOM
      1 C          -4.4565   -2.1336   -0.3760 C.ar    1  LIG1        0.1139
      2 C          -3.0992   -2.2360   -0.0278 C.ar    1  LIG1       -0.0260
      3 C          -2.4169   -1.0886    0.3341 C.ar    1  LIG1       -0.0363
      4 C          -3.0692    0.1567    0.3425 C.ar    1  LIG1        0.0511
      5 C          -4.4368    0.1682   -0.0538 C.ar    1  LIG1        0.0956
      6 N          -5.0942   -0.9506   -0.3778 N.ar    1  LIG1       -0.2365
      7 H          -1.3712   -1.1424    0.6271 H       1  LIG1        0.0637
      8 H          -2.6048   -3.2012   -0.0402 H       1  LIG1        0.0646
      9 C          -5.2074   -3.3004   -0.7363 C.1     1  LIG1       -0.0498
     10 C          -5.8115   -4.3057   -1.0334 C.1     1  LIG1       -0.1124
     11 H          -6.3567   -5.1808   -1.3009 H       1  LIG1        0.1232
     12 N          -2.4132    1.2811    0.8164 N.pl3   1  LIG1       -0.3563
     13 H          -1.4081    1.1851    0.8716 H       1  LIG1        0.1424
     14 H          -2.6787    2.1604    0.3942 H       1  LIG1        0.1424
     15 C          -5.0003    2.6017   -0.7234 C.ar    1  LIG1        0.1231
     16 C          -5.2884    1.3968   -0.0384 C.ar    1  LIG1        0.0378
     17 C          -6.4912    1.3451    0.6602 C.ar    1  LIG1       -0.0270
     18 C          -7.3676    2.4368    0.7073 C.ar    1  LIG1        0.0517
     19 C          -6.9796    3.6034   -0.0117 C.ar    1  LIG1        0.0957
     20 N          -5.8293    3.6608   -0.6835 N.ar    1  LIG1       -0.2358
     21 H          -6.7493    0.4277    1.1806 H       1  LIG1        0.0644
     22 C          -3.8322    2.7608   -1.5416 C.1     1  LIG1       -0.0491
     23 C          -2.8399    2.9027   -2.2211 C.1     1  LIG1       -0.1124
     24 H          -1.9880    3.0229   -2.8496 H       1  LIG1        0.1232
     25 N          -8.4959    2.3858    1.5051 N.pl3   1  LIG1       -0.3563
     26 H          -9.2903    2.9259    1.1911 H       1  LIG1        0.1424
     27 H          -8.7643    1.4543    1.7925 H       1  LIG1        0.1424
     28 C          -9.1154    4.9971   -0.3947 C.ar    1  LIG1        0.1224
     29 C          -7.7598    4.8785   -0.0022 C.ar    1  LIG1        0.0377
     30 C          -7.0892    6.0461    0.3650 C.ar    1  LIG1       -0.0277
     31 C          -7.7536    7.2763    0.3746 C.ar    1  LIG1        0.0436
     32 C          -9.1136    7.2677   -0.0001 C.ar    1  LIG1        0.0496
     33 N          -9.7664    6.1803   -0.3787 N.ar    1  LIG1       -0.2442
     34 H          -6.0399    5.9835    0.6363 H       1  LIG1        0.0644
     35 H          -9.6809    8.1989    0.0038 H       1  LIG1        0.0849
     36 C          -9.8684    3.8778   -0.8824 C.1     1  LIG1       -0.0491
     37 C         -10.5080    2.9311   -1.2829 C.1     1  LIG1       -0.1124
     38 H         -11.0654    2.1066   -1.6635 H       1  LIG1        0.1232
     39 N          -7.1329    8.4447    0.7866 N.pl3   1  LIG1       -0.3568
     40 H          -6.1250    8.4595    0.7212 H       1  LIG1        0.1424
     41 H          -7.5584    9.3062    0.4746 H       1  LIG1        0.1424
@<TRIPOS>BOND
     1    24    23    1
     2    23    22    3
     3    38    37    1
     4    22    15    1
     5    11    10    1
     6    37    36    3
     7    10     9    3
     8    36    28    1
     9     9     1    1
    10    15    20   ar
    11    15    16   ar
    12    20    19   ar
    13    28    33   ar
    14    28    29   ar
    15    33    32   ar
    16     6     1   ar
    17     6     5   ar
    18     1     2   ar
    19     5    16    1
    20     5     4   ar
    21     8     2    1
    22    16    17   ar
    23     2     3   ar
    24    19    29    1
    25    19    18   ar
    26    29    30   ar
    27    32    35    1
    28    32    31   ar
    29     3     4   ar
    30     3     7    1
    31     4    12    1
    32    30    31   ar
    33    30    34    1
    34    31    39    1
    35    14    12    1
    36    41    39    1
    37    17    18   ar
    38    17    21    1
    39    18    25    1
    40    40    39    1
    41    12    13    1
    42    26    25    1
    43    25    27    1
