@<TRIPOS>MOLECULE
mol_data/opt/b3lyp/geoms/mol2/6eh6da12eh12fe4fh12ei13ae12hi-.out
 93 100 0 0 0
SMALL
GASTEIGER

@<TRIPOS>ATOM
      1 C          -4.2808   -2.2777    0.7098 C.ar    1  LIG1        0.1139
      2 C          -3.1301   -2.4594   -0.0776 C.ar    1  LIG1       -0.0260
      3 C          -2.7222   -1.4360   -0.9161 C.ar    1  LIG1       -0.0363
      4 C          -3.4478   -0.2354   -0.9649 C.ar    1  LIG1        0.0511
      5 C          -4.5797   -0.1302   -0.1109 C.ar    1  LIG1        0.0956
      6 N          -4.9766   -1.1292    0.6822 N.ar    1  LIG1       -0.2365
      7 H          -1.8454   -1.5586   -1.5468 H       1  LIG1        0.0637
      8 H          -2.5813   -3.3934   -0.0293 H       1  LIG1        0.0646
      9 C          -4.7422   -3.3189    1.5797 C.1     1  LIG1       -0.0498
     10 C          -5.1046   -4.2140    2.3086 C.1     1  LIG1       -0.1124
     11 H          -5.4381   -4.9837    2.9656 H       1  LIG1        0.1232
     12 N          -3.0426    0.8047   -1.7913 N.pl3   1  LIG1       -0.3563
     13 H          -2.4413    0.5347   -2.5579 H       1  LIG1        0.1424
     14 H          -3.7674    1.4490   -2.0767 H       1  LIG1        0.1424
     15 C          -6.8140    1.0778   -0.0972 C.ar    1  LIG1        0.1500
     16 C          -5.4016    1.1068   -0.0464 C.ar    1  LIG1        0.0381
     17 C          -4.8269    2.3770    0.1338 C.ar    1  LIG1       -0.0477
     18 C          -5.6230    3.5034    0.2623 C.ar    1  LIG1       -0.0319
     19 C          -7.0249    3.3575    0.2033 C.ar    1  LIG1        0.1088
     20 N          -7.5980    2.1522    0.0161 N.ar    1  LIG1       -0.2325
     21 H          -3.7472    2.4691    0.1921 H       1  LIG1        0.0626
     22 N          -8.1662   -1.1047   -0.5664 N.1     1  LIG1       -0.1893
     23 C          -7.5362   -0.1566   -0.3335 C.1     1  LIG1        0.1198
     24 H          -5.1797    4.4797    0.4163 H       1  LIG1        0.0640
     25 C          -7.9266    4.4861    0.3344 C.ar    1  LIG1        0.1711
     26 C          -7.7529    5.8507    0.5636 C.ar    1  LIG1        0.0933
     27 C          -9.0664    6.4348    0.6027 C.ar    1  LIG1        0.0905
     28 C          -9.9469    5.3877    0.3787 C.ar    1  LIG1        0.1961
     29 O          -9.2487    4.2196    0.2237 O.2     1  LIG1       -0.4469
     30 C          -6.5595    6.5902    0.7397 C.1     1  LIG1       -0.0639
     31 C          -5.5779    7.2859    0.8880 C.1     1  LIG1       -0.1137
     32 H          -4.7070    7.8823    1.0340 H       1  LIG1        0.1232
     33 N          -9.3491    7.7527    0.8937 N.pl3   1  LIG1       -0.3540
     34 H          -8.6008    8.3996    0.6865 H       1  LIG1        0.1425
     35 H         -10.2678    8.0771    0.6175 H       1  LIG1        0.1425
     36 C         -11.3675    5.2923    0.2658 C.ar    1  LIG1        0.2148
     37 C         -12.4041    6.1865    0.1693 C.ar    1  LIG1        0.1822
     38 C         -13.6244    5.4355    0.0540 C.ar    1  LIG1        0.1126
     39 C         -13.2526    4.0912    0.0779 C.ar    1  LIG1        0.1584
     40 O         -11.8958    4.0289    0.2147 O.2     1  LIG1       -0.4465
     41 O         -12.3026    7.5414    0.1495 O.3     1  LIG1       -0.5023
     42 H         -13.2037    7.8988    0.0749 H       1  LIG1        0.2923
     43 C         -14.8451    6.1295   -0.1216 C.1     1  LIG1       -0.0622
     44 C         -15.7543    6.9191   -0.2712 C.1     1  LIG1       -0.1137
     45 H         -16.6104    7.5385   -0.4070 H       1  LIG1        0.1232
     46 C         -15.2670    2.5524    0.0611 C.ar    1  LIG1        0.1283
     47 C         -15.7617    1.2648   -0.0666 C.ar    1  LIG1       -0.0070
     48 C         -13.8789    2.7881   -0.0509 C.ar    1  LIG1        0.0618
     49 C         -14.9331    0.1444   -0.2935 C.ar    1  LIG1        0.0426
     50 H         -16.8301    1.1064    0.0356 H       1  LIG1        0.0662
     51 C         -13.0533    1.6774   -0.2894 C.ar    1  LIG1       -0.0261
     52 C         -13.5252    0.3694   -0.4148 C.ar    1  LIG1        0.0363
     53 H         -11.9864    1.8442   -0.3814 H       1  LIG1        0.0644
     54 O         -16.0790    3.6216    0.3204 O.3     1  LIG1       -0.5060
     55 H         -16.9947    3.3185    0.3713 H       1  LIG1        0.2922
     56 N         -12.5892   -0.6486   -0.5997 N.pl3   1  LIG1       -0.3574
     57 H         -12.8909   -1.4366   -1.1506 H       1  LIG1        0.1423
     58 H         -11.6637   -0.3248   -0.8472 H       1  LIG1        0.1423
     59 C         -15.5332   -1.1730   -0.3654 C.ar    1  LIG1        0.1532
     60 C         -16.8314   -1.6820   -0.3296 C.ar    1  LIG1        0.0740
     61 C         -16.7352   -3.1225   -0.3895 C.ar    1  LIG1        0.0128
     62 C         -15.3953   -3.4064   -0.4689 C.ar    1  LIG1        0.1559
     63 O         -14.6777   -2.2352   -0.4617 O.2     1  LIG1       -0.4518
     64 C         -18.0582   -0.9801   -0.2376 C.1     1  LIG1       -0.0656
     65 C         -19.1405   -0.4392   -0.1591 C.1     1  LIG1       -0.1138
     66 H         -20.0898    0.0400   -0.0976 H       1  LIG1        0.1232
     67 C         -17.8745   -4.0912   -0.3551 C.3     1  LIG1       -0.0349
     68 H         -17.5945   -5.0070    0.1748 H       1  LIG1        0.0279
     69 H         -18.1963   -4.3781   -1.3640 H       1  LIG1        0.0279
     70 H         -18.7388   -3.6510    0.1491 H       1  LIG1        0.0279
     71 C         -14.5727   -4.5837   -0.5203 C.ar    1  LIG1        0.0841
     72 C         -14.8210   -5.9227   -0.7665 C.ar    1  LIG1       -0.0172
     73 C         -13.5707   -6.6163   -0.7233 C.ar    1  LIG1        0.0537
     74 C         -12.5718   -5.6600   -0.4385 C.ar    1  LIG1        0.1000
     75 N         -13.2088   -4.4539   -0.3245 N.ar    1  LIG1       -0.3483
     76 H         -12.7404   -3.5982   -0.0637 H       1  LIG1        0.1661
     77 H         -15.7759   -6.3694   -0.9972 H       1  LIG1        0.0652
     78 C         -13.3983   -7.9938   -1.0011 C.1     1  LIG1       -0.0674
     79 C         -13.2909   -9.1772   -1.2501 C.1     1  LIG1       -0.1138
     80 H         -13.2113  -10.2107   -1.4942 H       1  LIG1        0.1232
     81 C         -11.1443   -5.6959   -0.2866 C.ar    1  LIG1        0.1728
     82 C         -10.1679   -6.6521   -0.0760 C.ar    1  LIG1        0.0754
     83 C          -8.9143   -5.9441    0.0259 C.ar    1  LIG1        0.0086
     84 C          -9.2154   -4.6227   -0.1135 C.ar    1  LIG1        0.0974
     85 O         -10.5473   -4.4414   -0.2987 O.2     1  LIG1       -0.4592
     86 H          -8.6166   -3.7228   -0.1117 H       1  LIG1        0.1033
     87 N         -10.3058   -8.0184    0.1216 N.pl3   1  LIG1       -0.3548
     88 H         -11.1777   -8.4164   -0.2101 H       1  LIG1        0.1424
     89 H          -9.5065   -8.5580   -0.1837 H       1  LIG1        0.1424
     90 C          -7.5731   -6.5660    0.2641 C.3     1  LIG1       -0.0350
     91 H          -6.8049   -5.8006    0.4016 H       1  LIG1        0.0279
     92 H          -7.2604   -7.2021   -0.5749 H       1  LIG1        0.0279
     93 H          -7.5842   -7.1974    1.1610 H       1  LIG1        0.0279
@<TRIPOS>BOND
     1    13    12    1
     2    14    12    1
     3    12     4    1
     4     7     3    1
     5    80    79    1
     6    69    67    1
     7    79    78    3
     8    57    56    1
     9    78    73    1
    10    77    72    1
    11     4     3   ar
    12     4     5   ar
    13     3     2   ar
    14    58    56    1
    15    72    73   ar
    16    72    71   ar
    17    73    74   ar
    18    56    52    1
    19    92    90    1
    20    22    23    3
    21    71    62    1
    22    71    75   ar
    23    62    63   ar
    24    62    61   ar
    25    63    59   ar
    26    74    75   ar
    27    74    81    1
    28    52    49   ar
    29    52    51   ar
    30    45    44    1
    31    61    67    1
    32    61    60   ar
    33    53    51    1
    34    59    60   ar
    35    59    49    1
    36    67    70    1
    37    67    68    1
    38    23    15    1
    39    60    64    1
    40    75    76    1
    41    85    81   ar
    42    85    84   ar
    43    49    47   ar
    44    51    48   ar
    45    81    82   ar
    46    44    43    3
    47    64    65    3
    48    88    87    1
    49    89    87    1
    50    65    66    1
    51    43    38    1
    52    84    86    1
    53    84    83   ar
    54     5    16    1
    55     5     6   ar
    56    15    16   ar
    57    15    20   ar
    58     2     8    1
    59     2     1   ar
    60    82    83   ar
    61    82    87    1
    62    47    50    1
    63    47    46   ar
    64    48    46   ar
    65    48    39    1
    66    16    17   ar
    67    20    19   ar
    68    83    90    1
    69    38    39   ar
    70    38    37   ar
    71    46    54    1
    72    42    41    1
    73    39    40   ar
    74    17    21    1
    75    17    18   ar
    76    41    37    1
    77    37    36   ar
    78    19    18   ar
    79    19    25    1
    80    40    36   ar
    81    29    25   ar
    82    29    28   ar
    83    18    24    1
    84    90    91    1
    85    90    93    1
    86    36    28    1
    87    54    55    1
    88    25    26   ar
    89    28    27   ar
    90    26    27   ar
    91    26    30    1
    92    27    33    1
    93    35    33    1
    94     6     1   ar
    95    34    33    1
    96     1     9    1
    97    30    31    3
    98    31    32    1
    99     9    10    3
   100    10    11    1
