@<TRIPOS>MOLECULE
mol_data/opt/b3lyp/geoms/mol2/6eh6eh-6eh6eh-.out
 54 57 0 0 0
SMALL
GASTEIGER

@<TRIPOS>ATOM
      1 C          -4.2797   -2.1991    0.4448 C.ar    1  LIG1        0.1139
      2 C          -3.0097   -2.3126   -0.1470 C.ar    1  LIG1       -0.0260
      3 C          -2.4532   -1.2035   -0.7581 C.ar    1  LIG1       -0.0363
      4 C          -3.1471    0.0194   -0.7686 C.ar    1  LIG1        0.0511
      5 C          -4.4091    0.0504   -0.1103 C.ar    1  LIG1        0.0956
      6 N          -4.9528   -1.0348    0.4473 N.ar    1  LIG1       -0.2365
      7 H          -1.4808   -1.2700   -1.2393 H       1  LIG1        0.0637
      8 H          -2.4862   -3.2623   -0.1310 H       1  LIG1        0.0646
      9 C          -4.9011   -3.3346    1.0604 C.1     1  LIG1       -0.0498
     10 C          -5.3972   -4.3136    1.5697 C.1     1  LIG1       -0.1124
     11 H          -5.8456   -5.1645    2.0274 H       1  LIG1        0.1232
     12 N          -2.6053    1.1213   -1.3896 N.pl3   1  LIG1       -0.3563
     13 H          -1.9044    0.9632   -2.0965 H       1  LIG1        0.1424
     14 H          -3.1970    1.9228   -1.5411 H       1  LIG1        0.1424
     15 C          -4.8796    2.5164    0.4659 C.ar    1  LIG1        0.1231
     16 C          -5.2686    1.2723   -0.0888 C.ar    1  LIG1        0.0378
     17 C          -6.5578    1.1856   -0.6065 C.ar    1  LIG1       -0.0270
     18 C          -7.4290    2.2826   -0.6080 C.ar    1  LIG1        0.0517
     19 C          -6.9357    3.4933   -0.0433 C.ar    1  LIG1        0.0957
     20 N          -5.7024    3.5815    0.4594 N.ar    1  LIG1       -0.2358
     21 H          -6.8901    0.2371   -1.0187 H       1  LIG1        0.0644
     22 C          -3.6162    2.7005    1.1188 C.1     1  LIG1       -0.0491
     23 C          -2.5588    2.8605    1.6838 C.1     1  LIG1       -0.1124
     24 H          -1.6285    2.9960    2.1845 H       1  LIG1        0.1232
     25 N          -8.6618    2.1880   -1.2344 N.pl3   1  LIG1       -0.3563
     26 H          -9.4059    2.7361   -0.8234 H       1  LIG1        0.1424
     27 H          -8.9604    1.2376   -1.4108 H       1  LIG1        0.1424
     28 C          -8.9911    4.9712    0.4851 C.ar    1  LIG1        0.1231
     29 C          -7.6938    4.7813   -0.0489 C.ar    1  LIG1        0.0378
     30 C          -7.0628    5.9052   -0.5749 C.ar    1  LIG1       -0.0270
     31 C          -7.6853    7.1594   -0.6036 C.ar    1  LIG1        0.0517
     32 C          -8.9963    7.2381   -0.0531 C.ar    1  LIG1        0.0957
     33 N          -9.6058    6.1674    0.4566 N.ar    1  LIG1       -0.2358
     34 H          -6.0581    5.7975   -0.9727 H       1  LIG1        0.0644
     35 C          -9.7160    3.9166    1.1335 C.1     1  LIG1       -0.0491
     36 C         -10.3328    3.0233    1.6701 C.1     1  LIG1       -0.1124
     37 H         -10.8637    2.2501    2.1757 H       1  LIG1        0.1232
     38 N          -7.0692    8.2253   -1.2365 N.pl3   1  LIG1       -0.3563
     39 H          -6.0786    8.0971   -1.3952 H       1  LIG1        0.1424
     40 H          -7.2686    9.1407   -0.8565 H       1  LIG1        0.1424
     41 C          -9.4446    9.7261    0.4588 C.ar    1  LIG1        0.1224
     42 C          -9.8330    8.4767   -0.0836 C.ar    1  LIG1        0.0377
     43 C         -11.1073    8.3843   -0.6453 C.ar    1  LIG1       -0.0277
     44 C         -11.9451    9.5029   -0.6989 C.ar    1  LIG1        0.0436
     45 C         -11.4364   10.7047   -0.1625 C.ar    1  LIG1        0.0496
     46 N         -10.2440   10.8131    0.4012 N.ar    1  LIG1       -0.2442
     47 H         -11.4407    7.4260   -1.0315 H       1  LIG1        0.0644
     48 H         -12.0454   11.6088   -0.1901 H       1  LIG1        0.0849
     49 C          -8.1976    9.9052    1.1443 C.1     1  LIG1       -0.0491
     50 C          -7.1397   10.0600    1.7127 C.1     1  LIG1       -0.1124
     51 H          -6.2243   10.1924    2.2417 H       1  LIG1        0.1232
     52 N         -13.2308    9.4366   -1.2070 N.pl3   1  LIG1       -0.3568
     53 H         -13.6455   10.3101   -1.4979 H       1  LIG1        0.1424
     54 H         -13.4300    8.6713   -1.8345 H       1  LIG1        0.1424
@<TRIPOS>BOND
     1    13    12    1
     2    54    52    1
     3    14    12    1
     4    53    52    1
     5    27    25    1
     6    39    38    1
     7    12     4    1
     8     7     3    1
     9    38    40    1
    10    38    31    1
    11    25    26    1
    12    25    18    1
    13    52    44    1
    14    47    43    1
    15    21    17    1
    16    34    30    1
    17     4     3   ar
    18     4     5   ar
    19     3     2   ar
    20    44    43   ar
    21    44    45   ar
    22    43    42   ar
    23    18    17   ar
    24    18    19   ar
    25    17    16   ar
    26    31    30   ar
    27    31    32   ar
    28    30    29   ar
    29    48    45    1
    30    45    46   ar
    31     2     8    1
    32     2     1   ar
    33     5    16    1
    34     5     6   ar
    35    16    15   ar
    36    42    32    1
    37    42    41   ar
    38    32    33   ar
    39    29    19    1
    40    29    28   ar
    41    19    20   ar
    42    46    41   ar
    43     1     6   ar
    44     1     9    1
    45    33    28   ar
    46    41    49    1
    47    20    15   ar
    48    15    22    1
    49    28    35    1
    50     9    10    3
    51    22    23    3
    52    35    36    3
    53    49    50    3
    54    10    11    1
    55    36    37    1
    56    23    24    1
    57    50    51    1
