@<TRIPOS>MOLECULE
mol_data/opt/b3lyp/geoms/mol2/6ei4fe-12hh-6hl-.out
 55 58 0 0 0
SMALL
GASTEIGER

@<TRIPOS>ATOM
      1 C          -3.5624   -1.8854   -0.7635 C.ar    1  LIG1        0.1138
      2 C          -2.6082   -2.0208    0.2553 C.ar    1  LIG1       -0.0275
      3 C          -2.5476   -1.0354    1.2318 C.ar    1  LIG1       -0.0542
      4 C          -3.3996    0.0722    1.1839 C.ar    1  LIG1       -0.0243
      5 C          -4.2972    0.1367    0.0914 C.ar    1  LIG1        0.0788
      6 N          -4.3879   -0.8259   -0.8377 N.ar    1  LIG1       -0.2380
      7 H          -1.8419   -1.1295    2.0531 H       1  LIG1        0.0622
      8 H          -1.9540   -2.8854    0.2793 H       1  LIG1        0.0645
      9 C          -3.6899   -2.8957   -1.7752 C.1     1  LIG1       -0.0498
     10 C          -3.7716   -3.7648   -2.6121 C.1     1  LIG1       -0.1124
     11 H          -3.8576   -4.5209   -3.3577 H       1  LIG1        0.1232
     12 C          -3.3655    1.1064    2.2795 C.3     1  LIG1       -0.0377
     13 H          -4.3754    1.4139    2.5677 H       1  LIG1        0.0278
     14 H          -2.8371    2.0070    1.9533 H       1  LIG1        0.0278
     15 H          -2.8614    0.7127    3.1663 H       1  LIG1        0.0278
     16 C          -4.8964    2.6012   -0.2118 C.ar    1  LIG1        0.1268
     17 C          -5.8582    3.5963   -0.3852 C.ar    1  LIG1       -0.0076
     18 C          -5.2764    1.2526   -0.0803 C.ar    1  LIG1        0.0432
     19 C          -7.2301    3.3000   -0.4665 C.ar    1  LIG1        0.0380
     20 H          -5.5412    4.6364   -0.4154 H       1  LIG1        0.0662
     21 C          -6.6364    0.9567   -0.1873 C.ar    1  LIG1       -0.0329
     22 C          -7.6251    1.9356   -0.3761 C.ar    1  LIG1        0.0362
     23 H          -6.9389   -0.0834   -0.1406 H       1  LIG1        0.0638
     24 O          -3.5639    2.9032   -0.1684 O.3     1  LIG1       -0.5061
     25 H          -3.4527    3.8566   -0.2817 H       1  LIG1        0.2922
     26 C          -8.9798    1.5138   -0.5359 C.1     1  LIG1       -0.0689
     27 C         -10.1085    1.1038   -0.6928 C.1     1  LIG1       -0.1139
     28 H         -11.1107    0.7760   -0.8435 H       1  LIG1        0.1232
     29 C          -8.1587    4.3990   -0.6627 C.ar    1  LIG1        0.1594
     30 C          -8.0553    5.5721   -1.3781 C.ar    1  LIG1        0.0926
     31 C          -9.2619    6.3076   -1.1549 C.ar    1  LIG1        0.0927
     32 C         -10.0498    5.5434   -0.3113 C.ar    1  LIG1        0.1615
     33 O          -9.3848    4.3797   -0.0302 O.2     1  LIG1       -0.4509
     34 N          -6.9956    6.0298   -2.1746 N.pl3   1  LIG1       -0.3536
     35 H          -6.3699    5.2803   -2.4501 H       1  LIG1        0.1425
     36 H          -7.3342    6.4996   -3.0093 H       1  LIG1        0.1425
     37 N          -9.5614    7.5836   -1.6911 N.pl3   1  LIG1       -0.3536
     38 H          -8.7233    8.0850   -1.9636 H       1  LIG1        0.1425
     39 H         -10.2078    7.5515   -2.4745 H       1  LIG1        0.1425
     40 C         -12.1230    4.7513    0.9375 C.ar    1  LIG1        0.1272
     41 C         -11.3485    5.7701    0.3066 C.ar    1  LIG1        0.0621
     42 C         -11.8753    7.0778    0.3114 C.ar    1  LIG1       -0.0044
     43 C         -13.1002    7.3373    0.9127 C.ar    1  LIG1        0.1389
     44 C         -13.7765    6.2655    1.5084 C.ar    1  LIG1        0.0713
     45 N         -13.3056    5.0245    1.5224 N.ar    1  LIG1       -0.2364
     46 H         -11.2932    7.8632   -0.1538 H       1  LIG1        0.0663
     47 H         -14.7360    6.4428    1.9905 H       1  LIG1        0.0868
     48 N         -11.7649    3.4257    0.9611 N.pl3   1  LIG1       -0.3426
     49 H         -12.3052    2.8657    1.6025 H       1  LIG1        0.1437
     50 H         -10.8086    3.1559    0.7948 H       1  LIG1        0.1437
     51 O         -13.7116    8.5629    0.9854 O.3     1  LIG1       -0.4936
     52 C         -13.0281    9.6674    0.4216 C.3     1  LIG1        0.0789
     53 H         -13.6654   10.5374    0.5887 H       1  LIG1        0.0660
     54 H         -12.0556    9.8340    0.9039 H       1  LIG1        0.0660
     55 H         -12.8680    9.5411   -0.6579 H       1  LIG1        0.0660
@<TRIPOS>BOND
     1    11    10    1
     2    36    34    1
     3    10     9    3
     4    39    37    1
     5    35    34    1
     6    34    30    1
     7    38    37    1
     8     9     1    1
     9    37    31    1
    10    30    31   ar
    11    30    29   ar
    12    31    32   ar
    13    28    27    1
    14     6     1   ar
    15     6     5   ar
    16     1     2   ar
    17    27    26    3
    18    29    19    1
    19    29    33   ar
    20    55    52    1
    21    26    22    1
    22    19    17   ar
    23    19    22   ar
    24    20    17    1
    25    17    16   ar
    26    22    21   ar
    27    32    33   ar
    28    32    41    1
    29    25    24    1
    30    16    24    1
    31    16    18   ar
    32    21    23    1
    33    21    18   ar
    34    46    42    1
    35    18     5    1
    36     5     4   ar
    37     2     8    1
    38     2     3   ar
    39    41    42   ar
    40    41    40   ar
    41    42    43   ar
    42    52    53    1
    43    52    54    1
    44    52    51    1
    45    50    48    1
    46    43    51    1
    47    43    44   ar
    48    40    48    1
    49    40    45   ar
    50    48    49    1
    51     4     3   ar
    52     4    12    1
    53     3     7    1
    54    44    45   ar
    55    44    47    1
    56    14    12    1
    57    12    13    1
    58    12    15    1
