@<TRIPOS>MOLECULE
mol_data/opt/b3lyp/geoms/mol2/6ei6ei6ei.out
 44 46 0 0 0
SMALL
GASTEIGER

@<TRIPOS>ATOM
      1 C          -3.3701   -1.3618   -1.3975 C.ar    1  LIG1        0.1138
      2 C          -3.3239   -2.3582   -0.4109 C.ar    1  LIG1       -0.0275
      3 C          -4.0107   -2.1404    0.7760 C.ar    1  LIG1       -0.0542
      4 C          -4.7508   -0.9695    0.9698 C.ar    1  LIG1       -0.0243
      5 C          -4.7651   -0.0474   -0.1025 C.ar    1  LIG1        0.0779
      6 N          -4.0755   -0.2275   -1.2377 N.ar    1  LIG1       -0.2381
      7 H          -3.9650   -2.8795    1.5716 H       1  LIG1        0.0622
      8 H          -2.7470   -3.2615   -0.5751 H       1  LIG1        0.0645
      9 C          -2.6459   -1.5238   -2.6258 C.1     1  LIG1       -0.0498
     10 C          -2.0240   -1.6912   -3.6492 C.1     1  LIG1       -0.1124
     11 H          -1.4834   -1.8233   -4.5578 H       1  LIG1        0.1232
     12 C          -5.4535   -0.7193    2.2802 C.3     1  LIG1       -0.0377
     13 H          -6.5205   -0.9540    2.2097 H       1  LIG1        0.0278
     14 H          -5.3747    0.3278    2.5855 H       1  LIG1        0.0278
     15 H          -5.0224   -1.3393    3.0711 H       1  LIG1        0.0278
     16 C          -6.8992    1.3606    0.0920 C.ar    1  LIG1        0.1230
     17 C          -5.4974    1.2537   -0.0304 C.ar    1  LIG1        0.0347
     18 C          -4.7856    2.4472   -0.1679 C.ar    1  LIG1       -0.0449
     19 C          -5.4153    3.6900   -0.1068 C.ar    1  LIG1       -0.0237
     20 C          -6.8135    3.6778    0.1049 C.ar    1  LIG1        0.0780
     21 N          -7.5280    2.5484    0.1599 N.ar    1  LIG1       -0.2374
     22 H          -3.7149    2.3942   -0.3424 H       1  LIG1        0.0628
     23 C          -7.7485    0.2026    0.0884 C.1     1  LIG1       -0.0491
     24 C          -8.4733   -0.7655    0.0680 C.1     1  LIG1       -0.1124
     25 H          -9.1188   -1.6129    0.0406 H       1  LIG1        0.1232
     26 C          -4.6217    4.9575   -0.2990 C.3     1  LIG1       -0.0377
     27 H          -4.3973    5.4346    0.6604 H       1  LIG1        0.0278
     28 H          -5.1714    5.6868   -0.9006 H       1  LIG1        0.0278
     29 H          -3.6748    4.7436   -0.8020 H       1  LIG1        0.0278
     30 C          -7.4745    5.8873    1.2237 C.ar    1  LIG1        0.1223
     31 C          -7.6284    4.9279    0.1959 C.ar    1  LIG1        0.0347
     32 C          -8.6381    5.1498   -0.7432 C.ar    1  LIG1       -0.0455
     33 C          -9.4253    6.3012   -0.6896 C.ar    1  LIG1       -0.0316
     34 C          -9.1510    7.1970    0.3528 C.ar    1  LIG1        0.0319
     35 N          -8.2236    7.0056    1.2889 N.ar    1  LIG1       -0.2458
     36 H          -8.8018    4.4055   -1.5176 H       1  LIG1        0.0628
     37 H          -9.7265    8.1184    0.4377 H       1  LIG1        0.0832
     38 C          -6.5406    5.6954    2.2977 C.1     1  LIG1       -0.0491
     39 C          -5.7700    5.5372    3.2166 C.1     1  LIG1       -0.1124
     40 H          -5.1013    5.4028    4.0351 H       1  LIG1        0.1232
     41 C         -10.5151    6.5700   -1.6949 C.3     1  LIG1       -0.0383
     42 H         -11.0082    7.5259   -1.4987 H       1  LIG1        0.0278
     43 H         -11.2802    5.7861   -1.6693 H       1  LIG1        0.0278
     44 H         -10.1178    6.6000   -2.7155 H       1  LIG1        0.0278
@<TRIPOS>BOND
     1    11    10    1
     2    10     9    3
     3    44    41    1
     4     9     1    1
     5    41    43    1
     6    41    42    1
     7    41    33    1
     8    36    32    1
     9     1     6   ar
    10     1     2   ar
    11     6     5   ar
    12    28    26    1
    13    29    26    1
    14    32    33   ar
    15    32    31   ar
    16    33    34   ar
    17     8     2    1
    18     2     3   ar
    19    22    18    1
    20    26    19    1
    21    26    27    1
    22    18    19   ar
    23    18    17   ar
    24    19    20   ar
    25     5    17    1
    26     5     4   ar
    27    17    16   ar
    28    25    24    1
    29    24    23    3
    30    23    16    1
    31    16    21   ar
    32    20    21   ar
    33    20    31    1
    34    31    30   ar
    35    34    37    1
    36    34    35   ar
    37     3     4   ar
    38     3     7    1
    39     4    12    1
    40    30    35   ar
    41    30    38    1
    42    13    12    1
    43    12    14    1
    44    12    15    1
    45    38    39    3
    46    39    40    1
