@<TRIPOS>MOLECULE
mol_data/opt/b3lyp/geoms/mol2/6ei6ei-.out
 30 31 0 0 0
SMALL
GASTEIGER

@<TRIPOS>ATOM
      1 C          -4.4132   -1.9880    0.7102 C.ar    1  LIG1        0.1138
      2 C          -3.1399   -2.1307    0.1392 C.ar    1  LIG1       -0.0275
      3 C          -2.5838   -1.0365   -0.5102 C.ar    1  LIG1       -0.0542
      4 C          -3.2664    0.1827   -0.5687 C.ar    1  LIG1       -0.0243
      5 C          -4.5259    0.2324    0.0730 C.ar    1  LIG1        0.0779
      6 N          -5.0907   -0.8260    0.6697 N.ar    1  LIG1       -0.2381
      7 H          -1.6131   -1.1275   -0.9906 H       1  LIG1        0.0622
      8 H          -2.6218   -3.0817    0.1935 H       1  LIG1        0.0645
      9 C          -5.0455   -3.1006    1.3595 C.1     1  LIG1       -0.0498
     10 C          -5.5509   -4.0576    1.8988 C.1     1  LIG1       -0.1124
     11 H          -6.0098   -4.8900    2.3803 H       1  LIG1        0.1232
     12 C          -2.6792    1.3528   -1.3163 C.3     1  LIG1       -0.0377
     13 H          -2.2428    2.0845   -0.6291 H       1  LIG1        0.0278
     14 H          -3.4392    1.8765   -1.9034 H       1  LIG1        0.0278
     15 H          -1.8927    1.0176   -1.9981 H       1  LIG1        0.0278
     16 C          -5.0045    2.6683    0.7152 C.ar    1  LIG1        0.1223
     17 C          -5.3760    1.4635    0.0741 C.ar    1  LIG1        0.0347
     18 C          -6.6305    1.4231   -0.5381 C.ar    1  LIG1       -0.0455
     19 C          -7.4565    2.5484   -0.5540 C.ar    1  LIG1       -0.0316
     20 C          -6.9601    3.6959    0.0791 C.ar    1  LIG1        0.0319
     21 N          -5.7869    3.7653    0.7052 N.ar    1  LIG1       -0.2458
     22 H          -6.9553    0.4957   -1.0016 H       1  LIG1        0.0628
     23 H          -7.5558    4.6083    0.0866 H       1  LIG1        0.0832
     24 C          -3.7845    2.7742    1.4654 C.1     1  LIG1       -0.0491
     25 C          -2.7676    2.8683    2.1136 C.1     1  LIG1       -0.1124
     26 H          -1.8803    2.9558    2.6970 H       1  LIG1        0.1232
     27 C          -8.8129    2.5333   -1.2100 C.3     1  LIG1       -0.0383
     28 H          -9.4832    1.8201   -0.7171 H       1  LIG1        0.0278
     29 H          -8.7445    2.2373   -2.2626 H       1  LIG1        0.0278
     30 H          -9.2846    3.5188   -1.1681 H       1  LIG1        0.0278
@<TRIPOS>BOND
     1    29    27    1
     2    15    12    1
     3    14    12    1
     4    12    13    1
     5    12     4    1
     6    27    30    1
     7    27    28    1
     8    27    19    1
     9    22    18    1
    10     7     3    1
    11     4     3   ar
    12     4     5   ar
    13    19    18   ar
    14    19    20   ar
    15    18    17   ar
    16     3     2   ar
    17     5    17    1
    18     5     6   ar
    19    17    16   ar
    20    20    23    1
    21    20    21   ar
    22     2     8    1
    23     2     1   ar
    24     6     1   ar
    25    21    16   ar
    26     1     9    1
    27    16    24    1
    28     9    10    3
    29    24    25    3
    30    10    11    1
    31    25    26    1
