@<TRIPOS>MOLECULE
mol_data/opt/b3lyp/geoms/mol2/6ei6ei6ei-6ei-.out
 58 61 0 0 0
SMALL
GASTEIGER

@<TRIPOS>ATOM
      1 C          -3.4468   -1.5429   -1.4917 C.ar    1  LIG1        0.1138
      2 C          -2.9092   -2.2224   -0.3885 C.ar    1  LIG1       -0.0275
      3 C          -3.1727   -1.7272    0.8817 C.ar    1  LIG1       -0.0542
      4 C          -3.9757   -0.5954    1.0547 C.ar    1  LIG1       -0.0243
      5 C          -4.5010   -0.0086   -0.1198 C.ar    1  LIG1        0.0779
      6 N          -4.2237   -0.4530   -1.3530 N.ar    1  LIG1       -0.2381
      7 H          -2.7420   -2.2139    1.7530 H       1  LIG1        0.0622
      8 H          -2.2891   -3.0993   -0.5380 H       1  LIG1        0.0645
      9 C          -3.1716   -1.9947   -2.8256 C.1     1  LIG1       -0.0498
     10 C          -2.9198   -2.4012   -3.9363 C.1     1  LIG1       -0.1124
     11 H          -2.7098   -2.7470   -4.9220 H       1  LIG1        0.1232
     12 C          -4.2190   -0.0340    2.4327 C.3     1  LIG1       -0.0377
     13 H          -5.2109   -0.3103    2.8044 H       1  LIG1        0.0278
     14 H          -4.1666    1.0586    2.4361 H       1  LIG1        0.0278
     15 H          -3.4751   -0.4132    3.1387 H       1  LIG1        0.0278
     16 C          -6.6464    1.2576    0.4894 C.ar    1  LIG1        0.1230
     17 C          -5.3605    1.2153   -0.0896 C.ar    1  LIG1        0.0347
     18 C          -4.9035    2.3867   -0.6968 C.ar    1  LIG1       -0.0449
     19 C          -5.6690    3.5524   -0.7155 C.ar    1  LIG1       -0.0237
     20 C          -6.9433    3.4788   -0.1067 C.ar    1  LIG1        0.0780
     21 N          -7.4031    2.3708    0.4848 N.ar    1  LIG1       -0.2374
     22 H          -3.9196    2.3839   -1.1570 H       1  LIG1        0.0628
     23 C          -7.2483    0.0953    1.0803 C.1     1  LIG1       -0.0491
     24 C          -7.7695   -0.8818    1.5667 C.1     1  LIG1       -0.1124
     25 H          -8.2416   -1.7414    1.9833 H       1  LIG1        0.1232
     26 C          -5.1208    4.8155   -1.3294 C.3     1  LIG1       -0.0377
     27 H          -5.3571    5.6933   -0.7210 H       1  LIG1        0.0278
     28 H          -5.5464    4.9884   -2.3229 H       1  LIG1        0.0278
     29 H          -4.0344    4.7521   -1.4327 H       1  LIG1        0.0278
     30 C          -8.4350    5.2887   -1.1418 C.ar    1  LIG1        0.1230
     31 C          -7.8626    4.6541   -0.0185 C.ar    1  LIG1        0.0347
     32 C          -8.2561    5.1227    1.2365 C.ar    1  LIG1       -0.0449
     33 C          -9.1103    6.2161    1.3789 C.ar    1  LIG1       -0.0237
     34 C          -9.5523    6.8292    0.1839 C.ar    1  LIG1        0.0780
     35 N          -9.2538    6.3504   -1.0290 N.ar    1  LIG1       -0.2374
     36 H          -7.8948    4.6046    2.1202 H       1  LIG1        0.0628
     37 C          -8.2257    4.7959   -2.4740 C.1     1  LIG1       -0.0491
     38 C          -8.0676    4.3734   -3.5962 C.1     1  LIG1       -0.1124
     39 H          -7.9378    3.9974   -4.5848 H       1  LIG1        0.1232
     40 C          -9.5495    6.6667    2.7492 C.3     1  LIG1       -0.0377
     41 H          -9.3965    5.8692    3.4812 H       1  LIG1        0.0278
     42 H         -10.6080    6.9418    2.7598 H       1  LIG1        0.0278
     43 H          -8.9850    7.5446    3.0788 H       1  LIG1        0.0278
     44 C         -10.1198    9.2746    0.7072 C.ar    1  LIG1        0.1223
     45 C         -10.4662    8.0123    0.1712 C.ar    1  LIG1        0.0347
     46 C         -11.7122    7.8992   -0.4500 C.ar    1  LIG1       -0.0455
     47 C         -12.5936    8.9807   -0.4893 C.ar    1  LIG1       -0.0316
     48 C         -12.1540   10.1666    0.1144 C.ar    1  LIG1        0.0319
     49 N         -10.9607   10.3274    0.6827 N.ar    1  LIG1       -0.2458
     50 H         -11.9826    6.9509   -0.9057 H       1  LIG1        0.0628
     51 H         -12.8061   11.0396    0.1270 H       1  LIG1        0.0832
     52 C          -8.8193    9.5256    1.2626 C.1     1  LIG1       -0.0491
     53 C          -7.7218    9.7558    1.7162 C.1     1  LIG1       -0.1124
     54 H          -6.7549    9.9713    2.1086 H       1  LIG1        0.1232
     55 C         -13.9435    8.8861   -1.1524 C.3     1  LIG1       -0.0383
     56 H         -14.5226    8.0428   -0.7610 H       1  LIG1        0.0278
     57 H         -13.8433    8.7350   -2.2333 H       1  LIG1        0.0278
     58 H         -14.5269    9.7974   -0.9958 H       1  LIG1        0.0278
@<TRIPOS>BOND
     1    11    10    1
     2    39    38    1
     3    10     9    3
     4    38    37    3
     5     9     1    1
     6    37    30    1
     7    28    26    1
     8    57    55    1
     9     1     6   ar
    10     1     2   ar
    11    29    26    1
    12     6     5   ar
    13    26    27    1
    14    26    19    1
    15    22    18    1
    16    55    58    1
    17    55    56    1
    18    55    47    1
    19    30    35   ar
    20    30    31   ar
    21    35    34   ar
    22    50    46    1
    23    19    18   ar
    24    19    20   ar
    25    18    17   ar
    26     8     2    1
    27    47    46   ar
    28    47    48   ar
    29    46    45   ar
    30     2     3   ar
    31     5    17    1
    32     5     4   ar
    33    20    31    1
    34    20    21   ar
    35    17    16   ar
    36    31    32   ar
    37    48    51    1
    38    48    49   ar
    39    45    34    1
    40    45    44   ar
    41    34    33   ar
    42    21    16   ar
    43    16    23    1
    44    49    44   ar
    45    44    52    1
    46     3     4   ar
    47     3     7    1
    48     4    12    1
    49    23    24    3
    50    32    33   ar
    51    32    36    1
    52    52    53    3
    53    33    40    1
    54    24    25    1
    55    53    54    1
    56    12    14    1
    57    12    13    1
    58    12    15    1
    59    40    42    1
    60    40    43    1
    61    40    41    1
