@<TRIPOS>MOLECULE
mol_data/opt/b3lyp/geoms/mol2/6ei6ei6ei6ei-.out
 58 61 0 0 0
SMALL
GASTEIGER

@<TRIPOS>ATOM
      1 C          -2.2774   -0.6272   -0.7866 C.ar    1  LIG1        0.1138
      2 C          -2.5691   -1.9604   -0.4620 C.ar    1  LIG1       -0.0275
      3 C          -3.8417   -2.2601    0.0054 C.ar    1  LIG1       -0.0542
      4 C          -4.8142   -1.2616    0.1228 C.ar    1  LIG1       -0.0243
      5 C          -4.4304    0.0419   -0.2694 C.ar    1  LIG1        0.0779
      6 N          -3.1944    0.3519   -0.6851 N.ar    1  LIG1       -0.2381
      7 H          -4.0856   -3.2784    0.2970 H       1  LIG1        0.0622
      8 H          -1.8059   -2.7245   -0.5590 H       1  LIG1        0.0645
      9 C          -0.9649   -0.2614   -1.2373 C.1     1  LIG1       -0.0498
     10 C           0.1510    0.0134   -1.6133 C.1     1  LIG1       -0.1124
     11 H           1.1287    0.2725   -1.9482 H       1  LIG1        0.1232
     12 C          -6.1778   -1.5873    0.6777 C.3     1  LIG1       -0.0377
     13 H          -6.9143   -1.7075   -0.1233 H       1  LIG1        0.0278
     14 H          -6.5450   -0.7942    1.3351 H       1  LIG1        0.0278
     15 H          -6.1462   -2.5184    1.2503 H       1  LIG1        0.0278
     16 C          -6.5481    1.3284   -0.9306 C.ar    1  LIG1        0.1230
     17 C          -5.3574    1.2113   -0.1821 C.ar    1  LIG1        0.0347
     18 C          -5.0085    2.3007    0.6188 C.ar    1  LIG1       -0.0449
     19 C          -5.8328    3.4191    0.7380 C.ar    1  LIG1       -0.0237
     20 C          -7.0427    3.3905    0.0069 C.ar    1  LIG1        0.0780
     21 N          -7.3623    2.3949   -0.8269 N.ar    1  LIG1       -0.2374
     22 H          -4.0593    2.2728    1.1460 H       1  LIG1        0.0628
     23 C          -6.9319    0.3403   -1.8994 C.1     1  LIG1       -0.0491
     24 C          -7.2540   -0.4771   -2.7307 C.1     1  LIG1       -0.1124
     25 H          -7.5392   -1.1875   -3.4719 H       1  LIG1        0.1232
     26 C          -5.4065    4.5953    1.5794 C.3     1  LIG1       -0.0377
     27 H          -5.9154    4.5955    2.5486 H       1  LIG1        0.0278
     28 H          -5.6445    5.5441    1.0898 H       1  LIG1        0.0278
     29 H          -4.3289    4.5655    1.7610 H       1  LIG1        0.0278
     30 C          -8.7404    4.9052    1.1880 C.ar    1  LIG1        0.1230
     31 C          -8.0300    4.5124    0.0340 C.ar    1  LIG1        0.0347
     32 C          -8.3114    5.2042   -1.1462 C.ar    1  LIG1       -0.0449
     33 C          -9.2333    6.2497   -1.1825 C.ar    1  LIG1       -0.0237
     34 C          -9.8857    6.5577    0.0337 C.ar    1  LIG1        0.0780
     35 N          -9.6341    5.9121    1.1773 N.ar    1  LIG1       -0.2374
     36 H          -7.7857    4.9195   -2.0529 H       1  LIG1        0.0628
     37 C          -8.5887    4.2191    2.4405 C.1     1  LIG1       -0.0491
     38 C          -8.4810    3.6388    3.4963 C.1     1  LIG1       -0.1124
     39 H          -8.4023    3.1264    4.4272 H       1  LIG1        0.1232
     40 C          -9.4734    7.0130   -2.4602 C.3     1  LIG1       -0.0377
     41 H          -9.5379    8.0899   -2.2781 H       1  LIG1        0.0278
     42 H         -10.4137    6.7086   -2.9304 H       1  LIG1        0.0278
     43 H          -8.6642    6.8338   -3.1729 H       1  LIG1        0.0278
     44 C         -12.1258    7.6831   -0.4980 C.ar    1  LIG1        0.1223
     45 C         -10.8722    7.6756    0.1572 C.ar    1  LIG1        0.0347
     46 C         -10.5824    8.7500    1.0006 C.ar    1  LIG1       -0.0455
     47 C         -11.4816    9.8079    1.1477 C.ar    1  LIG1       -0.0316
     48 C         -12.6736    9.7199    0.4164 C.ar    1  LIG1        0.0319
     49 N         -13.0032    8.6977   -0.3709 N.ar    1  LIG1       -0.2458
     50 H          -9.6424    8.7484    1.5458 H       1  LIG1        0.0628
     51 H         -13.4076   10.5225    0.4829 H       1  LIG1        0.0832
     52 C         -12.5572    6.5738   -1.3009 C.1     1  LIG1       -0.0491
     53 C         -12.9318    5.6353   -1.9656 C.1     1  LIG1       -0.1124
     54 H         -13.2704    4.8055   -2.5420 H       1  LIG1        0.1232
     55 C         -11.1926   10.9815    2.0476 C.3     1  LIG1       -0.0383
     56 H         -10.2586   11.4805    1.7662 H       1  LIG1        0.0278
     57 H         -11.0877   10.6646    3.0913 H       1  LIG1        0.0278
     58 H         -11.9954   11.7224    2.0024 H       1  LIG1        0.0278
@<TRIPOS>BOND
     1    25    24    1
     2    43    40    1
     3    42    40    1
     4    24    23    3
     5    54    53    1
     6    40    41    1
     7    40    33    1
     8    36    32    1
     9    53    52    3
    10    11    10    1
    11    23    16    1
    12    10     9    3
    13    52    44    1
    14     9     1    1
    15    33    32   ar
    16    33    34   ar
    17    32    31   ar
    18    16    21   ar
    19    16    17   ar
    20    21    20   ar
    21     1     6   ar
    22     1     2   ar
    23     6     5   ar
    24     8     2    1
    25    44    49   ar
    26    44    45   ar
    27     2     3   ar
    28    49    48   ar
    29     5    17    1
    30     5     4   ar
    31    17    18   ar
    32    13    12    1
    33     3     4   ar
    34     3     7    1
    35    20    31    1
    36    20    19   ar
    37    34    45    1
    38    34    35   ar
    39    31    30   ar
    40     4    12    1
    41    45    46   ar
    42    48    51    1
    43    48    47   ar
    44    18    19   ar
    45    18    22    1
    46    12    15    1
    47    12    14    1
    48    19    26    1
    49    46    47   ar
    50    46    50    1
    51    28    26    1
    52    47    55    1
    53    35    30   ar
    54    30    37    1
    55    26    29    1
    56    26    27    1
    57    56    55    1
    58    58    55    1
    59    55    57    1
    60    37    38    3
    61    38    39    1
