@<TRIPOS>MOLECULE
mol_data/opt/b3lyp/geoms/mol2/6ei6ei-6ei-6ei-.out
 58 61 0 0 0
SMALL
GASTEIGER

@<TRIPOS>ATOM
      1 C          -4.1185   -2.0882    0.5117 C.ar    1  LIG1        0.1138
      2 C          -2.9903   -2.2850   -0.2984 C.ar    1  LIG1       -0.0275
      3 C          -2.5499   -1.2261   -1.0812 C.ar    1  LIG1       -0.0542
      4 C          -3.2313   -0.0047   -1.0808 C.ar    1  LIG1       -0.0243
      5 C          -4.3806    0.0763   -0.2605 C.ar    1  LIG1        0.0779
      6 N          -4.7938   -0.9247    0.5292 N.ar    1  LIG1       -0.2381
      7 H          -1.6584   -1.3388   -1.6927 H       1  LIG1        0.0622
      8 H          -2.4725   -3.2377   -0.2895 H       1  LIG1        0.0645
      9 C          -4.5893   -3.1400    1.3669 C.1     1  LIG1       -0.0498
     10 C          -4.9598   -4.0464    2.0764 C.1     1  LIG1       -0.1124
     11 H          -5.3010   -4.8353    2.7061 H       1  LIG1        0.1232
     12 C          -2.7175    1.1561   -1.8944 C.3     1  LIG1       -0.0377
     13 H          -2.7981    2.0987   -1.3456 H       1  LIG1        0.0278
     14 H          -3.2868    1.2741   -2.8219 H       1  LIG1        0.0278
     15 H          -1.6675    1.0036   -2.1590 H       1  LIG1        0.0278
     16 C          -5.9145    1.8937   -1.2207 C.ar    1  LIG1        0.1230
     17 C          -5.1976    1.3231   -0.1471 C.ar    1  LIG1        0.0347
     18 C          -5.3420    1.9340    1.1002 C.ar    1  LIG1       -0.0449
     19 C          -6.0919    3.0981    1.2670 C.ar    1  LIG1       -0.0237
     20 C          -6.6963    3.6292    0.1040 C.ar    1  LIG1        0.0780
     21 N          -6.6385    3.0197   -1.0855 N.ar    1  LIG1       -0.2374
     22 H          -4.8670    1.4721    1.9609 H       1  LIG1        0.0628
     23 C          -5.9653    1.2689   -2.5128 C.1     1  LIG1       -0.0491
     24 C          -6.0288    0.7410   -3.5992 C.1     1  LIG1       -0.1124
     25 H          -6.0981    0.2762   -4.5555 H       1  LIG1        0.1232
     26 C          -6.2602    3.7062    2.6362 C.3     1  LIG1       -0.0377
     27 H          -6.0591    2.9627    3.4121 H       1  LIG1        0.0278
     28 H          -7.2741    4.0889    2.7828 H       1  LIG1        0.0278
     29 H          -5.5744    4.5463    2.7846 H       1  LIG1        0.0278
     30 C          -7.0326    6.1444    0.4700 C.ar    1  LIG1        0.1230
     31 C          -7.5284    4.8697    0.1219 C.ar    1  LIG1        0.0347
     32 C          -8.8593    4.8057   -0.2968 C.ar    1  LIG1       -0.0449
     33 C          -9.6857    5.9288   -0.2927 C.ar    1  LIG1       -0.0237
     34 C          -9.1056    7.1361    0.1610 C.ar    1  LIG1        0.0780
     35 N          -7.8130    7.2406    0.4882 N.ar    1  LIG1       -0.2374
     36 H          -9.2462    3.8527   -0.6457 H       1  LIG1        0.0628
     37 C          -5.6441    6.3609    0.7663 C.1     1  LIG1       -0.0491
     38 C          -4.4735    6.5574    0.9990 C.1     1  LIG1       -0.1124
     39 H          -3.4432    6.7414    1.1992 H       1  LIG1        0.1232
     40 C         -11.1065    5.8324   -0.7877 C.3     1  LIG1       -0.0377
     41 H         -11.2365    4.9405   -1.4063 H       1  LIG1        0.0278
     42 H         -11.3825    6.7064   -1.3846 H       1  LIG1        0.0278
     43 H         -11.8139    5.7746    0.0457 H       1  LIG1        0.0278
     44 C         -10.9766    8.6246    1.0837 C.ar    1  LIG1        0.1223
     45 C          -9.8660    8.4213    0.2315 C.ar    1  LIG1        0.0347
     46 C          -9.4381    9.5075   -0.5351 C.ar    1  LIG1       -0.0455
     47 C         -10.1175   10.7261   -0.4920 C.ar    1  LIG1       -0.0316
     48 C         -11.2278   10.7922    0.3606 C.ar    1  LIG1        0.0319
     49 N         -11.6461    9.7929    1.1349 N.ar    1  LIG1       -0.2458
     50 H          -8.5620    9.3872   -1.1663 H       1  LIG1        0.0628
     51 H         -11.8038   11.7149    0.4257 H       1  LIG1        0.0832
     52 C         -11.4233    7.6060    1.9921 C.1     1  LIG1       -0.0491
     53 C         -11.7974    6.7617    2.7734 C.1     1  LIG1       -0.1124
     54 H         -12.1284    6.0277    3.4713 H       1  LIG1        0.1232
     55 C          -9.6817   11.9119   -1.3133 C.3     1  LIG1       -0.0383
     56 H          -9.6669   11.6732   -2.3825 H       1  LIG1        0.0278
     57 H          -8.6703   12.2330   -1.0402 H       1  LIG1        0.0278
     58 H         -10.3532   12.7624   -1.1686 H       1  LIG1        0.0278
@<TRIPOS>BOND
     1    25    24    1
     2    24    23    3
     3    14    12    1
     4    23    16    1
     5    56    55    1
     6    15    12    1
     7    12    13    1
     8    12     4    1
     9     7     3    1
    10    41    40    1
    11    42    40    1
    12    55    58    1
    13    55    57    1
    14    55    47    1
    15    16    21   ar
    16    16    17   ar
    17    50    46    1
    18    21    20   ar
    19     3     4   ar
    20     3     2   ar
    21     4     5   ar
    22    40    33    1
    23    40    43    1
    24    36    32    1
    25    46    47   ar
    26    46    45   ar
    27    47    48   ar
    28     2     8    1
    29     2     1   ar
    30    32    33   ar
    31    32    31   ar
    32    33    34   ar
    33     5    17    1
    34     5     6   ar
    35    17    18   ar
    36    20    31    1
    37    20    19   ar
    38    31    30   ar
    39    34    45    1
    40    34    35   ar
    41    45    44   ar
    42    48    51    1
    43    48    49   ar
    44    30    35   ar
    45    30    37    1
    46     1     6   ar
    47     1     9    1
    48    37    38    3
    49    38    39    1
    50    44    49   ar
    51    44    52    1
    52    18    19   ar
    53    18    22    1
    54    19    26    1
    55     9    10    3
    56    52    53    3
    57    10    11    1
    58    26    28    1
    59    26    29    1
    60    26    27    1
    61    53    54    1
