@<TRIPOS>MOLECULE
mol_data/opt/b3lyp/geoms/mol2/6ei6ei6ei-6ei.out
 58 61 0 0 0
SMALL
GASTEIGER

@<TRIPOS>ATOM
      1 C          -3.1569   -1.3497   -1.4190 C.ar    1  LIG1        0.1138
      2 C          -2.9036   -2.2244   -0.3521 C.ar    1  LIG1       -0.0275
      3 C          -3.4800   -1.9442    0.8797 C.ar    1  LIG1       -0.0542
      4 C          -4.3131   -0.8327    1.0424 C.ar    1  LIG1       -0.0243
      5 C          -4.5364   -0.0381   -0.1059 C.ar    1  LIG1        0.0779
      6 N          -3.9558   -0.2746   -1.2900 N.ar    1  LIG1       -0.2381
      7 H          -3.2742   -2.5859    1.7325 H       1  LIG1        0.0622
      8 H          -2.2564   -3.0830   -0.4932 H       1  LIG1        0.0645
      9 C          -2.5535   -1.5764   -2.7011 C.1     1  LIG1       -0.0498
     10 C          -2.0290   -1.7958   -3.7683 C.1     1  LIG1       -0.1124
     11 H          -1.5771   -1.9758   -4.7163 H       1  LIG1        0.1232
     12 C          -4.8977   -0.5065    2.3933 C.3     1  LIG1       -0.0377
     13 H          -5.9440   -0.8216    2.4589 H       1  LIG1        0.0278
     14 H          -4.8722    0.5688    2.5924 H       1  LIG1        0.0278
     15 H          -4.3406   -1.0137    3.1858 H       1  LIG1        0.0278
     16 C          -6.7809    1.1713    0.1671 C.ar    1  LIG1        0.1230
     17 C          -5.3917    1.1889   -0.0784 C.ar    1  LIG1        0.0347
     18 C          -4.8139    2.4316   -0.3467 C.ar    1  LIG1       -0.0449
     19 C          -5.5663    3.6057   -0.3504 C.ar    1  LIG1       -0.0237
     20 C          -6.9492    3.4690   -0.0897 C.ar    1  LIG1        0.0780
     21 N          -7.5271    2.2919    0.1713 N.ar    1  LIG1       -0.2374
     22 H          -3.7476    2.4764   -0.5484 H       1  LIG1        0.0628
     23 C          -7.4952   -0.0558    0.3822 C.1     1  LIG1       -0.0491
     24 C          -8.1079   -1.0852    0.5486 C.1     1  LIG1       -0.1124
     25 H          -8.6577   -1.9883    0.6807 H       1  LIG1        0.1232
     26 C          -4.9041    4.9385   -0.5908 C.3     1  LIG1       -0.0377
     27 H          -5.2790    5.7019    0.0975 H       1  LIG1        0.0278
     28 H          -5.0972    5.2968   -1.6068 H       1  LIG1        0.0278
     29 H          -3.8217    4.8600   -0.4589 H       1  LIG1        0.0278
     30 C          -8.1944    5.4495   -1.1362 C.ar    1  LIG1        0.1230
     31 C          -7.8764    4.6410   -0.0246 C.ar    1  LIG1        0.0347
     32 C          -8.5037    4.9531    1.1830 C.ar    1  LIG1       -0.0449
     33 C          -9.3887    6.0253    1.2956 C.ar    1  LIG1       -0.0237
     34 C          -9.6341    6.7660    0.1165 C.ar    1  LIG1        0.0780
     35 N          -9.0439    6.4902   -1.0513 N.ar    1  LIG1       -0.2374
     36 H          -8.2842    4.3453    2.0562 H       1  LIG1        0.0628
     37 C          -7.6611    5.1788   -2.4415 C.1     1  LIG1       -0.0491
     38 C          -7.2261    4.9451   -3.5456 C.1     1  LIG1       -0.1124
     39 H          -6.8569    4.7325   -4.5223 H       1  LIG1        0.1232
     40 C         -10.0067    6.3696    2.6270 C.3     1  LIG1       -0.0377
     41 H          -9.4557    5.8921    3.4416 H       1  LIG1        0.0278
     42 H         -11.0470    6.0333    2.6778 H       1  LIG1        0.0278
     43 H         -10.0083    7.4497    2.8012 H       1  LIG1        0.0278
     44 C         -11.9236    7.9004    0.3237 C.ar    1  LIG1        0.1223
     45 C         -10.5300    7.9638    0.0894 C.ar    1  LIG1        0.0347
     46 C          -9.9904    9.2094   -0.2379 C.ar    1  LIG1       -0.0455
     47 C         -10.7950   10.3495   -0.2824 C.ar    1  LIG1       -0.0316
     48 C         -12.1533   10.1660    0.0088 C.ar    1  LIG1        0.0319
     49 N         -12.7137    8.9913    0.2906 N.ar    1  LIG1       -0.2458
     50 H          -8.9292    9.2765   -0.4620 H       1  LIG1        0.0628
     51 H         -12.8269   11.0226    0.0020 H       1  LIG1        0.0832
     52 C         -12.5870    6.6489    0.5586 C.1     1  LIG1       -0.0491
     53 C         -13.1535    5.5958    0.7399 C.1     1  LIG1       -0.1124
     54 H         -13.6576    4.6685    0.8865 H       1  LIG1        0.1232
     55 C         -10.2387   11.7058   -0.6309 C.3     1  LIG1       -0.0383
     56 H         -11.0089   12.4789   -0.5640 H       1  LIG1        0.0278
     57 H          -9.8384   11.7195   -1.6510 H       1  LIG1        0.0278
     58 H          -9.4203   11.9872    0.0409 H       1  LIG1        0.0278
@<TRIPOS>BOND
     1    11    10    1
     2    39    38    1
     3    10     9    3
     4    38    37    3
     5     9     1    1
     6    37    30    1
     7    57    55    1
     8    28    26    1
     9     1     6   ar
    10     1     2   ar
    11     6     5   ar
    12    30    35   ar
    13    30    31   ar
    14    35    34   ar
    15    55    56    1
    16    55    47    1
    17    55    58    1
    18    26    29    1
    19    26    19    1
    20    26    27    1
    21    22    18    1
    22     8     2    1
    23    50    46    1
    24     2     3   ar
    25    19    18   ar
    26    19    20   ar
    27    18    17   ar
    28    47    46   ar
    29    47    48   ar
    30    46    45   ar
    31     5    17    1
    32     5     4   ar
    33    20    31    1
    34    20    21   ar
    35    17    16   ar
    36    31    32   ar
    37    51    48    1
    38    48    49   ar
    39    45    34    1
    40    45    44   ar
    41    34    33   ar
    42    16    21   ar
    43    16    23    1
    44    49    44   ar
    45    44    52    1
    46    23    24    3
    47    24    25    1
    48    52    53    3
    49    53    54    1
    50     3     4   ar
    51     3     7    1
    52     4    12    1
    53    32    33   ar
    54    32    36    1
    55    33    40    1
    56    12    13    1
    57    12    14    1
    58    12    15    1
    59    40    42    1
    60    40    43    1
    61    40    41    1
