@<TRIPOS>MOLECULE
mol_data/opt/b3lyp/geoms/mol2/6ei6ei-6ei-6ei.out
 58 61 0 0 0
SMALL
GASTEIGER

@<TRIPOS>ATOM
      1 C          -3.0030   -1.3679    0.9766 C.ar    1  LIG1        0.1138
      2 C          -3.0433   -2.3297   -0.0437 C.ar    1  LIG1       -0.0275
      3 C          -3.8856   -2.1073   -1.1249 C.ar    1  LIG1       -0.0542
      4 C          -4.6526   -0.9405   -1.2049 C.ar    1  LIG1       -0.0243
      5 C          -4.5079   -0.0164   -0.1442 C.ar    1  LIG1        0.0779
      6 N          -3.7289   -0.2362    0.9235 N.ar    1  LIG1       -0.2381
      7 H          -3.9623   -2.8511   -1.9138 H       1  LIG1        0.0622
      8 H          -2.4422   -3.2291    0.0313 H       1  LIG1        0.0645
      9 C          -2.1764   -1.5710    2.1319 C.1     1  LIG1       -0.0498
     10 C          -1.4698   -1.7730    3.0921 C.1     1  LIG1       -0.1124
     11 H          -0.8504   -1.9337    3.9441 H       1  LIG1        0.1232
     12 C          -5.6009   -0.7263   -2.3572 C.3     1  LIG1       -0.0377
     13 H          -5.1760   -0.0416   -3.0982 H       1  LIG1        0.0278
     14 H          -6.5471   -0.2916   -2.0225 H       1  LIG1        0.0278
     15 H          -5.8186   -1.6741   -2.8571 H       1  LIG1        0.0278
     16 C          -5.1134    2.3188   -1.0131 C.ar    1  LIG1        0.1230
     17 C          -5.2754    1.2663   -0.0876 C.ar    1  LIG1        0.0347
     18 C          -6.1823    1.4754    0.9535 C.ar    1  LIG1       -0.0449
     19 C          -6.9127    2.6582    1.0646 C.ar    1  LIG1       -0.0237
     20 C          -6.6704    3.6434    0.0799 C.ar    1  LIG1        0.0780
     21 N          -5.8091    3.4683   -0.9275 N.ar    1  LIG1       -0.2374
     22 H          -6.3224    0.6868    1.6871 H       1  LIG1        0.0628
     23 C          -4.1565    2.2456   -2.0813 C.1     1  LIG1       -0.0491
     24 C          -3.3423    2.1996   -2.9745 C.1     1  LIG1       -0.1124
     25 H          -2.6168    2.1736   -3.7545 H       1  LIG1        0.1232
     26 C          -7.9234    2.8329    2.1695 C.3     1  LIG1       -0.0377
     27 H          -8.1769    1.8676    2.6155 H       1  LIG1        0.0278
     28 H          -8.8449    3.2927    1.8002 H       1  LIG1        0.0278
     29 H          -7.5337    3.4807    2.9610 H       1  LIG1        0.0278
     30 C          -7.2718    5.9436    1.0367 C.ar    1  LIG1        0.1230
     31 C          -7.4037    4.9468    0.0470 C.ar    1  LIG1        0.0347
     32 C          -8.2446    5.2339   -1.0299 C.ar    1  LIG1       -0.0449
     33 C          -8.9399    6.4398   -1.1180 C.ar    1  LIG1       -0.0237
     34 C          -8.7307    7.3656   -0.0700 C.ar    1  LIG1        0.0780
     35 N          -7.9338    7.1140    0.9739 N.ar    1  LIG1       -0.2374
     36 H          -8.3624    4.4889   -1.8116 H       1  LIG1        0.0628
     37 C          -6.3824    5.7841    2.1525 C.1     1  LIG1       -0.0491
     38 C          -5.6231    5.6600    3.0857 C.1     1  LIG1       -0.1124
     39 H          -4.9435    5.5602    3.9004 H       1  LIG1        0.1232
     40 C          -9.8830    6.6961   -2.2660 C.3     1  LIG1       -0.0377
     41 H         -10.1353    5.7607   -2.7725 H       1  LIG1        0.0278
     42 H          -9.4343    7.3704   -3.0021 H       1  LIG1        0.0278
     43 H         -10.8120    7.1630   -1.9255 H       1  LIG1        0.0278
     44 C          -9.2293    9.7221   -0.9474 C.ar    1  LIG1        0.1223
     45 C          -9.4340    8.6846   -0.0079 C.ar    1  LIG1        0.0347
     46 C         -10.2989    8.9447    1.0570 C.ar    1  LIG1       -0.0455
     47 C         -10.9672   10.1665    1.1552 C.ar    1  LIG1       -0.0316
     48 C         -10.7134   11.0996    0.1412 C.ar    1  LIG1        0.0319
     49 N          -9.8702   10.9048   -0.8710 N.ar    1  LIG1       -0.2458
     50 H         -10.4412    8.1779    1.8137 H       1  LIG1        0.0628
     51 H         -11.2169   12.0658    0.1589 H       1  LIG1        0.0832
     52 C          -8.2768    9.5894   -2.0136 C.1     1  LIG1       -0.0491
     53 C          -7.4635    9.4896   -2.9032 C.1     1  LIG1       -0.1124
     54 H          -6.7383    9.4101   -3.6799 H       1  LIG1        0.1232
     55 C         -11.9071   10.4729    2.2925 C.3     1  LIG1       -0.0383
     56 H         -12.3707   11.4554    2.1695 H       1  LIG1        0.0278
     57 H         -11.3803   10.4693    3.2535 H       1  LIG1        0.0278
     58 H         -12.7083    9.7289    2.3608 H       1  LIG1        0.0278
@<TRIPOS>BOND
     1    25    24    1
     2    54    53    1
     3    13    12    1
     4    42    40    1
     5    24    23    3
     6    53    52    3
     7    15    12    1
     8    41    40    1
     9    12    14    1
    10    12     4    1
    11    40    43    1
    12    40    33    1
    13    23    16    1
    14    52    44    1
    15     7     3    1
    16    36    32    1
    17     4     3   ar
    18     4     5   ar
    19     3     2   ar
    20    33    32   ar
    21    33    34   ar
    22    32    31   ar
    23    16    21   ar
    24    16    17   ar
    25    44    49   ar
    26    44    45   ar
    27    21    20   ar
    28    49    48   ar
    29     5    17    1
    30     5     6   ar
    31    17    18   ar
    32    34    45    1
    33    34    35   ar
    34     2     8    1
    35     2     1   ar
    36    45    46   ar
    37    31    20    1
    38    31    30   ar
    39    20    19   ar
    40    48    51    1
    41    48    47   ar
    42     6     1   ar
    43    18    19   ar
    44    18    22    1
    45    35    30   ar
    46     1     9    1
    47    30    37    1
    48    46    47   ar
    49    46    50    1
    50    19    26    1
    51    47    55    1
    52    28    26    1
    53     9    10    3
    54    37    38    3
    55    26    27    1
    56    26    29    1
    57    56    55    1
    58    55    58    1
    59    55    57    1
    60    38    39    1
    61    10    11    1
