@<TRIPOS>MOLECULE
mol_data/opt/b3lyp/geoms/mol2/6ei6ei-4ei6ei.out
 59 62 0 0 0
SMALL
GASTEIGER

@<TRIPOS>ATOM
      1 C          -4.4352   -2.2406    0.4589 C.ar    1  LIG1        0.1138
      2 C          -3.2036   -2.4325   -0.1844 C.ar    1  LIG1       -0.0275
      3 C          -2.6127   -1.3436   -0.8115 C.ar    1  LIG1       -0.0542
      4 C          -3.2443   -0.0959   -0.8236 C.ar    1  LIG1       -0.0243
      5 C          -4.5033   -0.0192   -0.1829 C.ar    1  LIG1        0.0779
      6 N          -5.0658   -1.0521    0.4598 N.ar    1  LIG1       -0.2381
      7 H          -1.6419   -1.4541   -1.2878 H       1  LIG1        0.0622
      8 H          -2.7258   -3.4058   -0.1677 H       1  LIG1        0.0645
      9 C          -5.0667   -3.3257    1.1543 C.1     1  LIG1       -0.0498
     10 C          -5.5717   -4.2604    1.7319 C.1     1  LIG1       -0.1124
     11 H          -6.0318   -5.0739    2.2435 H       1  LIG1        0.1232
     12 C          -2.5720    1.0937   -1.4610 C.3     1  LIG1       -0.0377
     13 H          -2.7077    1.9996   -0.8634 H       1  LIG1        0.0278
     14 H          -2.9859    1.2984   -2.4534 H       1  LIG1        0.0278
     15 H          -1.4990    0.9141   -1.5714 H       1  LIG1        0.0278
     16 C          -5.7980    1.9339   -1.2266 C.ar    1  LIG1        0.1230
     17 C          -5.2843    1.2527   -0.1026 C.ar    1  LIG1        0.0347
     18 C          -5.6049    1.7793    1.1506 C.ar    1  LIG1       -0.0449
     19 C          -6.3256    2.9651    1.2868 C.ar    1  LIG1       -0.0237
     20 C          -6.7115    3.6116    0.0891 C.ar    1  LIG1        0.0765
     21 N          -6.4873    3.0848   -1.1195 N.ar    1  LIG1       -0.2375
     22 H          -5.2927    1.2337    2.0363 H       1  LIG1        0.0628
     23 C          -5.6695    1.4043   -2.5556 C.1     1  LIG1       -0.0491
     24 C          -5.5822    0.9570   -3.6760 C.1     1  LIG1       -0.1124
     25 H          -5.5192    0.5642   -4.6644 H       1  LIG1        0.1232
     26 C          -6.6931    3.4806    2.6552 C.3     1  LIG1       -0.0377
     27 H          -6.6244    2.6803    3.3969 H       1  LIG1        0.0278
     28 H          -7.7126    3.8764    2.6711 H       1  LIG1        0.0278
     29 H          -6.0267    4.2914    2.9662 H       1  LIG1        0.0278
     30 C          -6.9575    6.1070    0.5851 C.ar    1  LIG1        0.0344
     31 C          -7.7486    7.2679    0.5128 C.ar    1  LIG1       -0.0376
     32 C          -7.4776    4.8968    0.0749 C.ar    1  LIG1        0.0163
     33 C          -9.0208    7.2630   -0.0600 C.ar    1  LIG1       -0.0111
     34 H          -7.3407    8.1976    0.8958 H       1  LIG1        0.0636
     35 C          -8.7492    4.9095   -0.5066 C.ar    1  LIG1       -0.0479
     36 C          -9.5407    6.0581   -0.5840 C.ar    1  LIG1       -0.0420
     37 H          -9.1312    3.9781   -0.9131 H       1  LIG1        0.0627
     38 C          -5.6365    6.2104    1.1231 C.1     1  LIG1       -0.0690
     39 C          -4.5213    6.3435    1.5755 C.1     1  LIG1       -0.1139
     40 H          -3.5339    6.4545    1.9597 H       1  LIG1        0.1232
     41 C         -10.9136    5.9870   -1.2064 C.3     1  LIG1       -0.0391
     42 H         -11.2120    4.9490   -1.3721 H       1  LIG1        0.0278
     43 H         -10.9326    6.5022   -2.1725 H       1  LIG1        0.0278
     44 H         -11.6687    6.4631   -0.5725 H       1  LIG1        0.0278
     45 C         -10.0337    9.2859   -1.2479 C.ar    1  LIG1        0.1208
     46 C          -9.8017    8.5365   -0.0681 C.ar    1  LIG1        0.0165
     47 C         -10.3061    9.0573    1.1258 C.ar    1  LIG1       -0.0470
     48 C         -11.0241   10.2565    1.1423 C.ar    1  LIG1       -0.0317
     49 C         -11.2012   10.8939   -0.0917 C.ar    1  LIG1        0.0319
     50 N         -10.7255   10.4409   -1.2511 N.ar    1  LIG1       -0.2458
     51 H         -10.1372    8.5108    2.0506 H       1  LIG1        0.0628
     52 H         -11.7577   11.8294   -0.1411 H       1  LIG1        0.0832
     53 C          -9.5104    8.8530   -2.5126 C.1     1  LIG1       -0.0492
     54 C          -9.0655    8.4889   -3.5766 C.1     1  LIG1       -0.1124
     55 H          -8.6673    8.1736   -4.5133 H       1  LIG1        0.1232
     56 C         -11.5802   10.8358    2.4174 C.3     1  LIG1       -0.0383
     57 H         -12.1201   11.7671    2.2265 H       1  LIG1        0.0278
     58 H         -10.7829   11.0525    3.1374 H       1  LIG1        0.0278
     59 H         -12.2732   10.1398    2.9032 H       1  LIG1        0.0278
@<TRIPOS>BOND
     1    25    24    1
     2    55    54    1
     3    24    23    3
     4    54    53    3
     5    23    16    1
     6    53    45    1
     7    14    12    1
     8    43    41    1
     9    15    12    1
    10    12    13    1
    11    12     4    1
    12    42    41    1
    13     7     3    1
    14    50    45   ar
    15    50    49   ar
    16    45    46   ar
    17    16    21   ar
    18    16    17   ar
    19    41    36    1
    20    41    44    1
    21    21    20   ar
    22    37    35    1
    23     4     3   ar
    24     4     5   ar
    25     3     2   ar
    26    36    35   ar
    27    36    33   ar
    28    35    32   ar
    29     2     8    1
    30     2     1   ar
    31     5    17    1
    32     5     6   ar
    33    52    49    1
    34    17    18   ar
    35    49    48   ar
    36    46    33    1
    37    46    47   ar
    38    33    31   ar
    39    32    20    1
    40    32    30   ar
    41    20    19   ar
    42     1     6   ar
    43     1     9    1
    44    31    30   ar
    45    31    34    1
    46    30    38    1
    47    38    39    3
    48    47    48   ar
    49    47    51    1
    50    48    56    1
    51    18    19   ar
    52    18    22    1
    53     9    10    3
    54    19    26    1
    55    39    40    1
    56    10    11    1
    57    57    56    1
    58    56    59    1
    59    56    58    1
    60    26    28    1
    61    26    29    1
    62    26    27    1
