@<TRIPOS>MOLECULE
mol_data/opt/b3lyp/geoms/mol2/6ei6ei-6ei6ei-.out
 58 61 0 0 0
SMALL
GASTEIGER

@<TRIPOS>ATOM
      1 C          -3.3857   -1.5924    1.1805 C.ar    1  LIG1        0.1138
      2 C          -2.9369   -2.2554    0.0286 C.ar    1  LIG1       -0.0275
      3 C          -3.3053   -1.7456   -1.2093 C.ar    1  LIG1       -0.0542
      4 C          -4.0810   -0.5856   -1.3029 C.ar    1  LIG1       -0.0243
      5 C          -4.4464    0.0291   -0.0827 C.ar    1  LIG1        0.0779
      6 N          -4.1306   -0.4738    1.1188 N.ar    1  LIG1       -0.2381
      7 H          -3.0008   -2.2579   -2.1183 H       1  LIG1        0.0622
      8 H          -2.3351   -3.1532    0.1161 H       1  LIG1        0.0645
      9 C          -3.0631   -2.1023    2.4825 C.1     1  LIG1       -0.0498
     10 C          -2.7742   -2.5583    3.5646 C.1     1  LIG1       -0.1124
     11 H          -2.5270   -2.9455    4.5259 H       1  LIG1        0.1232
     12 C          -4.5194   -0.0672   -2.6492 C.3     1  LIG1       -0.0377
     13 H          -3.9020    0.7780   -2.9698 H       1  LIG1        0.0278
     14 H          -5.5558    0.2816   -2.6278 H       1  LIG1        0.0278
     15 H          -4.4388   -0.8517   -3.4067 H       1  LIG1        0.0278
     16 C          -4.8839    2.5135   -0.5453 C.ar    1  LIG1        0.1230
     17 C          -5.2874    1.2639   -0.0281 C.ar    1  LIG1        0.0347
     18 C          -6.5136    1.2261    0.6388 C.ar    1  LIG1       -0.0449
     19 C          -7.3404    2.3461    0.7228 C.ar    1  LIG1       -0.0237
     20 C          -6.8718    3.5227    0.0933 C.ar    1  LIG1        0.0780
     21 N          -5.6671    3.6058   -0.4824 N.ar    1  LIG1       -0.2374
     22 H          -6.8146    0.2982    1.1166 H       1  LIG1        0.0628
     23 C          -3.5811    2.7103   -1.1166 C.1     1  LIG1       -0.0491
     24 C          -2.4799    2.8904   -1.5833 C.1     1  LIG1       -0.1124
     25 H          -1.5077    3.0590   -1.9857 H       1  LIG1        0.1232
     26 C          -8.6382    2.2795    1.4871 C.3     1  LIG1       -0.0377
     27 H          -8.6230    1.4459    2.1944 H       1  LIG1        0.0278
     28 H          -9.4891    2.1378    0.8132 H       1  LIG1        0.0278
     29 H          -8.8212    3.2007    2.0471 H       1  LIG1        0.0278
     30 C          -8.9091    4.9578   -0.5097 C.ar    1  LIG1        0.1230
     31 C          -7.6440    4.8015    0.0962 C.ar    1  LIG1        0.0347
     32 C          -7.0714    5.9439    0.6599 C.ar    1  LIG1       -0.0449
     33 C          -7.7486    7.1621    0.6992 C.ar    1  LIG1       -0.0237
     34 C          -9.0476    7.1791    0.1405 C.ar    1  LIG1        0.0780
     35 N          -9.5842    6.1215   -0.4779 N.ar    1  LIG1       -0.2374
     36 H          -6.0656    5.8727    1.0634 H       1  LIG1        0.0628
     37 C          -9.5273    3.8969   -1.2546 C.1     1  LIG1       -0.0491
     38 C         -10.0480    3.0162   -1.8999 C.1     1  LIG1       -0.1124
     39 H         -10.5115    2.2487   -2.4756 H       1  LIG1        0.1232
     40 C          -7.0858    8.3851    1.2806 C.3     1  LIG1       -0.0377
     41 H          -7.4415    8.5841    2.2965 H       1  LIG1        0.0278
     42 H          -7.2983    9.2771    0.6844 H       1  LIG1        0.0278
     43 H          -6.0016    8.2504    1.3204 H       1  LIG1        0.0278
     44 C         -10.3845    9.0437    1.2824 C.ar    1  LIG1        0.1223
     45 C          -9.9004    8.4068    0.1159 C.ar    1  LIG1        0.0347
     46 C         -10.2970    8.9345   -1.1150 C.ar    1  LIG1       -0.0455
     47 C         -11.0985   10.0755   -1.1799 C.ar    1  LIG1       -0.0316
     48 C         -11.4810   10.6404    0.0443 C.ar    1  LIG1        0.0319
     49 N         -11.1557   10.1478    1.2380 N.ar    1  LIG1       -0.2458
     50 H          -9.9713    8.4377   -2.0246 H       1  LIG1        0.0628
     51 H         -12.0968   11.5393    0.0548 H       1  LIG1        0.0832
     52 C         -10.1254    8.5125    2.5913 C.1     1  LIG1       -0.0491
     53 C          -9.9281    8.0647    3.6975 C.1     1  LIG1       -0.1124
     54 H          -9.7674    7.6727    4.6752 H       1  LIG1        0.1232
     55 C         -11.5354   10.6698   -2.4938 C.3     1  LIG1       -0.0383
     56 H         -12.1442    9.9611   -3.0664 H       1  LIG1        0.0278
     57 H         -10.6749   10.9343   -3.1182 H       1  LIG1        0.0278
     58 H         -12.1300   11.5746   -2.3413 H       1  LIG1        0.0278
@<TRIPOS>BOND
     1    15    12    1
     2    57    55    1
     3    56    55    1
     4    13    12    1
     5    12    14    1
     6    12     4    1
     7    55    58    1
     8    55    47    1
     9    39    38    1
    10     7     3    1
    11    50    46    1
    12    25    24    1
    13    38    37    3
    14    24    23    3
    15     4     3   ar
    16     4     5   ar
    17    37    30    1
    18     3     2   ar
    19    47    46   ar
    20    47    48   ar
    21    23    16    1
    22    46    45   ar
    23    16    21   ar
    24    16    17   ar
    25    30    35   ar
    26    30    31   ar
    27    21    20   ar
    28    35    34   ar
    29     5    17    1
    30     5     6   ar
    31    17    18   ar
    32     2     8    1
    33     2     1   ar
    34    48    51    1
    35    48    49   ar
    36    20    31    1
    37    20    19   ar
    38    31    32   ar
    39    45    34    1
    40    45    44   ar
    41    34    33   ar
    42    18    19   ar
    43    18    22    1
    44    32    33   ar
    45    32    36    1
    46    42    40    1
    47    33    40    1
    48    19    26    1
    49    28    26    1
    50     6     1   ar
    51     1     9    1
    52    49    44   ar
    53    40    43    1
    54    40    41    1
    55    44    52    1
    56    26    29    1
    57    26    27    1
    58     9    10    3
    59    52    53    3
    60    10    11    1
    61    53    54    1
