@<TRIPOS>MOLECULE
mol_data/opt/b3lyp/geoms/mol2/6ei6ei-6ei.out
 44 46 0 0 0
SMALL
GASTEIGER

@<TRIPOS>ATOM
      1 C          -4.4418   -2.1337   -0.5010 C.ar    1  LIG1        0.1138
      2 C          -3.0954   -2.2311   -0.1194 C.ar    1  LIG1       -0.0275
      3 C          -2.4565   -1.0861    0.3374 C.ar    1  LIG1       -0.0542
      4 C          -3.1327    0.1371    0.3890 C.ar    1  LIG1       -0.0243
      5 C          -4.4748    0.1358   -0.0569 C.ar    1  LIG1        0.0779
      6 N          -5.1148   -0.9691   -0.4632 N.ar    1  LIG1       -0.2381
      7 H          -1.4235   -1.1386    0.6712 H       1  LIG1        0.0622
      8 H          -2.5836   -3.1859   -0.1659 H       1  LIG1        0.0645
      9 C          -5.1557   -3.2971   -0.9435 C.1     1  LIG1       -0.0498
     10 C          -5.7283   -4.2968   -1.3108 C.1     1  LIG1       -0.1124
     11 H          -6.2476   -5.1672   -1.6394 H       1  LIG1        0.1232
     12 C          -2.4482    1.3661    0.9313 C.3     1  LIG1       -0.0377
     13 H          -3.1186    1.9515    1.5673 H       1  LIG1        0.0278
     14 H          -2.1152    2.0241    0.1224 H       1  LIG1        0.0278
     15 H          -1.5724    1.0879    1.5241 H       1  LIG1        0.0278
     16 C          -5.0715    2.5044   -0.8374 C.ar    1  LIG1        0.1230
     17 C          -5.3260    1.3657   -0.0446 C.ar    1  LIG1        0.0347
     18 C          -6.4676    1.3990    0.7593 C.ar    1  LIG1       -0.0449
     19 C          -7.3069    2.5120    0.7974 C.ar    1  LIG1       -0.0237
     20 C          -6.9522    3.5977   -0.0361 C.ar    1  LIG1        0.0780
     21 N          -5.8651    3.5920   -0.8142 N.ar    1  LIG1       -0.2374
     22 H          -6.6958    0.5332    1.3742 H       1  LIG1        0.0628
     23 C          -3.9716    2.5545   -1.7593 C.1     1  LIG1       -0.0491
     24 C          -3.0578    2.6008   -2.5504 C.1     1  LIG1       -0.1124
     25 H          -2.2649    2.6437   -3.2610 H       1  LIG1        0.1232
     26 C          -8.5036    2.5370    1.7138 C.3     1  LIG1       -0.0377
     27 H          -8.4253    1.7516    2.4701 H       1  LIG1        0.0278
     28 H          -9.4312    2.3787    1.1547 H       1  LIG1        0.0278
     29 H          -8.5965    3.4989    2.2269 H       1  LIG1        0.0278
     30 C          -9.0584    4.9592   -0.5626 C.ar    1  LIG1        0.1223
     31 C          -7.7342    4.8728   -0.0726 C.ar    1  LIG1        0.0347
     32 C          -7.1248    6.0584    0.3425 C.ar    1  LIG1       -0.0455
     33 C          -7.8197    7.2690    0.3143 C.ar    1  LIG1       -0.0316
     34 C          -9.1387    7.2204   -0.1560 C.ar    1  LIG1        0.0319
     35 N          -9.7451    6.1180   -0.5926 N.ar    1  LIG1       -0.2458
     36 H          -6.0946    6.0244    0.6866 H       1  LIG1        0.0628
     37 H          -9.7335    8.1329   -0.1892 H       1  LIG1        0.0832
     38 C          -9.7302    3.8132   -1.1072 C.1     1  LIG1       -0.0491
     39 C         -10.2940    2.8535   -1.5806 C.1     1  LIG1       -0.1124
     40 H         -10.7889    2.0131   -2.0099 H       1  LIG1        0.1232
     41 C          -7.1873    8.5627    0.7585 C.3     1  LIG1       -0.0383
     42 H          -7.9009    9.3896    0.7097 H       1  LIG1        0.0278
     43 H          -6.3304    8.8223    0.1267 H       1  LIG1        0.0278
     44 H          -6.8204    8.4953    1.7886 H       1  LIG1        0.0278
@<TRIPOS>BOND
     1    25    24    1
     2    24    23    3
     3    40    39    1
     4    23    16    1
     5    11    10    1
     6    39    38    3
     7    10     9    3
     8    38    30    1
     9     9     1    1
    10    16    21   ar
    11    16    17   ar
    12    21    20   ar
    13    35    30   ar
    14    35    34   ar
    15    30    31   ar
    16     1     6   ar
    17     1     2   ar
    18     6     5   ar
    19    37    34    1
    20     8     2    1
    21    34    33   ar
    22     2     3   ar
    23    31    20    1
    24    31    32   ar
    25     5    17    1
    26     5     4   ar
    27    17    18   ar
    28    20    19   ar
    29    14    12    1
    30    43    41    1
    31    33    32   ar
    32    33    41    1
    33     3     4   ar
    34     3     7    1
    35    32    36    1
    36     4    12    1
    37    42    41    1
    38    41    44    1
    39    18    19   ar
    40    18    22    1
    41    19    26    1
    42    12    15    1
    43    12    13    1
    44    28    26    1
    45    26    29    1
    46    26    27    1
