@<TRIPOS>MOLECULE
mol_data/opt/b3lyp/geoms/mol2/6ei6ei.out
 30 31 0 0 0
SMALL
GASTEIGER

@<TRIPOS>ATOM
      1 C          -4.3542   -1.7838   -1.1630 C.ar    1  LIG1        0.1138
      2 C          -3.3547   -2.2354   -0.2887 C.ar    1  LIG1       -0.0275
      3 C          -2.9837   -1.4133    0.7671 C.ar    1  LIG1       -0.0542
      4 C          -3.6108   -0.1793    0.9666 C.ar    1  LIG1       -0.0243
      5 C          -4.6334    0.1643    0.0519 C.ar    1  LIG1        0.0779
      6 N          -4.9748   -0.6019   -0.9930 N.ar    1  LIG1       -0.2381
      7 H          -2.1890   -1.7224    1.4412 H       1  LIG1        0.0622
      8 H          -2.8781   -3.1951   -0.4549 H       1  LIG1        0.0645
      9 C          -4.7458   -2.5809   -2.2902 C.1     1  LIG1       -0.0498
     10 C          -5.0523   -3.2762   -3.2309 C.1     1  LIG1       -0.1124
     11 H          -5.3366   -3.8774   -4.0634 H       1  LIG1        0.1232
     12 C          -3.1708    0.7302    2.0857 C.3     1  LIG1       -0.0377
     13 H          -3.8680    0.6884    2.9286 H       1  LIG1        0.0278
     14 H          -3.1223    1.7733    1.7600 H       1  LIG1        0.0278
     15 H          -2.1814    0.4402    2.4499 H       1  LIG1        0.0278
     16 C          -6.2250    1.8097    1.2072 C.ar    1  LIG1        0.1223
     17 C          -5.3763    1.4605    0.1310 C.ar    1  LIG1        0.0347
     18 C          -5.2825    2.3629   -0.9307 C.ar    1  LIG1       -0.0455
     19 C          -5.9644    3.5806   -0.8984 C.ar    1  LIG1       -0.0316
     20 C          -6.7411    3.8307    0.2409 C.ar    1  LIG1        0.0319
     21 N          -6.8864    2.9826    1.2572 N.ar    1  LIG1       -0.2458
     22 H          -4.6689    2.0986   -1.7875 H       1  LIG1        0.0628
     23 H          -7.2852    4.7709    0.3271 H       1  LIG1        0.0832
     24 C          -6.4736    0.9022    2.2921 C.1     1  LIG1       -0.0491
     25 C          -6.7026    0.1386    3.2018 C.1     1  LIG1       -0.1124
     26 H          -6.9197   -0.5328    4.0002 H       1  LIG1        0.1232
     27 C          -5.8781    4.5736   -2.0285 C.3     1  LIG1       -0.0383
     28 H          -6.4337    5.4864   -1.7973 H       1  LIG1        0.0278
     29 H          -6.2900    4.1564   -2.9544 H       1  LIG1        0.0278
     30 H          -4.8396    4.8547   -2.2350 H       1  LIG1        0.0278
@<TRIPOS>BOND
     1    11    10    1
     2    10     9    3
     3    29    27    1
     4     9     1    1
     5    30    27    1
     6    27    28    1
     7    27    19    1
     8    22    18    1
     9     1     6   ar
    10     1     2   ar
    11     6     5   ar
    12    18    19   ar
    13    18    17   ar
    14    19    20   ar
    15     8     2    1
    16     2     3   ar
    17     5    17    1
    18     5     4   ar
    19    17    16   ar
    20    20    23    1
    21    20    21   ar
    22     3     4   ar
    23     3     7    1
    24     4    12    1
    25    16    21   ar
    26    16    24    1
    27    14    12    1
    28    12    15    1
    29    12    13    1
    30    24    25    3
    31    25    26    1
