@<TRIPOS>MOLECULE
mol_data/opt/b3lyp/geoms/mol2/6ei6ei6ei6ei.out
 58 61 0 0 0
SMALL
GASTEIGER

@<TRIPOS>ATOM
      1 C          -2.4745   -0.9082   -0.4482 C.ar    1  LIG1        0.1138
      2 C          -2.9159   -2.2373   -0.3673 C.ar    1  LIG1       -0.0275
      3 C          -4.2712   -2.4696   -0.1746 C.ar    1  LIG1       -0.0542
      4 C          -5.1745   -1.4051   -0.0908 C.ar    1  LIG1       -0.0243
      5 C          -4.6325   -0.1057   -0.2261 C.ar    1  LIG1        0.0779
      6 N          -3.3221    0.1340   -0.3732 N.ar    1  LIG1       -0.2381
      7 H          -4.6371   -3.4881   -0.0739 H       1  LIG1        0.0622
      8 H          -2.2046   -3.0529   -0.4350 H       1  LIG1        0.0645
      9 C          -1.0787   -0.6163   -0.6088 C.1     1  LIG1       -0.0498
     10 C           0.1042   -0.4045   -0.7436 C.1     1  LIG1       -0.1124
     11 H           1.1428   -0.2000   -0.8645 H       1  LIG1        0.1232
     12 C          -6.6370   -1.6639    0.1690 C.3     1  LIG1       -0.0377
     13 H          -7.2229   -1.5928   -0.7529 H       1  LIG1        0.0278
     14 H          -7.0551   -0.9382    0.8724 H       1  LIG1        0.0278
     15 H          -6.7810   -2.6648    0.5851 H       1  LIG1        0.0278
     16 C          -6.4941    1.4472   -1.0630 C.ar    1  LIG1        0.1230
     17 C          -5.4747    1.1265   -0.1410 C.ar    1  LIG1        0.0347
     18 C          -5.2050    2.0710    0.8514 C.ar    1  LIG1       -0.0449
     19 C          -5.9564    3.2390    0.9793 C.ar    1  LIG1       -0.0237
     20 C          -7.0091    3.4147    0.0514 C.ar    1  LIG1        0.0780
     21 N          -7.2366    2.5642   -0.9558 N.ar    1  LIG1       -0.2374
     22 H          -4.3739    1.8894    1.5267 H       1  LIG1        0.0628
     23 C          -6.7591    0.6280   -2.2124 C.1     1  LIG1       -0.0491
     24 C          -6.9777   -0.0457   -3.1928 C.1     1  LIG1       -0.1124
     25 H          -7.1686   -0.6285   -4.0642 H       1  LIG1        0.1232
     26 C          -5.6096    4.2561    2.0367 C.3     1  LIG1       -0.0377
     27 H          -6.2618    4.1587    2.9104 H       1  LIG1        0.0278
     28 H          -5.7230    5.2774    1.6629 H       1  LIG1        0.0278
     29 H          -4.5761    4.1255    2.3685 H       1  LIG1        0.0278
     30 C          -8.7619    4.9441    1.1295 C.ar    1  LIG1        0.1230
     31 C          -7.9016    4.6127    0.0610 C.ar    1  LIG1        0.0347
     32 C          -7.9621    5.4283   -1.0712 C.ar    1  LIG1       -0.0449
     33 C          -8.7697    6.5641   -1.1161 C.ar    1  LIG1       -0.0237
     34 C          -9.5222    6.8484    0.0470 C.ar    1  LIG1        0.0780
     35 N          -9.5444    6.0389    1.1114 N.ar    1  LIG1       -0.2374
     36 H          -7.3700    5.1529   -1.9390 H       1  LIG1        0.0628
     37 C          -8.9017    4.0952    2.2794 C.1     1  LIG1       -0.0491
     38 C          -9.0408    3.3778    3.2432 C.1     1  LIG1       -0.1124
     39 H          -9.1750    2.7492    4.0931 H       1  LIG1        0.1232
     40 C          -8.8410    7.4009   -2.3682 C.3     1  LIG1       -0.0377
     41 H          -8.2305    8.3048   -2.2768 H       1  LIG1        0.0278
     42 H          -9.8653    7.7235   -2.5761 H       1  LIG1        0.0278
     43 H          -8.4799    6.8325   -3.2294 H       1  LIG1        0.0278
     44 C          -9.9670    9.3714    0.1152 C.ar    1  LIG1        0.1223
     45 C         -10.4264    8.0342    0.1543 C.ar    1  LIG1        0.0347
     46 C         -11.7927    7.8309    0.3608 C.ar    1  LIG1       -0.0455
     47 C         -12.6685    8.9120    0.4726 C.ar    1  LIG1       -0.0316
     48 C         -12.0994   10.1891    0.3771 C.ar    1  LIG1        0.0319
     49 N         -10.7988   10.4265    0.2176 N.ar    1  LIG1       -0.2458
     50 H         -12.1628    6.8121    0.4355 H       1  LIG1        0.0628
     51 H         -12.7368   11.0703    0.4450 H       1  LIG1        0.0832
     52 C          -8.5684    9.6831    0.0189 C.1     1  LIG1       -0.0491
     53 C          -7.3920    9.9572   -0.0446 C.1     1  LIG1       -0.1124
     54 H          -6.3575   10.2084   -0.0910 H       1  LIG1        0.1232
     55 C         -14.1475    8.7216    0.6891 C.3     1  LIG1       -0.0383
     56 H         -14.6704    9.6813    0.7192 H       1  LIG1        0.0278
     57 H         -14.3462    8.2018    1.6331 H       1  LIG1        0.0278
     58 H         -14.5939    8.1203   -0.1106 H       1  LIG1        0.0278
@<TRIPOS>BOND
     1    25    24    1
     2    43    40    1
     3    24    23    3
     4    42    40    1
     5    40    41    1
     6    40    33    1
     7    23    16    1
     8    36    32    1
     9    33    32   ar
    10    33    34   ar
    11    32    31   ar
    12    16    21   ar
    13    16    17   ar
    14    21    20   ar
    15    11    10    1
    16    13    12    1
    17    10     9    3
    18     9     1    1
    19     1     6   ar
    20     1     2   ar
    21     8     2    1
    22     6     5   ar
    23     2     3   ar
    24     5    17    1
    25     5     4   ar
    26     3     4   ar
    27     3     7    1
    28    17    18   ar
    29    58    55    1
    30    54    53    1
    31     4    12    1
    32    53    52    3
    33    52    44    1
    34    34    45    1
    35    34    35   ar
    36    20    31    1
    37    20    19   ar
    38    31    30   ar
    39    44    45   ar
    40    44    49   ar
    41    45    46   ar
    42    12    15    1
    43    12    14    1
    44    49    48   ar
    45    46    50    1
    46    46    47   ar
    47    48    51    1
    48    48    47   ar
    49    47    55    1
    50    55    56    1
    51    55    57    1
    52    18    19   ar
    53    18    22    1
    54    19    26    1
    55    35    30   ar
    56    30    37    1
    57    28    26    1
    58    26    29    1
    59    26    27    1
    60    37    38    3
    61    38    39    1
