@<TRIPOS>MOLECULE
mol_data/opt/b3lyp/geoms/mol2/6el13ah-6hd12il-.out
 53 56 0 0 0
SMALL
GASTEIGER

@<TRIPOS>ATOM
      1 C          -4.6199   -2.0855    0.6069 C.ar    1  LIG1        0.1141
      2 C          -3.2323   -2.2281    0.7278 C.ar    1  LIG1       -0.0243
      3 C          -2.4244   -1.1073    0.5447 C.ar    1  LIG1       -0.0151
      4 C          -3.0120    0.1208    0.2473 C.ar    1  LIG1        0.1475
      5 C          -4.4296    0.1879    0.1402 C.ar    1  LIG1        0.1300
      6 N          -5.1915   -0.9022    0.3195 N.ar    1  LIG1       -0.2333
      7 H          -1.3490   -1.2005    0.6353 H       1  LIG1        0.0656
      8 H          -2.8002   -3.1947    0.9595 H       1  LIG1        0.0646
      9 C          -5.4864   -3.2142    0.7878 C.1     1  LIG1       -0.0498
     10 C          -6.1937   -4.1825    0.9449 C.1     1  LIG1       -0.1124
     11 H          -6.8287   -5.0267    1.0838 H       1  LIG1        0.1232
     12 O          -2.3226    1.2753    0.0483 O.3     1  LIG1       -0.4929
     13 C          -0.9054    1.2486    0.1680 C.3     1  LIG1        0.0789
     14 H          -0.5708    2.2696   -0.0171 H       1  LIG1        0.0660
     15 H          -0.5938    0.9421    1.1738 H       1  LIG1        0.0660
     16 H          -0.4523    0.5790   -0.5731 H       1  LIG1        0.0660
     17 C          -5.1595    1.4127   -0.1600 C.ar    1  LIG1        0.0708
     18 C          -4.7899    2.7305   -0.4335 C.ar    1  LIG1       -0.0135
     19 C          -5.9735    3.4748   -0.6352 C.ar    1  LIG1        0.0509
     20 C          -7.0628    2.6001   -0.4816 C.ar    1  LIG1        0.0712
     21 N          -6.5265    1.3525   -0.2152 N.ar    1  LIG1       -0.3513
     22 H          -7.0333    0.5168    0.0439 H       1  LIG1        0.1660
     23 H          -3.7799    3.1023   -0.4898 H       1  LIG1        0.0658
     24 N          -6.0479    4.8531   -0.8991 N.pl3   1  LIG1       -0.3563
     25 H          -5.1714    5.2235   -1.2465 H       1  LIG1        0.1424
     26 H          -6.7946    5.0980   -1.5406 H       1  LIG1        0.1424
     27 C          -9.4569    1.8899   -0.9620 C.ar    1  LIG1        0.1263
     28 C          -8.4943    2.8647   -0.5377 C.ar    1  LIG1        0.0409
     29 C          -9.0151    4.1086   -0.1878 C.ar    1  LIG1       -0.0297
     30 C         -10.3994    4.3573   -0.2206 C.ar    1  LIG1        0.0815
     31 C         -11.2642    3.2919   -0.5658 C.ar    1  LIG1        0.1257
     32 N         -10.7716    2.1026   -0.9474 N.ar    1  LIG1       -0.2274
     33 H          -8.3438    4.9006    0.1256 H       1  LIG1        0.0639
     34 N          -9.0637    0.6311   -1.3698 N.pl3   1  LIG1       -0.3426
     35 H          -9.8140    0.1021   -1.7945 H       1  LIG1        0.1437
     36 H          -8.1689    0.5557   -1.8340 H       1  LIG1        0.1437
     37 N         -11.2116    6.7844    0.1898 N.1     1  LIG1       -0.1908
     38 C         -10.8659    5.6856    0.0152 C.1     1  LIG1        0.1014
     39 C         -12.7212    3.4140   -0.5568 C.ar    1  LIG1        0.1608
     40 C         -13.6276    3.9997    0.2997 C.ar    1  LIG1        0.0385
     41 C         -14.9172    3.6732   -0.2469 C.ar    1  LIG1        0.1612
     42 C         -14.7092    2.9201   -1.3656 C.ar    1  LIG1        0.1344
     43 O         -13.3785    2.7428   -1.5604 O.2     1  LIG1       -0.4573
     44 H         -15.3746    2.4547   -2.0750 H       1  LIG1        0.1068
     45 C         -13.4097    4.7141    1.5978 C.3     1  LIG1       -0.0326
     46 H         -14.2486    4.5084    2.2696 H       1  LIG1        0.0280
     47 H         -13.3320    5.7983    1.4659 H       1  LIG1        0.0280
     48 H         -12.4888    4.3848    2.0865 H       1  LIG1        0.0280
     49 O         -16.1312    3.9831    0.3004 O.3     1  LIG1       -0.4917
     50 C         -16.5318    5.3437    0.1165 C.3     1  LIG1        0.0789
     51 H         -17.5014    5.4489    0.6071 H       1  LIG1        0.0660
     52 H         -15.8191    6.0421    0.5708 H       1  LIG1        0.0660
     53 H         -16.6323    5.5832   -0.9494 H       1  LIG1        0.0660
@<TRIPOS>BOND
     1    44    42    1
     2    36    34    1
     3    35    34    1
     4    43    42   ar
     5    43    39   ar
     6    26    24    1
     7    34    27    1
     8    42    41   ar
     9    25    24    1
    10    27    32   ar
    11    27    28   ar
    12    53    50    1
    13    32    31   ar
    14    24    19    1
    15    19    20   ar
    16    19    18   ar
    17    16    13    1
    18    31    39    1
    19    31    30   ar
    20    39    40   ar
    21    28    20    1
    22    28    29   ar
    23    23    18    1
    24    20    21   ar
    25    18    17   ar
    26    41    40   ar
    27    41    49    1
    28    30    29   ar
    29    30    38    1
    30    21    17   ar
    31    21    22    1
    32    29    33    1
    33    17     5    1
    34    14    13    1
    35    38    37    3
    36    12    13    1
    37    12     4    1
    38    50    49    1
    39    50    52    1
    40    50    51    1
    41     5     4   ar
    42     5     6   ar
    43    13    15    1
    44     4     3   ar
    45    40    45    1
    46     6     1   ar
    47     3     7    1
    48     3     2   ar
    49     1     2   ar
    50     1     9    1
    51     2     8    1
    52     9    10    3
    53    10    11    1
    54    47    45    1
    55    45    48    1
    56    45    46    1
