@<TRIPOS>MOLECULE
mol_data/opt/b3lyp/geoms/mol2/6el12ih-4aa-12hi-.out
 51 54 0 0 0
SMALL
GASTEIGER

@<TRIPOS>ATOM
      1 C          -4.1203   -2.1244    0.7679 C.ar    1  LIG1        0.1142
      2 C          -2.8542   -2.1550    0.1676 C.ar    1  LIG1       -0.0243
      3 C          -2.3751   -1.0027   -0.4477 C.ar    1  LIG1       -0.0151
      4 C          -3.1615    0.1503   -0.4390 C.ar    1  LIG1        0.1491
      5 C          -4.4148    0.1131    0.2323 C.ar    1  LIG1        0.1491
      6 N          -4.8718   -1.0093    0.7999 N.ar    1  LIG1       -0.2316
      7 H          -1.4106   -1.0167   -0.9407 H       1  LIG1        0.0656
      8 H          -2.2670   -3.0665    0.1768 H       1  LIG1        0.0646
      9 C          -4.6553   -3.3039    1.3859 C.1     1  LIG1       -0.0498
     10 C          -5.0769   -4.3157    1.8967 C.1     1  LIG1       -0.1124
     11 H          -5.4668   -5.1958    2.3531 H       1  LIG1        0.1232
     12 O          -2.8228    1.3119   -1.0613 O.3     1  LIG1       -0.4929
     13 C          -1.6139    1.3519   -1.8079 C.3     1  LIG1        0.0789
     14 H          -1.5667    2.3494   -2.2458 H       1  LIG1        0.0660
     15 H          -0.7366    1.1969   -1.1674 H       1  LIG1        0.0660
     16 H          -1.6127    0.6035   -2.6099 H       1  LIG1        0.0660
     17 C          -5.2997    1.2815    0.2986 C.ar    1  LIG1        0.1621
     18 C          -5.1068    2.6261    0.5256 C.ar    1  LIG1        0.0183
     19 C          -6.4130    3.2147    0.5144 C.ar    1  LIG1        0.0746
     20 C          -7.3210    2.1927    0.3097 C.ar    1  LIG1        0.1565
     21 O          -6.6308    1.0129    0.1752 O.2     1  LIG1       -0.4510
     22 C          -3.8416    3.3767    0.8107 C.3     1  LIG1       -0.0343
     23 H          -4.0063    4.1054    1.6127 H       1  LIG1        0.0279
     24 H          -3.4780    3.9234   -0.0687 H       1  LIG1        0.0279
     25 H          -3.0399    2.7080    1.1263 H       1  LIG1        0.0279
     26 N          -6.6734    4.5766    0.7237 N.pl3   1  LIG1       -0.3548
     27 H          -5.8992    5.1635    0.4355 H       1  LIG1        0.1424
     28 H          -7.5227    4.8897    0.2678 H       1  LIG1        0.1424
     29 C          -9.5878    3.1803    0.6532 C.ar    1  LIG1       -0.0504
     30 C         -10.9682    3.1352    0.4917 C.ar    1  LIG1       -0.0504
     31 C          -8.7633    2.1422    0.1750 C.ar    1  LIG1        0.0192
     32 C         -11.5914    2.0495   -0.1560 C.ar    1  LIG1        0.0191
     33 H         -11.5741    3.9212    0.9308 H       1  LIG1        0.0625
     34 C          -9.3927    1.0354   -0.4345 C.ar    1  LIG1       -0.0504
     35 C         -10.7675    0.9915   -0.5965 C.ar    1  LIG1       -0.0504
     36 H          -8.7810    0.2117   -0.7859 H       1  LIG1        0.0625
     37 H          -9.1536    3.9989    1.2181 H       1  LIG1        0.0625
     38 H         -11.2253    0.1337   -1.0771 H       1  LIG1        0.0625
     39 C         -13.0269    2.0087   -0.3542 C.ar    1  LIG1        0.1556
     40 C         -14.0197    2.9681   -0.3591 C.ar    1  LIG1        0.0739
     41 C         -15.2611    2.2931   -0.6341 C.ar    1  LIG1        0.0086
     42 C         -14.9309    0.9796   -0.7878 C.ar    1  LIG1        0.0973
     43 O         -13.5992    0.7806   -0.6308 O.2     1  LIG1       -0.4608
     44 H         -15.5218    0.1015   -1.0007 H       1  LIG1        0.1033
     45 N         -13.8938    4.3434   -0.1193 N.pl3   1  LIG1       -0.3548
     46 H         -13.0020    4.7185   -0.4223 H       1  LIG1        0.1424
     47 H         -14.6477    4.8788   -0.5338 H       1  LIG1        0.1424
     48 C         -16.6163    2.9233   -0.7298 C.3     1  LIG1       -0.0350
     49 H         -17.3805    2.1779   -0.9657 H       1  LIG1        0.0279
     50 H         -16.6565    3.6889   -1.5160 H       1  LIG1        0.0279
     51 H         -16.9037    3.4089    0.2104 H       1  LIG1        0.0279
@<TRIPOS>BOND
     1    16    13    1
     2    14    13    1
     3    13    15    1
     4    13    12    1
     5    50    48    1
     6    38    35    1
     7    12     4    1
     8    44    42    1
     9    49    48    1
    10     7     3    1
    11    42    41   ar
    12    42    43   ar
    13    36    34    1
    14    48    41    1
    15    48    51    1
    16    41    40   ar
    17    43    39   ar
    18    35    34   ar
    19    35    32   ar
    20    47    45    1
    21     3     4   ar
    22     3     2   ar
    23     4     5   ar
    24    34    31   ar
    25    46    45    1
    26    40    39   ar
    27    40    45    1
    28    39    32    1
    29    32    30   ar
    30    24    22    1
    31     2     8    1
    32     2     1   ar
    33    31    20    1
    34    31    29   ar
    35    21    17   ar
    36    21    20   ar
    37     5    17    1
    38     5     6   ar
    39    28    26    1
    40    17    18   ar
    41    20    19   ar
    42    27    26    1
    43    30    29   ar
    44    30    33    1
    45    19    18   ar
    46    19    26    1
    47    18    22    1
    48    29    37    1
    49     1     6   ar
    50     1     9    1
    51    22    25    1
    52    22    23    1
    53     9    10    3
    54    10    11    1
