@<TRIPOS>MOLECULE
mol_data/opt/b3lyp/geoms/mol2/6el6fi4dh12if.out
 54 57 0 0 0
SMALL
GASTEIGER

@<TRIPOS>ATOM
      1 C          -4.4511   -2.2795   -0.2865 C.ar    1  LIG1        0.1141
      2 C          -3.0570   -2.3386   -0.2762 C.ar    1  LIG1       -0.0243
      3 C          -2.3440   -1.1475   -0.1777 C.ar    1  LIG1       -0.0152
      4 C          -3.0189    0.0691   -0.0760 C.ar    1  LIG1        0.1462
      5 C          -4.4500    0.0684   -0.0536 C.ar    1  LIG1        0.1189
      6 N          -5.0986   -1.1035   -0.1749 N.ar    1  LIG1       -0.2346
      7 H          -1.2616   -1.1737   -0.1887 H       1  LIG1        0.0656
      8 H          -2.5476   -3.2918   -0.3547 H       1  LIG1        0.0646
      9 C          -5.2455   -3.4633   -0.4174 C.1     1  LIG1       -0.0498
     10 C          -5.9000   -4.4737   -0.5302 C.1     1  LIG1       -0.1124
     11 H          -6.4879   -5.3570   -0.6296 H       1  LIG1        0.1232
     12 O          -2.3810    1.2649   -0.0163 O.3     1  LIG1       -0.4930
     13 C          -0.9646    1.3039   -0.1591 C.3     1  LIG1        0.0789
     14 H          -0.6969    2.3603   -0.1432 H       1  LIG1        0.0660
     15 H          -0.4626    0.7893    0.6690 H       1  LIG1        0.0660
     16 H          -0.6482    0.8623   -1.1111 H       1  LIG1        0.0660
     17 C          -6.6934    1.2357   -0.2925 C.ar    1  LIG1        0.2224
     18 C          -5.3005    1.2755    0.0521 C.ar    1  LIG1        0.0656
     19 C          -4.8361    2.5123    0.5196 C.ar    1  LIG1       -0.0424
     20 C          -5.6372    3.6546    0.5619 C.ar    1  LIG1       -0.0236
     21 C          -6.9487    3.5098    0.0687 C.ar    1  LIG1        0.0790
     22 N          -7.4546    2.3253   -0.3030 N.ar    1  LIG1       -0.2122
     23 H          -3.8193    2.5899    0.8775 H       1  LIG1        0.0629
     24 O          -7.3255    0.1086   -0.6257 O.3     1  LIG1       -0.4919
     25 H          -6.6713   -0.6314   -0.4937 H       1  LIG1        0.2937
     26 C          -5.0850    4.9295    1.1571 C.3     1  LIG1       -0.0377
     27 H          -5.8730    5.5428    1.6016 H       1  LIG1        0.0278
     28 H          -4.5755    5.5432    0.4074 H       1  LIG1        0.0278
     29 H          -4.3613    4.6947    1.9439 H       1  LIG1        0.0278
     30 C          -7.6709    5.8475   -0.7061 C.ar    1  LIG1        0.0617
     31 C          -8.6657    6.8362   -0.7526 C.ar    1  LIG1       -0.0313
     32 C          -7.9271    4.6374   -0.0155 C.ar    1  LIG1        0.0198
     33 C          -9.9061    6.6852   -0.1291 C.ar    1  LIG1        0.0395
     34 H          -8.4714    7.7374   -1.3221 H       1  LIG1        0.0638
     35 C          -9.1792    4.4649    0.5644 C.ar    1  LIG1       -0.0299
     36 C         -10.1790    5.4521    0.5345 C.ar    1  LIG1        0.0360
     37 H          -9.3871    3.5195    1.0557 H       1  LIG1        0.0643
     38 N          -5.4974    6.2911   -2.0513 N.1     1  LIG1       -0.1908
     39 C          -6.4658    6.0714   -1.4420 C.1     1  LIG1        0.0998
     40 N         -11.3677    5.2318    1.1935 N.pl3   1  LIG1       -0.3574
     41 H         -12.1622    5.7811    0.9026 H       1  LIG1        0.1423
     42 H         -11.5734    4.2743    1.4355 H       1  LIG1        0.1423
     43 C         -10.8640    7.7908   -0.1694 C.ar    1  LIG1        0.1431
     44 C         -10.7113    9.1560   -0.1252 C.ar    1  LIG1        0.0368
     45 C         -12.0386    9.6937   -0.2284 C.ar    1  LIG1        0.1580
     46 C         -12.9080    8.6486   -0.3168 C.ar    1  LIG1        0.1341
     47 O         -12.2001    7.4719   -0.2827 O.2     1  LIG1       -0.4589
     48 H         -13.9792    8.5663   -0.4067 H       1  LIG1        0.1068
     49 C          -9.4702    9.9774    0.0432 C.3     1  LIG1       -0.0326
     50 H          -9.6756   10.8447    0.6776 H       1  LIG1        0.0280
     51 H          -9.1008   10.3634   -0.9147 H       1  LIG1        0.0280
     52 H          -8.6666    9.3956    0.5012 H       1  LIG1        0.0280
     53 O         -12.2715   11.0359   -0.2150 O.3     1  LIG1       -0.5034
     54 H         -13.2230   11.1971   -0.2518 H       1  LIG1        0.2923
@<TRIPOS>BOND
     1    38    39    3
     2    39    30    1
     3    34    31    1
     4    16    13    1
     5    51    49    1
     6    31    30   ar
     7    31    33   ar
     8    30    32   ar
     9    11    10    1
    10    24    25    1
    11    24    17    1
    12    10     9    3
    13     9     1    1
    14    48    46    1
    15     8     2    1
    16    46    47   ar
    17    46    45   ar
    18    22    17   ar
    19    22    21   ar
    20    17    18   ar
    21     1     2   ar
    22     1     6   ar
    23    47    43   ar
    24     2     3   ar
    25    54    53    1
    26    45    53    1
    27    45    44   ar
    28     7     3    1
    29     3     4   ar
    30     6     5   ar
    31    43    33    1
    32    43    44   ar
    33    13    14    1
    34    13    12    1
    35    13    15    1
    36    33    36   ar
    37    44    49    1
    38     4     5   ar
    39     4    12    1
    40     5    18    1
    41    32    21    1
    42    32    35   ar
    43    49    52    1
    44    49    50    1
    45    18    19   ar
    46    21    20   ar
    47    28    26    1
    48    19    20   ar
    49    19    23    1
    50    36    35   ar
    51    36    40    1
    52    20    26    1
    53    35    37    1
    54    41    40    1
    55    26    27    1
    56    26    29    1
    57    40    42    1
