@<TRIPOS>MOLECULE
mol_data/opt/b3lyp/geoms/mol2/6el6el6el6el.out
 62 65 0 0 0
SMALL
GASTEIGER

@<TRIPOS>ATOM
      1 C          -4.4044   -2.4256   -0.0013 C.ar    1  LIG1        0.1141
      2 C          -3.0092   -2.5383   -0.0011 C.ar    1  LIG1       -0.0243
      3 C          -2.2605   -1.3696   -0.0007 C.ar    1  LIG1       -0.0152
      4 C          -2.8967   -0.1252   -0.0004 C.ar    1  LIG1        0.1461
      5 C          -4.3281   -0.0842   -0.0006 C.ar    1  LIG1        0.1166
      6 N          -5.0099   -1.2320   -0.0010 N.ar    1  LIG1       -0.2347
      7 H          -1.1798   -1.4323   -0.0006 H       1  LIG1        0.0656
      8 H          -2.5307   -3.5113   -0.0014 H       1  LIG1        0.0646
      9 C          -5.2321   -3.5982   -0.0017 C.1     1  LIG1       -0.0498
     10 C          -5.8919   -4.6114   -0.0021 C.1     1  LIG1       -0.1124
     11 H          -6.4895   -5.4935   -0.0024 H       1  LIG1        0.1232
     12 O          -2.1913    1.0424    0.0000 O.3     1  LIG1       -0.4930
     13 C          -0.7683    0.9950    0.0002 C.3     1  LIG1        0.0789
     14 H          -0.4379    2.0342    0.0005 H       1  LIG1        0.0660
     15 H          -0.3831    0.4932    0.8954 H       1  LIG1        0.0660
     16 H          -0.3829    0.4937   -0.8952 H       1  LIG1        0.0660
     17 C          -6.5962    1.1063   -0.0003 C.ar    1  LIG1        0.1233
     18 C          -5.1695    1.1467   -0.0003 C.ar    1  LIG1        0.0413
     19 C          -4.6148    2.4365   -0.0000 C.ar    1  LIG1       -0.0059
     20 C          -5.3937    3.5889    0.0002 C.ar    1  LIG1        0.1467
     21 C          -6.8118    3.4601    0.0002 C.ar    1  LIG1        0.1167
     22 N          -7.3243    2.2303   -0.0001 N.ar    1  LIG1       -0.2340
     23 H          -3.5441    2.5329   -0.0000 H       1  LIG1        0.0662
     24 C          -7.4166   -0.0737   -0.0005 C.1     1  LIG1       -0.0491
     25 C          -8.2547   -0.9463   -0.0007 C.1     1  LIG1       -0.1124
     26 H          -8.9289   -1.7704   -0.0008 H       1  LIG1        0.1232
     27 O          -4.8264    4.8343    0.0005 O.3     1  LIG1       -0.4929
     28 C          -3.4096    4.9507    0.0005 C.3     1  LIG1        0.0789
     29 H          -3.1999    6.0212    0.0008 H       1  LIG1        0.0660
     30 H          -2.9679    4.4954    0.8949 H       1  LIG1        0.0660
     31 H          -2.9679    4.4957   -0.8941 H       1  LIG1        0.0660
     32 C          -9.2124    4.3524    0.0006 C.ar    1  LIG1        0.1233
     33 C          -7.8026    4.5700    0.0004 C.ar    1  LIG1        0.0413
     34 C          -7.4121    5.9186    0.0003 C.ar    1  LIG1       -0.0059
     35 C          -8.3278    6.9655    0.0005 C.ar    1  LIG1        0.1467
     36 C          -9.7199    6.6617    0.0007 C.ar    1  LIG1        0.1167
     37 N         -10.0741    5.3779    0.0007 N.ar    1  LIG1       -0.2340
     38 H          -6.3608    6.1442    0.0002 H       1  LIG1        0.0662
     39 C          -9.8738    3.0776    0.0007 C.1     1  LIG1       -0.0491
     40 C         -10.5887    2.1017    0.0009 C.1     1  LIG1       -0.1124
     41 H         -11.1359    1.1886    0.0011 H       1  LIG1        0.1232
     42 O          -7.9169    8.2710    0.0005 O.3     1  LIG1       -0.4929
     43 C          -6.5263    8.5625    0.0004 C.3     1  LIG1        0.0789
     44 H          -6.4524    9.6510    0.0005 H       1  LIG1        0.0660
     45 H          -6.0304    8.1663    0.8946 H       1  LIG1        0.0660
     46 H          -6.0306    8.1665   -0.8940 H       1  LIG1        0.0660
     47 C         -12.2130    7.2318    0.0016 C.ar    1  LIG1        0.1226
     48 C         -10.8446    7.6420    0.0008 C.ar    1  LIG1        0.0412
     49 C         -10.6058    9.0314    0.0002 C.ar    1  LIG1       -0.0065
     50 C         -11.6620    9.9343    0.0002 C.ar    1  LIG1        0.1388
     51 C         -12.9675    9.4270    0.0010 C.ar    1  LIG1        0.0706
     52 N         -13.2268    8.1304    0.0016 N.ar    1  LIG1       -0.2424
     53 H          -9.5897    9.3858   -0.0004 H       1  LIG1        0.0662
     54 H         -13.8121   10.1135    0.0010 H       1  LIG1        0.0867
     55 C         -12.6927    5.8799    0.0024 C.1     1  LIG1       -0.0491
     56 C         -13.2847    4.8244    0.0033 C.1     1  LIG1       -0.1124
     57 H         -13.7177    3.8520    0.0040 H       1  LIG1        0.1232
     58 O         -11.5381   11.2922   -0.0004 O.3     1  LIG1       -0.4936
     59 C         -10.2306   11.8433   -0.0012 C.3     1  LIG1        0.0789
     60 H         -10.3602   12.9265   -0.0015 H       1  LIG1        0.0660
     61 H          -9.6662   11.5468    0.8924 H       1  LIG1        0.0660
     62 H          -9.6669   11.5461   -0.8949 H       1  LIG1        0.0660
@<TRIPOS>BOND
     1    16    13    1
     2    62    59    1
     3    31    28    1
     4    46    43    1
     5    11    10    1
     6    10     9    3
     7     9     1    1
     8    60    59    1
     9     8     2    1
    10     1     2   ar
    11     1     6   ar
    12    59    58    1
    13    59    61    1
    14     2     3   ar
    15     6     5   ar
    16    26    25    1
    17     3     7    1
    18     3     4   ar
    19    25    24    3
    20     5     4   ar
    21     5    18    1
    22    24    17    1
    23    53    49    1
    24     4    12    1
    25    58    50    1
    26    17    18   ar
    27    17    22   ar
    28    18    19   ar
    29    22    21   ar
    30    19    23    1
    31    19    20   ar
    32    12    13    1
    33    21    20   ar
    34    21    33    1
    35    49    50   ar
    36    49    48   ar
    37    38    34    1
    38    13    14    1
    39    13    15    1
    40    20    27    1
    41    50    51   ar
    42    34    33   ar
    43    34    35   ar
    44    33    32   ar
    45    43    44    1
    46    43    42    1
    47    43    45    1
    48    27    28    1
    49    35    42    1
    50    35    36   ar
    51    28    29    1
    52    28    30    1
    53    32    37   ar
    54    32    39    1
    55    36    37   ar
    56    36    48    1
    57    39    40    3
    58    48    47   ar
    59    40    41    1
    60    51    54    1
    61    51    52   ar
    62    47    52   ar
    63    47    55    1
    64    55    56    3
    65    56    57    1
