@<TRIPOS>MOLECULE
mol_data/opt/b3lyp/geoms/mol2/6el6eh6ea-13fh4ff4ii-12de6fa.out
 100 107 0 0 0
SMALL
GASTEIGER

@<TRIPOS>ATOM
      1 C          -3.2492   -1.9355   -0.6476 C.ar    1  LIG1        0.1141
      2 C          -2.4176   -2.1020    0.4672 C.ar    1  LIG1       -0.0243
      3 C          -2.4120   -1.1266    1.4594 C.ar    1  LIG1       -0.0152
      4 C          -3.2480   -0.0166    1.3208 C.ar    1  LIG1        0.1461
      5 C          -4.1055    0.0470    0.1919 C.ar    1  LIG1        0.1166
      6 N          -4.0749   -0.8756   -0.7702 N.ar    1  LIG1       -0.2347
      7 H          -1.7542   -1.2270    2.3143 H       1  LIG1        0.0656
      8 H          -1.7793   -2.9754    0.5434 H       1  LIG1        0.0646
      9 C          -3.2503   -2.9044   -1.7047 C.1     1  LIG1       -0.0498
     10 C          -3.2266   -3.7376   -2.5812 C.1     1  LIG1       -0.1124
     11 H          -3.2198   -4.4647   -3.3597 H       1  LIG1        0.1232
     12 O          -3.2787    1.0383    2.1687 O.3     1  LIG1       -0.4930
     13 C          -2.5603    0.9523    3.3917 C.3     1  LIG1        0.0789
     14 H          -2.7811    1.8735    3.9310 H       1  LIG1        0.0660
     15 H          -2.8915    0.0938    3.9880 H       1  LIG1        0.0660
     16 H          -1.4786    0.8832    3.2204 H       1  LIG1        0.0660
     17 C          -6.0269    1.5723    0.9315 C.ar    1  LIG1        0.1232
     18 C          -5.0462    1.1841   -0.0135 C.ar    1  LIG1        0.0396
     19 C          -5.0106    1.8706   -1.2232 C.ar    1  LIG1       -0.0270
     20 C          -5.8807    2.9375   -1.4715 C.ar    1  LIG1        0.0517
     21 C          -6.7879    3.2886   -0.4368 C.ar    1  LIG1        0.0956
     22 N          -6.8563    2.6046    0.7056 N.ar    1  LIG1       -0.2358
     23 H          -4.3004    1.5591   -1.9836 H       1  LIG1        0.0644
     24 C          -6.2380    0.8499    2.1529 C.1     1  LIG1       -0.0491
     25 C          -6.4464    0.2293    3.1705 C.1     1  LIG1       -0.1124
     26 H          -6.6469   -0.3117    4.0656 H       1  LIG1        0.1232
     27 N          -5.8193    3.6414   -2.6681 N.pl3   1  LIG1       -0.3563
     28 H          -5.4129    3.1346   -3.4427 H       1  LIG1        0.1424
     29 H          -6.6632    4.1355   -2.9246 H       1  LIG1        0.1424
     30 C          -9.1150    4.3257   -0.4143 C.ar    1  LIG1        0.1231
     31 C          -7.7139    4.4463   -0.5814 C.ar    1  LIG1        0.0360
     32 C          -7.2202    5.7330   -0.8543 C.ar    1  LIG1       -0.0478
     33 C          -8.0750    6.8206   -0.9281 C.ar    1  LIG1       -0.0334
     34 C          -9.4517    6.6029   -0.7251 C.ar    1  LIG1        0.0922
     35 N          -9.9527    5.3743   -0.4839 N.ar    1  LIG1       -0.2362
     36 H          -6.1523    5.8713   -0.9948 H       1  LIG1        0.0626
     37 C          -9.7374    3.0489   -0.2015 C.1     1  LIG1       -0.0491
     38 C         -10.2945    1.9860   -0.0568 C.1     1  LIG1       -0.1124
     39 H         -10.7623    1.0402    0.0898 H       1  LIG1        0.1232
     40 H          -7.7078    7.8210   -1.1255 H       1  LIG1        0.0640
     41 C         -10.4221    7.6741   -0.7697 C.ar    1  LIG1        0.1093
     42 C         -10.3390    9.0395   -1.0315 C.ar    1  LIG1        0.1650
     43 C         -11.6398    9.5905   -0.9832 C.ar    1  LIG1        0.0931
     44 C         -12.5267    8.5424   -0.6976 C.ar    1  LIG1        0.0752
     45 N         -11.7626    7.4110   -0.5545 N.ar    1  LIG1       -0.3484
     46 H         -12.0889    6.4581   -0.4797 H       1  LIG1        0.1661
     47 O          -9.2234    9.7683   -1.2837 O.3     1  LIG1       -0.5030
     48 H          -9.5606   10.6636   -1.4758 H       1  LIG1        0.2923
     49 N         -11.8216   10.9901   -1.1714 N.pl3   1  LIG1       -0.3535
     50 H         -12.6202   11.1583   -1.7783 H       1  LIG1        0.1425
     51 H         -12.0097   11.4621   -0.2892 H       1  LIG1        0.1425
     52 C         -14.8866    9.2716   -1.2282 C.ar    1  LIG1        0.1268
     53 C         -16.2537    9.1740   -0.9810 C.ar    1  LIG1       -0.0083
     54 C         -13.9716    8.5027   -0.4804 C.ar    1  LIG1        0.0451
     55 C         -16.7865    8.3091   -0.0156 C.ar    1  LIG1        0.0273
     56 H         -16.9401    9.7640   -1.5840 H       1  LIG1        0.0661
     57 C         -14.5077    7.6369    0.4904 C.ar    1  LIG1       -0.0069
     58 C         -15.8773    7.5240    0.7199 C.ar    1  LIG1        0.1254
     59 H         -13.8200    7.0597    1.1041 H       1  LIG1        0.0662
     60 O         -14.4010   10.0880   -2.2262 O.3     1  LIG1       -0.5061
     61 H         -15.1465   10.4472   -2.7245 H       1  LIG1        0.2922
     62 O         -16.3819    6.6824    1.6750 O.3     1  LIG1       -0.5061
     63 H         -15.6498    6.2287    2.1128 H       1  LIG1        0.2922
     64 C         -19.0424    9.3344    0.5443 C.ar    1  LIG1       -0.0419
     65 C         -20.4198    9.1547    0.6750 C.ar    1  LIG1       -0.0473
     66 C         -18.2584    8.2138    0.1948 C.ar    1  LIG1       -0.0111
     67 C         -21.0473    7.9128    0.4846 C.ar    1  LIG1        0.0218
     68 H         -21.0295   10.0145    0.9335 H       1  LIG1        0.0627
     69 C         -18.8870    6.9706    0.0299 C.ar    1  LIG1       -0.0501
     70 C         -20.2613    6.7779    0.1648 C.ar    1  LIG1       -0.0392
     71 H         -18.2667    6.1111   -0.2031 H       1  LIG1        0.0627
     72 C         -18.4533   10.7033    0.8015 C.3     1  LIG1       -0.0391
     73 H         -19.1180   11.2909    1.4402 H       1  LIG1        0.0278
     74 H         -18.3090   11.2711   -0.1254 H       1  LIG1        0.0278
     75 H         -17.4786   10.6353    1.2909 H       1  LIG1        0.0278
     76 C         -20.8270    5.3839    0.0103 C.3     1  LIG1       -0.0390
     77 H         -20.0191    4.6486    0.0228 H       1  LIG1        0.0278
     78 H         -21.3761    5.2501   -0.9278 H       1  LIG1        0.0278
     79 H         -21.5195    5.1359    0.8204 H       1  LIG1        0.0278
     80 C         -22.4958    7.8494    0.6506 C.ar    1  LIG1        0.1545
     81 C         -23.3941    8.5031    1.4662 C.ar    1  LIG1        0.1134
     82 C         -24.7225    8.0268    1.1297 C.ar    1  LIG1        0.0885
     83 C         -24.5534    7.0937    0.1246 C.ar    1  LIG1        0.1574
     84 O         -23.2066    6.9987   -0.1537 O.2     1  LIG1       -0.4521
     85 N         -22.8694   10.2431    3.3005 N.1     1  LIG1       -0.1907
     86 C         -23.0973    9.4548    2.4750 C.1     1  LIG1        0.1042
     87 C         -25.9182    8.4742    1.7387 C.1     1  LIG1       -0.0645
     88 C         -26.9148    8.8876    2.2869 C.1     1  LIG1       -0.1138
     89 H         -27.7888    9.2607    2.7693 H       1  LIG1        0.1232
     90 C         -25.0655    5.5909   -1.8554 C.ar    1  LIG1        0.2233
     91 C         -25.4513    6.2489   -0.6471 C.ar    1  LIG1        0.0798
     92 C         -26.7762    6.0521   -0.2220 C.ar    1  LIG1       -0.0445
     93 C         -27.6382    5.2546   -0.9626 C.ar    1  LIG1       -0.0427
     94 C         -27.1424    4.6610   -2.1227 C.ar    1  LIG1        0.0314
     95 N         -25.8916    4.8235   -2.5582 N.ar    1  LIG1       -0.2209
     96 H         -27.1144    6.5260    0.6917 H       1  LIG1        0.0627
     97 H         -27.7776    4.0226   -2.7339 H       1  LIG1        0.0831
     98 O         -23.8329    5.6959   -2.3967 O.3     1  LIG1       -0.4919
     99 H         -23.2800    6.2688   -1.8448 H       1  LIG1        0.2937
    100 H         -28.6620    5.0907   -0.6459 H       1  LIG1        0.0633
@<TRIPOS>BOND
     1    28    27    1
     2    11    10    1
     3    29    27    1
     4    97    94    1
     5    61    60    1
     6    27    20    1
     7    10     9    3
     8    95    94   ar
     9    95    90   ar
    10    98    90    1
    11    98    99    1
    12    60    52    1
    13    94    93   ar
    14    23    19    1
    15    90    91   ar
    16    50    49    1
    17     9     1    1
    18    56    53    1
    19    48    47    1
    20    20    19   ar
    21    20    21   ar
    22    47    42    1
    23    52    53   ar
    24    52    54   ar
    25    19    18   ar
    26    49    43    1
    27    49    51    1
    28    40    33    1
    29    42    43   ar
    30    42    41   ar
    31    36    32    1
    32    43    44   ar
    33    53    55   ar
    34    93   100    1
    35    93    92   ar
    36    33    32   ar
    37    33    34   ar
    38    78    76    1
    39    32    31   ar
    40     6     1   ar
    41     6     5   ar
    42    41    34    1
    43    41    45   ar
    44    34    35   ar
    45    44    45   ar
    46    44    54    1
    47     1     2   ar
    48    91    92   ar
    49    91    83    1
    50    31    21    1
    51    31    30   ar
    52    45    46    1
    53    35    30   ar
    54    54    57   ar
    55    21    22   ar
    56    30    37    1
    57    92    96    1
    58    71    69    1
    59    37    38    3
    60    84    83   ar
    61    84    80   ar
    62    74    72    1
    63    38    39    1
    64    55    66    1
    65    55    58   ar
    66    18     5    1
    67    18    17   ar
    68    76    77    1
    69    76    70    1
    70    76    79    1
    71    69    70   ar
    72    69    66   ar
    73    83    82   ar
    74    70    67   ar
    75     5     4   ar
    76    66    64   ar
    77     2     8    1
    78     2     3   ar
    79    67    80    1
    80    67    65   ar
    81    57    58   ar
    82    57    59    1
    83    64    65   ar
    84    64    72    1
    85    80    81   ar
    86    65    68    1
    87    22    17   ar
    88    58    62    1
    89    72    75    1
    90    72    73    1
    91    17    24    1
    92    82    81   ar
    93    82    87    1
    94     4     3   ar
    95     4    12    1
    96     3     7    1
    97    81    86    1
    98    62    63    1
    99    87    88    3
   100    24    25    3
   101    12    13    1
   102    88    89    1
   103    86    85    3
   104    25    26    1
   105    16    13    1
   106    13    14    1
   107    13    15    1
