@<TRIPOS>MOLECULE
mol_data/opt/b3lyp/geoms/mol2/6el6el.out
 32 33 0 0 0
SMALL
GASTEIGER

@<TRIPOS>ATOM
      1 C          -4.4943   -2.2084   -0.0001 C.ar    1  LIG1        0.1141
      2 C          -3.0965   -2.2674   -0.0001 C.ar    1  LIG1       -0.0243
      3 C          -2.3945   -1.0700   -0.0001 C.ar    1  LIG1       -0.0152
      4 C          -3.0786    0.1490   -0.0002 C.ar    1  LIG1        0.1461
      5 C          -4.5113    0.1353   -0.0002 C.ar    1  LIG1        0.1166
      6 N          -5.1453   -1.0387   -0.0002 N.ar    1  LIG1       -0.2347
      7 H          -1.3122   -1.0899   -0.0001 H       1  LIG1        0.0656
      8 H          -2.5804   -3.2209   -0.0000 H       1  LIG1        0.0646
      9 C          -5.2765   -3.4120   -0.0000 C.1     1  LIG1       -0.0498
     10 C          -5.8962   -4.4503    0.0000 C.1     1  LIG1       -0.1124
     11 H          -6.4591   -5.3549    0.0003 H       1  LIG1        0.1232
     12 O          -2.4159    1.3411   -0.0003 O.3     1  LIG1       -0.4930
     13 C          -0.9928    1.3479   -0.0003 C.3     1  LIG1        0.0789
     14 H          -0.7025    2.3990   -0.0004 H       1  LIG1        0.0660
     15 H          -0.5882    0.8615    0.8950 H       1  LIG1        0.0660
     16 H          -0.5882    0.8614   -0.8956 H       1  LIG1        0.0660
     17 C          -6.8269    1.2221   -0.0002 C.ar    1  LIG1        0.1226
     18 C          -5.4029    1.3358   -0.0003 C.ar    1  LIG1        0.0412
     19 C          -4.8788    2.6443   -0.0004 C.ar    1  LIG1       -0.0065
     20 C          -5.7222    3.7492   -0.0005 C.ar    1  LIG1        0.1388
     21 C          -7.1049    3.5270   -0.0004 C.ar    1  LIG1        0.0706
     22 N          -7.6292    2.3134   -0.0003 N.ar    1  LIG1       -0.2424
     23 H          -3.8119    2.7813   -0.0005 H       1  LIG1        0.0662
     24 H          -7.7871    4.3748   -0.0005 H       1  LIG1        0.0867
     25 C          -7.5863    0.0038   -0.0000 C.1     1  LIG1       -0.0491
     26 C          -8.3951   -0.8966    0.0001 C.1     1  LIG1       -0.1124
     27 H          -9.0453   -1.7396    0.0001 H       1  LIG1        0.1232
     28 O          -5.3165    5.0498   -0.0006 O.3     1  LIG1       -0.4936
     29 C          -3.9225    5.3172   -0.0007 C.3     1  LIG1        0.0789
     30 H          -3.8248    6.4036   -0.0008 H       1  LIG1        0.0660
     31 H          -3.4329    4.9101    0.8933 H       1  LIG1        0.0660
     32 H          -3.4330    4.9100   -0.8947 H       1  LIG1        0.0660
@<TRIPOS>BOND
     1    16    13    1
     2    32    29    1
     3    30    29    1
     4    29    28    1
     5    29    31    1
     6    28    20    1
     7    20    19   ar
     8    20    21   ar
     9    23    19    1
    10    24    21    1
    11    19    18   ar
    12    21    22   ar
    13    14    13    1
    14    13    12    1
    15    13    15    1
    16    18     5    1
    17    18    17   ar
    18    22    17   ar
    19    12     4    1
    20     5     4   ar
    21     5     6   ar
    22     4     3   ar
    23    17    25    1
    24     6     1   ar
    25     3     7    1
    26     3     2   ar
    27     1     2   ar
    28     1     9    1
    29     2     8    1
    30    25    26    3
    31     9    10    3
    32    10    11    1
    33    26    27    1
