@<TRIPOS>MOLECULE
mol_data/opt/b3lyp/geoms/mol2/6el6el6el.out
 47 49 0 0 0
SMALL
GASTEIGER

@<TRIPOS>ATOM
      1 C          -4.4290   -2.3151   -0.0006 C.ar    1  LIG1        0.1141
      2 C          -3.0318   -2.3965   -0.0005 C.ar    1  LIG1       -0.0243
      3 C          -2.3095   -1.2112   -0.0003 C.ar    1  LIG1       -0.0152
      4 C          -2.9739    0.0184   -0.0002 C.ar    1  LIG1        0.1461
      5 C          -4.4061    0.0274   -0.0003 C.ar    1  LIG1        0.1166
      6 N          -5.0618   -1.1356   -0.0005 N.ar    1  LIG1       -0.2347
      7 H          -1.2276   -1.2493   -0.0003 H       1  LIG1        0.0656
      8 H          -2.5317   -3.3585   -0.0006 H       1  LIG1        0.0646
      9 C          -5.2301   -3.5061   -0.0008 C.1     1  LIG1       -0.0498
     10 C          -5.8678   -4.5334   -0.0010 C.1     1  LIG1       -0.1124
     11 H          -6.4459   -5.4284   -0.0012 H       1  LIG1        0.1232
     12 O          -2.2945    1.2016    0.0000 O.3     1  LIG1       -0.4930
     13 C          -0.8710    1.1848    0.0001 C.3     1  LIG1        0.0789
     14 H          -0.5627    2.2307    0.0003 H       1  LIG1        0.0660
     15 H          -0.4752    0.6913    0.8953 H       1  LIG1        0.0660
     16 H          -0.4751    0.6915   -0.8952 H       1  LIG1        0.0660
     17 C          -6.6993    1.1697   -0.0002 C.ar    1  LIG1        0.1233
     18 C          -5.2744    1.2397   -0.0002 C.ar    1  LIG1        0.0413
     19 C          -4.7478    2.5409   -0.0001 C.ar    1  LIG1       -0.0059
     20 C          -5.5504    3.6772   -0.0001 C.ar    1  LIG1        0.1467
     21 C          -6.9662    3.5195   -0.0000 C.ar    1  LIG1        0.1167
     22 N          -7.4502    2.2789   -0.0001 N.ar    1  LIG1       -0.2340
     23 H          -3.6796    2.6600   -0.0002 H       1  LIG1        0.0662
     24 C          -7.4948   -0.0272   -0.0002 C.1     1  LIG1       -0.0491
     25 C          -8.3132   -0.9183   -0.0001 C.1     1  LIG1       -0.1124
     26 H          -8.9695   -1.7567   -0.0001 H       1  LIG1        0.1232
     27 O          -5.0064    4.9323    0.0000 O.3     1  LIG1       -0.4929
     28 C          -3.5929    5.0795    0.0000 C.3     1  LIG1        0.0789
     29 H          -3.4078    6.1545    0.0001 H       1  LIG1        0.0660
     30 H          -3.1407    4.6348    0.8946 H       1  LIG1        0.0660
     31 H          -3.1407    4.6349   -0.8945 H       1  LIG1        0.0660
     32 C          -9.3867    4.3446    0.0004 C.ar    1  LIG1        0.1226
     33 C          -7.9835    4.6110    0.0000 C.ar    1  LIG1        0.0412
     34 C          -7.6018    5.9681   -0.0004 C.ar    1  LIG1       -0.0065
     35 C          -8.5588    6.9757   -0.0004 C.ar    1  LIG1        0.1388
     36 C          -9.9099    6.6062    0.0000 C.ar    1  LIG1        0.0706
     37 N         -10.3019    5.3435    0.0004 N.ar    1  LIG1       -0.2424
     38 H          -6.5547    6.2160   -0.0007 H       1  LIG1        0.0662
     39 H         -10.6788    7.3764    0.0000 H       1  LIG1        0.0867
     40 C         -10.0044    3.0500    0.0009 C.1     1  LIG1       -0.0491
     41 C         -10.7035    2.0621    0.0014 C.1     1  LIG1       -0.1124
     42 H         -11.2392    1.1424    0.0018 H       1  LIG1        0.1232
     43 O          -8.2950    8.3131   -0.0007 O.3     1  LIG1       -0.4936
     44 C          -6.9375    8.7266   -0.0012 C.3     1  LIG1        0.0789
     45 H          -6.9550    9.8173   -0.0014 H       1  LIG1        0.0660
     46 H          -6.4070    8.3735    0.8925 H       1  LIG1        0.0660
     47 H          -6.4075    8.3731   -0.8949 H       1  LIG1        0.0660
@<TRIPOS>BOND
     1    16    13    1
     2    47    44    1
     3    31    28    1
     4    45    44    1
     5    11    10    1
     6    44    43    1
     7    44    46    1
     8    10     9    3
     9     9     1    1
    10    43    35    1
    11    38    34    1
    12     8     2    1
    13     1     2   ar
    14     1     6   ar
    15     2     3   ar
    16     6     5   ar
    17    34    35   ar
    18    34    33   ar
    19    35    36   ar
    20     3     7    1
    21     3     4   ar
    22     5     4   ar
    23     5    18    1
    24     4    12    1
    25    18    17   ar
    26    18    19   ar
    27    23    19    1
    28    24    17    1
    29    24    25    3
    30    17    22   ar
    31    19    20   ar
    32    25    26    1
    33    22    21   ar
    34    20    21   ar
    35    20    27    1
    36    21    33    1
    37    33    32   ar
    38    27    28    1
    39    36    39    1
    40    36    37   ar
    41    12    13    1
    42    28    29    1
    43    28    30    1
    44    13    14    1
    45    13    15    1
    46    37    32   ar
    47    32    40    1
    48    40    41    3
    49    41    42    1
