@<TRIPOS>MOLECULE
mol_data/opt/b3lyp/geoms/mol2/6el6el-.out
 32 33 0 0 0
SMALL
GASTEIGER

@<TRIPOS>ATOM
      1 C          -4.4702   -2.0676    0.5252 C.ar    1  LIG1        0.1141
      2 C          -3.1600   -2.1694    0.0399 C.ar    1  LIG1       -0.0243
      3 C          -2.5315   -1.0328   -0.4590 C.ar    1  LIG1       -0.0152
      4 C          -3.2224    0.1807   -0.4479 C.ar    1  LIG1        0.1461
      5 C          -4.5251    0.2101    0.1121 C.ar    1  LIG1        0.1166
      6 N          -5.1300   -0.8911    0.5560 N.ar    1  LIG1       -0.2347
      7 H          -1.5277   -1.1012   -0.8607 H       1  LIG1        0.0656
      8 H          -2.6522   -3.1276    0.0446 H       1  LIG1        0.0646
      9 C          -5.1566   -3.2274    1.0148 C.1     1  LIG1       -0.0498
     10 C          -5.7097   -4.2240    1.4191 C.1     1  LIG1       -0.1124
     11 H          -6.2110   -5.0914    1.7815 H       1  LIG1        0.1232
     12 O          -2.7572    1.3415   -0.9678 O.3     1  LIG1       -0.4930
     13 C          -1.4053    1.4003   -1.4024 C.3     1  LIG1        0.0789
     14 H          -1.2384    2.4312   -1.7149 H       1  LIG1        0.0660
     15 H          -0.7143    1.1509   -0.5883 H       1  LIG1        0.0660
     16 H          -1.2254    0.7306   -2.2526 H       1  LIG1        0.0660
     17 C          -4.8664    2.6412    0.8472 C.ar    1  LIG1        0.1226
     18 C          -5.3172    1.4721    0.1802 C.ar    1  LIG1        0.0412
     19 C          -6.5862    1.4978   -0.3870 C.ar    1  LIG1       -0.0065
     20 C          -7.3535    2.6643   -0.3275 C.ar    1  LIG1        0.1388
     21 C          -6.8059    3.7803    0.3210 C.ar    1  LIG1        0.0706
     22 N          -5.6049    3.7622    0.9008 N.ar    1  LIG1       -0.2424
     23 H          -6.9883    0.6172   -0.8757 H       1  LIG1        0.0662
     24 H          -7.3503    4.7176    0.3889 H       1  LIG1        0.0867
     25 C          -3.6209    2.6736    1.5596 C.1     1  LIG1       -0.0491
     26 C          -2.5897    2.7046    2.1910 C.1     1  LIG1       -0.1124
     27 H          -1.6886    2.7419    2.7578 H       1  LIG1        0.1232
     28 O          -8.5794    2.6188   -0.9134 O.3     1  LIG1       -0.4936
     29 C          -9.3904    3.7863   -0.8641 C.3     1  LIG1        0.0789
     30 H         -10.3173    3.5281   -1.3772 H       1  LIG1        0.0660
     31 H          -9.6168    4.0759    0.1694 H       1  LIG1        0.0660
     32 H          -8.9145    4.6300   -1.3790 H       1  LIG1        0.0660
@<TRIPOS>BOND
     1    16    13    1
     2    14    13    1
     3    13    12    1
     4    13    15    1
     5    32    29    1
     6    30    29    1
     7    12     4    1
     8    28    29    1
     9    28    20    1
    10    23    19    1
    11    29    31    1
    12     7     3    1
    13     3     4   ar
    14     3     2   ar
    15     4     5   ar
    16    19    20   ar
    17    19    18   ar
    18    20    21   ar
    19     2     8    1
    20     2     1   ar
    21     5    18    1
    22     5     6   ar
    23    18    17   ar
    24    21    24    1
    25    21    22   ar
    26     1     6   ar
    27     1     9    1
    28    17    22   ar
    29    17    25    1
    30     9    10    3
    31    10    11    1
    32    25    26    3
    33    26    27    1
