@<TRIPOS>MOLECULE
mol_data/opt/b3lyp/geoms/mol2/6el6el6el6el-.out
 62 65 0 0 0
SMALL
GASTEIGER

@<TRIPOS>ATOM
      1 C          -3.9046   -1.9340   -1.3301 C.ar    1  LIG1        0.1141
      2 C          -2.9052   -2.2809   -0.4113 C.ar    1  LIG1       -0.0243
      3 C          -2.6624   -1.4441    0.6731 C.ar    1  LIG1       -0.0152
      4 C          -3.4225   -0.2807    0.8122 C.ar    1  LIG1        0.1461
      5 C          -4.4172   -0.0030   -0.1605 C.ar    1  LIG1        0.1166
      6 N          -4.6396   -0.8124   -1.1945 N.ar    1  LIG1       -0.2347
      7 H          -1.8966   -1.7030    1.3943 H       1  LIG1        0.0656
      8 H          -2.3320   -3.1911   -0.5489 H       1  LIG1        0.0646
      9 C          -4.1753   -2.7744   -2.4600 C.1     1  LIG1       -0.0498
     10 C          -4.3773   -3.5043   -3.4028 C.1     1  LIG1       -0.1124
     11 H          -4.5715   -4.1353   -4.2390 H       1  LIG1        0.1232
     12 O          -3.2855    0.6148    1.8267 O.3     1  LIG1       -0.4930
     13 C          -2.3628    0.3210    2.8688 C.3     1  LIG1        0.0789
     14 H          -2.4510    1.1393    3.5839 H       1  LIG1        0.0660
     15 H          -2.6097   -0.6239    3.3675 H       1  LIG1        0.0660
     16 H          -1.3322    0.2754    2.4953 H       1  LIG1        0.0660
     17 C          -6.6771    1.1459   -0.0395 C.ar    1  LIG1        0.1233
     18 C          -5.2678    1.2190   -0.0715 C.ar    1  LIG1        0.0413
     19 C          -4.6818    2.4875   -0.0513 C.ar    1  LIG1       -0.0059
     20 C          -5.4842    3.6259   -0.0273 C.ar    1  LIG1        0.1467
     21 C          -6.8904    3.4585   -0.0121 C.ar    1  LIG1        0.1167
     22 N          -7.4474    2.2502   -0.0108 N.ar    1  LIG1       -0.2340
     23 H          -3.6024    2.5683   -0.0564 H       1  LIG1        0.0662
     24 C          -7.3719   -0.1079    0.0036 C.1     1  LIG1       -0.0491
     25 C          -7.9783   -1.1516    0.0678 C.1     1  LIG1       -0.1124
     26 H          -8.5122   -2.0726    0.1045 H       1  LIG1        0.1232
     27 O          -5.0106    4.9027   -0.0134 O.3     1  LIG1       -0.4929
     28 C          -3.6046    5.0998    0.0555 C.3     1  LIG1        0.0789
     29 H          -3.4568    6.1794    0.0987 H       1  LIG1        0.0660
     30 H          -3.1787    4.6391    0.9551 H       1  LIG1        0.0660
     31 H          -3.0958    4.6997   -0.8305 H       1  LIG1        0.0660
     32 C          -8.8070    4.7887    0.9912 C.ar    1  LIG1        0.1233
     33 C          -7.8144    4.6283    0.0003 C.ar    1  LIG1        0.0413
     34 C          -7.7478    5.5865   -1.0154 C.ar    1  LIG1       -0.0059
     35 C          -8.6474    6.6498   -1.0321 C.ar    1  LIG1        0.1467
     36 C          -9.5833    6.7538    0.0246 C.ar    1  LIG1        0.1167
     37 N          -9.6591    5.8336    0.9839 N.ar    1  LIG1       -0.2340
     38 H          -7.0055    5.4759   -1.7953 H       1  LIG1        0.0662
     39 C          -8.9419    3.8787    2.0912 C.1     1  LIG1       -0.0491
     40 C          -9.0620    3.1447    3.0442 C.1     1  LIG1       -0.1124
     41 H          -9.1764    2.4809    3.8691 H       1  LIG1        0.1232
     42 O          -8.7256    7.5810   -2.0148 O.3     1  LIG1       -0.4929
     43 C          -7.7180    7.5991   -3.0158 C.3     1  LIG1        0.0789
     44 H          -7.9466    8.4541   -3.6525 H       1  LIG1        0.0660
     45 H          -6.7218    7.7289   -2.5761 H       1  LIG1        0.0660
     46 H          -7.7328    6.6834   -3.6202 H       1  LIG1        0.0660
     47 C         -10.2152    9.2372    0.1059 C.ar    1  LIG1        0.1226
     48 C         -10.5759    7.8643    0.0919 C.ar    1  LIG1        0.0412
     49 C         -11.9257    7.5481    0.2012 C.ar    1  LIG1       -0.0065
     50 C         -12.8776    8.5684    0.2739 C.ar    1  LIG1        0.1388
     51 C         -12.4253    9.8952    0.2424 C.ar    1  LIG1        0.0706
     52 N         -11.1327   10.2166    0.1739 N.ar    1  LIG1       -0.2424
     53 H         -12.2464    6.5128    0.2308 H       1  LIG1        0.0662
     54 H         -13.1190   10.7299    0.2844 H       1  LIG1        0.0867
     55 C          -8.8442    9.6617    0.1155 C.1     1  LIG1       -0.0491
     56 C          -7.6950   10.0365    0.1589 C.1     1  LIG1       -0.1124
     57 H          -6.6871   10.3775    0.2039 H       1  LIG1        0.1232
     58 O         -14.1788    8.1842    0.3660 O.3     1  LIG1       -0.4936
     59 C         -15.1735    9.1975    0.4414 C.3     1  LIG1        0.0789
     60 H         -16.1279    8.6746    0.5130 H       1  LIG1        0.0660
     61 H         -15.0393    9.8292    1.3281 H       1  LIG1        0.0660
     62 H         -15.1737    9.8301   -0.4549 H       1  LIG1        0.0660
@<TRIPOS>BOND
     1    11    10    1
     2    44    43    1
     3    46    43    1
     4    10     9    3
     5    43    45    1
     6    43    42    1
     7     9     1    1
     8    42    35    1
     9    38    34    1
    10     1     6   ar
    11     1     2   ar
    12     6     5   ar
    13    35    34   ar
    14    35    36   ar
    15    34    33   ar
    16    31    28    1
    17     8     2    1
    18    62    59    1
    19     2     3   ar
    20     5    18    1
    21     5     4   ar
    22    18    19   ar
    23    18    17   ar
    24    23    19    1
    25    19    20   ar
    26    17    22   ar
    27    17    24    1
    28    20    27    1
    29    20    21   ar
    30    27    28    1
    31    21    22   ar
    32    21    33    1
    33    33    32   ar
    34    24    25    3
    35    36    48    1
    36    36    37   ar
    37    28    29    1
    38    28    30    1
    39    25    26    1
    40    48    47   ar
    41    48    49   ar
    42    47    55    1
    43    47    52   ar
    44    55    56    3
    45    56    57    1
    46    52    51   ar
    47    49    53    1
    48    49    50   ar
    49    51    50   ar
    50    51    54    1
    51    50    58    1
    52    58    59    1
    53    59    60    1
    54    59    61    1
    55     3     4   ar
    56     3     7    1
    57     4    12    1
    58    37    32   ar
    59    32    39    1
    60    12    13    1
    61    39    40    3
    62    16    13    1
    63    13    15    1
    64    13    14    1
    65    40    41    1
