@<TRIPOS>MOLECULE
mol_data/opt/b3lyp/geoms/mol2/6fa12fe-13ef4fi-13el4fe13fe6il-.out
 101 108 0 0 0
SMALL
GASTEIGER

@<TRIPOS>ATOM
      1 C          -5.2443   -0.2851    3.4791 C.ar    1  LIG1        0.2129
      2 C          -4.0457   -0.0477    4.1717 C.ar    1  LIG1       -0.0001
      3 C          -3.3433    1.1120    3.8554 C.ar    1  LIG1       -0.0546
      4 C          -3.8349    1.9800    2.8866 C.ar    1  LIG1       -0.0323
      5 C          -5.0465    1.6421    2.2553 C.ar    1  LIG1        0.1135
      6 N          -5.7379    0.5224    2.5530 N.ar    1  LIG1       -0.2098
      7 H          -2.4111    1.3367    4.3656 H       1  LIG1        0.0620
      8 H          -3.6821   -0.7417    4.9241 H       1  LIG1        0.0671
      9 O          -6.0041   -1.3909    3.7181 O.3     1  LIG1       -0.4924
     10 H          -5.5760   -1.9193    4.4043 H       1  LIG1        0.2937
     11 H          -3.3107    2.8886    2.6191 H       1  LIG1        0.0640
     12 C          -5.6170    2.5032    1.2387 C.ar    1  LIG1        0.1964
     13 C          -5.2632    3.7161    0.6976 C.ar    1  LIG1        0.1806
     14 C          -6.2559    4.0814   -0.2761 C.ar    1  LIG1        0.1140
     15 C          -7.1738    3.0361   -0.2805 C.ar    1  LIG1        0.1722
     16 O          -6.7846    2.0985    0.6271 O.2     1  LIG1       -0.4467
     17 O          -4.1840    4.4614    1.0231 O.3     1  LIG1       -0.5023
     18 H          -4.2218    5.2740    0.4912 H       1  LIG1        0.2923
     19 C          -6.1951    5.3279   -0.9376 C.1     1  LIG1       -0.0621
     20 C          -5.9905    6.4352   -1.3884 C.1     1  LIG1       -0.1137
     21 H          -5.8819    7.3994   -1.8281 H       1  LIG1        0.1232
     22 C          -8.4022    2.7146   -0.9453 C.ar    1  LIG1        0.1031
     23 C          -9.0897    3.2347   -2.0595 C.ar    1  LIG1        0.0949
     24 C         -10.2883    2.4718   -2.1887 C.ar    1  LIG1        0.1582
     25 C         -10.3155    1.5011   -1.1773 C.ar    1  LIG1        0.0938
     26 N          -9.1499    1.6775   -0.4529 N.ar    1  LIG1       -0.3477
     27 H          -8.9174    1.2006    0.4049 H       1  LIG1        0.1661
     28 C          -8.6831    4.2398   -2.9664 C.1     1  LIG1       -0.0637
     29 C          -8.3720    5.0801   -3.7802 C.1     1  LIG1       -0.1137
     30 H          -8.0825    5.8148   -4.4941 H       1  LIG1        0.1232
     31 O         -11.1595    2.6703   -3.1981 O.3     1  LIG1       -0.5035
     32 H         -12.0164    2.2912   -2.9284 H       1  LIG1        0.2923
     33 C         -12.5990    0.4128   -1.1567 C.ar    1  LIG1        0.1267
     34 C         -13.4110   -0.6669   -0.8478 C.ar    1  LIG1       -0.0101
     35 C         -11.2184    0.3965   -0.8751 C.ar    1  LIG1        0.0436
     36 C         -12.9127   -1.8166   -0.2096 C.ar    1  LIG1        0.0060
     37 H         -14.4681   -0.6176   -1.0897 H       1  LIG1        0.0661
     38 C         -10.7382   -0.7644   -0.2388 C.ar    1  LIG1       -0.0455
     39 C         -11.5323   -1.8564    0.1116 C.ar    1  LIG1       -0.0405
     40 H          -9.6760   -0.8256   -0.0197 H       1  LIG1        0.0628
     41 O         -13.1307    1.5453   -1.7449 O.3     1  LIG1       -0.5061
     42 H         -14.0851    1.4355   -1.8495 H       1  LIG1        0.2922
     43 C         -10.8765   -3.0137    0.8350 C.3     1  LIG1       -0.0391
     44 H          -9.9448   -2.6883    1.3046 H       1  LIG1        0.0278
     45 H         -10.6069   -3.8366    0.1579 H       1  LIG1        0.0278
     46 H         -11.5201   -3.4241    1.6180 H       1  LIG1        0.0278
     47 C         -13.8569   -2.8995    0.0832 C.ar    1  LIG1        0.0665
     48 C         -15.2150   -2.8483    0.4493 C.ar    1  LIG1        0.0921
     49 C         -15.6632   -4.2040    0.5909 C.ar    1  LIG1        0.1613
     50 C         -14.5985   -5.0478    0.3120 C.ar    1  LIG1        0.0940
     51 N         -13.5254   -4.2277    0.0107 N.ar    1  LIG1       -0.3501
     52 H         -12.6103   -4.5754   -0.2241 H       1  LIG1        0.1660
     53 C         -15.9927   -1.6936    0.7121 C.1     1  LIG1       -0.0638
     54 C         -16.6825   -0.7208    0.9314 C.1     1  LIG1       -0.1137
     55 H         -17.2766    0.1288    1.1755 H       1  LIG1        0.1232
     56 O         -16.9081   -4.6203    0.9517 O.3     1  LIG1       -0.4917
     57 C         -17.9493   -4.2920    0.0276 C.3     1  LIG1        0.0789
     58 H         -18.8694   -4.7022    0.4486 H       1  LIG1        0.0660
     59 H         -18.0565   -3.2091   -0.0917 H       1  LIG1        0.0660
     60 H         -17.7622   -4.7495   -0.9523 H       1  LIG1        0.0660
     61 C         -14.9734   -7.3631    1.2492 C.ar    1  LIG1        0.1268
     62 C         -14.8364   -8.7436    1.1406 C.ar    1  LIG1       -0.0091
     63 C         -14.4837   -6.5061    0.2356 C.ar    1  LIG1        0.0445
     64 C         -14.1963   -9.3607    0.0493 C.ar    1  LIG1        0.0208
     65 H         -15.2160   -9.3679    1.9415 H       1  LIG1        0.0661
     66 C         -13.8457   -7.1138   -0.8464 C.ar    1  LIG1       -0.0330
     67 C         -13.6834   -8.5058   -0.9715 C.ar    1  LIG1        0.0347
     68 H         -13.4789   -6.4896   -1.6553 H       1  LIG1        0.0638
     69 O         -15.5394   -6.7901    2.3407 O.3     1  LIG1       -0.5061
     70 H         -15.8534   -7.4834    2.9367 H       1  LIG1        0.2922
     71 C         -13.0373   -8.9650   -2.1602 C.1     1  LIG1       -0.0690
     72 C         -12.4827   -9.2906   -3.1899 C.1     1  LIG1       -0.1139
     73 H         -12.0230   -9.5652   -4.1114 H       1  LIG1        0.1232
     74 C         -14.0907  -10.8129    0.0354 C.ar    1  LIG1        0.0915
     75 C         -14.6620  -11.7751    0.8700 C.ar    1  LIG1        0.1580
     76 C         -14.2480  -13.0672    0.4400 C.ar    1  LIG1        0.0919
     77 C         -13.4004  -12.8772   -0.6677 C.ar    1  LIG1        0.0680
     78 N         -13.3240  -11.5339   -0.8739 N.ar    1  LIG1       -0.3502
     79 H         -12.8667  -11.0971   -1.6626 H       1  LIG1        0.1660
     80 O         -15.4753  -11.5356    1.9325 O.3     1  LIG1       -0.5035
     81 H         -15.7168  -12.3959    2.3112 H       1  LIG1        0.2923
     82 C         -14.6338  -14.2539    1.1064 C.1     1  LIG1       -0.0639
     83 C         -15.0312  -15.2079    1.7428 C.1     1  LIG1       -0.1137
     84 H         -15.3400  -16.0648    2.2956 H       1  LIG1        0.1232
     85 C         -11.4259  -13.6859   -2.0434 C.ar    1  LIG1        0.0476
     86 C         -12.7228  -13.8687   -1.5083 C.ar    1  LIG1        0.0241
     87 C         -13.3961  -15.0740   -1.7835 C.ar    1  LIG1       -0.0076
     88 C         -12.7822  -16.0369   -2.5770 C.ar    1  LIG1        0.1387
     89 C         -11.5070  -15.7506   -3.0876 C.ar    1  LIG1        0.0695
     90 N         -10.8574  -14.6226   -2.8234 N.ar    1  LIG1       -0.2559
     91 H         -14.3876  -15.2268   -1.3775 H       1  LIG1        0.0662
     92 H         -11.0130  -16.4830   -3.7228 H       1  LIG1        0.0867
     93 C         -10.5660  -12.4752   -1.7644 C.3     1  LIG1       -0.0217
     94 H         -10.6587  -12.1345   -0.7295 H       1  LIG1        0.0293
     95 H         -10.8148  -11.6237   -2.4116 H       1  LIG1        0.0293
     96 H          -9.5263  -12.7377   -1.9663 H       1  LIG1        0.0293
     97 O         -13.3168  -17.2415   -2.9183 O.3     1  LIG1       -0.4936
     98 C         -14.6016  -17.5673   -2.4053 C.3     1  LIG1        0.0789
     99 H         -14.8257  -18.5702   -2.7704 H       1  LIG1        0.0660
    100 H         -14.6089  -17.5690   -1.3082 H       1  LIG1        0.0660
    101 H         -15.3686  -16.8709   -2.7674 H       1  LIG1        0.0660
@<TRIPOS>BOND
     1    30    29    1
     2    73    72    1
     3    29    28    3
     4    92    89    1
     5    31    32    1
     6    31    24    1
     7    72    71    3
     8    89    90   ar
     9    89    88   ar
    10    28    23    1
    11    97    88    1
    12    97    98    1
    13    90    85   ar
    14    99    98    1
    15   101    98    1
    16    88    87   ar
    17    95    93    1
    18    98   100    1
    19    24    23   ar
    20    24    25   ar
    21    71    67    1
    22    23    22   ar
    23    85    93    1
    24    85    86   ar
    25    96    93    1
    26    42    41    1
    27    21    20    1
    28    87    86   ar
    29    87    91    1
    30    93    94    1
    31    41    33    1
    32    79    78    1
    33    68    66    1
    34    86    77    1
    35    20    19    3
    36    25    35    1
    37    25    26   ar
    38    33    35   ar
    39    33    34   ar
    40    37    34    1
    41    67    66   ar
    42    67    64   ar
    43    60    57    1
    44    22    26   ar
    45    22    15    1
    46    19    14    1
    47    35    38   ar
    48    78    77   ar
    49    78    74   ar
    50    34    36   ar
    51    66    63   ar
    52    77    76   ar
    53    26    27    1
    54    15    14   ar
    55    15    16   ar
    56    14    13   ar
    57    38    40    1
    58    38    39   ar
    59    52    51    1
    60    36    47    1
    61    36    39   ar
    62    59    57    1
    63    51    47   ar
    64    51    50   ar
    65    57    58    1
    66    57    56    1
    67    74    64    1
    68    74    75   ar
    69    64    62   ar
    70    47    48   ar
    71    39    43    1
    72    45    43    1
    73    63    50    1
    74    63    61   ar
    75    50    49   ar
    76    76    75   ar
    77    76    82    1
    78    48    49   ar
    79    48    53    1
    80    18    17    1
    81    49    56    1
    82    16    12   ar
    83    13    17    1
    84    13    12   ar
    85    53    54    3
    86    43    44    1
    87    43    46    1
    88    75    80    1
    89    54    55    1
    90    82    83    3
    91    62    61   ar
    92    62    65    1
    93    12     5    1
    94    61    69    1
    95    83    84    1
    96    80    81    1
    97     5     6   ar
    98     5     4   ar
    99    69    70    1
   100     6     1   ar
   101    11     4    1
   102     4     3   ar
   103     1     9    1
   104     1     2   ar
   105     9    10    1
   106     3     2   ar
   107     3     7    1
   108     2     8    1
