@<TRIPOS>MOLECULE
mol_data/opt/b3lyp/geoms/mol2/6fa4ef6fl-4fe-.out
 52 55 0 0 0
SMALL
GASTEIGER

@<TRIPOS>ATOM
      1 C          -4.2085   -2.2704   -0.1857 C.ar    1  LIG1        0.2128
      2 C          -2.8142   -2.2930   -0.0131 C.ar    1  LIG1       -0.0001
      3 C          -2.1739   -1.0721    0.1482 C.ar    1  LIG1       -0.0547
      4 C          -2.9116    0.1118    0.1194 C.ar    1  LIG1       -0.0354
      5 C          -4.2953    0.0293   -0.0813 C.ar    1  LIG1        0.0761
      6 N          -4.9225   -1.1569   -0.2175 N.ar    1  LIG1       -0.2130
      7 H          -1.0995   -1.0392    0.3027 H       1  LIG1        0.0620
      8 H          -2.2626   -3.2287    0.0021 H       1  LIG1        0.0671
      9 O          -4.9377   -3.4092   -0.3318 O.3     1  LIG1       -0.4924
     10 H          -4.3432   -4.1704   -0.3046 H       1  LIG1        0.2937
     11 H          -2.4259    1.0670    0.2555 H       1  LIG1        0.0639
     12 C          -4.8039    2.5343   -0.4673 C.ar    1  LIG1        0.0346
     13 C          -5.7600    3.5652   -0.4189 C.ar    1  LIG1       -0.0343
     14 C          -5.1921    1.2198   -0.0987 C.ar    1  LIG1        0.0193
     15 C          -7.0903    3.3768   -0.0272 C.ar    1  LIG1        0.0299
     16 H          -5.4513    4.5558   -0.7328 H       1  LIG1        0.0637
     17 C          -6.5275    1.0187    0.2687 C.ar    1  LIG1       -0.0092
     18 C          -7.4487    2.0567    0.3097 C.ar    1  LIG1        0.1254
     19 H          -6.8320    0.0082    0.5248 H       1  LIG1        0.0661
     20 C          -3.5073    2.8911   -0.9552 C.1     1  LIG1       -0.0690
     21 C          -2.4439    3.2796   -1.3854 C.1     1  LIG1       -0.1139
     22 H          -1.5048    3.5971   -1.7755 H       1  LIG1        0.1232
     23 O          -8.7490    1.8250    0.7027 O.3     1  LIG1       -0.5061
     24 H          -8.8688    0.8813    0.8783 H       1  LIG1        0.2922
     25 C          -9.3097    4.5915   -0.5137 C.ar    1  LIG1        0.2211
     26 C          -8.0039    4.5483    0.0334 C.ar    1  LIG1        0.0505
     27 C          -7.5244    5.7429    0.5959 C.ar    1  LIG1       -0.0049
     28 C          -8.2846    6.9084    0.5596 C.ar    1  LIG1        0.1469
     29 C          -9.5282    6.8645   -0.1073 C.ar    1  LIG1        0.1198
     30 N         -10.0148    5.7168   -0.5875 N.ar    1  LIG1       -0.2087
     31 H          -6.5542    5.7336    1.0780 H       1  LIG1        0.0662
     32 O          -9.9204    3.5145   -1.0644 O.3     1  LIG1       -0.4920
     33 H          -9.6327    2.7168   -0.5873 H       1  LIG1        0.2937
     34 O          -7.9342    8.0830    1.1577 O.3     1  LIG1       -0.4929
     35 C          -6.6437    8.1817    1.7328 C.3     1  LIG1        0.0789
     36 H          -6.5593    9.2016    2.1109 H       1  LIG1        0.0660
     37 H          -6.5138    7.4795    2.5673 H       1  LIG1        0.0660
     38 H          -5.8542    8.0049    0.9906 H       1  LIG1        0.0660
     39 C          -9.9483    9.2730   -0.8066 C.ar    1  LIG1        0.1262
     40 C         -10.8188   10.3633   -0.9222 C.ar    1  LIG1       -0.0184
     41 C         -10.4016    8.0626   -0.2446 C.ar    1  LIG1        0.0466
     42 C         -12.1393   10.2636   -0.5048 C.ar    1  LIG1       -0.0429
     43 H         -10.4560   11.2926   -1.3570 H       1  LIG1        0.0655
     44 C         -11.7406    7.9713    0.1404 C.ar    1  LIG1       -0.0335
     45 C         -12.6257    9.0568    0.0287 C.ar    1  LIG1        0.0255
     46 H         -12.0982    7.0273    0.5354 H       1  LIG1        0.0637
     47 H         -12.8052   11.1150   -0.5979 H       1  LIG1        0.0631
     48 O          -8.6670    9.3333   -1.2677 O.3     1  LIG1       -0.5061
     49 H          -8.5147   10.2069   -1.6511 H       1  LIG1        0.2922
     50 C         -13.9861    8.9388    0.4490 C.1     1  LIG1       -0.0696
     51 C         -15.1394    8.8441    0.8047 C.1     1  LIG1       -0.1139
     52 H         -16.1538    8.7541    1.1162 H       1  LIG1        0.1232
@<TRIPOS>BOND
     1    22    21    1
     2    49    48    1
     3    21    20    3
     4    43    40    1
     5    48    39    1
     6    32    33    1
     7    32    25    1
     8    20    12    1
     9    40    39   ar
    10    40    42   ar
    11    39    41   ar
    12    16    13    1
    13    47    42    1
    14    30    25   ar
    15    30    29   ar
    16    25    26   ar
    17    42    45   ar
    18    12    13   ar
    19    12    14   ar
    20    13    15   ar
    21     9    10    1
    22     9     1    1
    23    41    29    1
    24    41    44   ar
    25     6     1   ar
    26     6     5   ar
    27     1     2   ar
    28    29    28   ar
    29    14     5    1
    30    14    17   ar
    31     5     4   ar
    32    15    26    1
    33    15    18   ar
    34     2     8    1
    35     2     3   ar
    36    45    44   ar
    37    45    50    1
    38    26    27   ar
    39     4     3   ar
    40     4    11    1
    41    44    46    1
    42     3     7    1
    43    17    18   ar
    44    17    19    1
    45    18    23    1
    46    50    51    3
    47    28    27   ar
    48    28    34    1
    49    27    31    1
    50    23    24    1
    51    51    52    1
    52    38    35    1
    53    34    35    1
    54    35    36    1
    55    35    37    1
