@<TRIPOS>MOLECULE
mol_data/opt/b3lyp/geoms/mol2/6fa6fa6fa-6fa.out
 42 45 0 0 0
SMALL
GASTEIGER

@<TRIPOS>ATOM
      1 C          -4.4541   -2.2819   -0.1858 C.ar    1  LIG1        0.2128
      2 C          -3.0647   -2.3755   -0.0432 C.ar    1  LIG1       -0.0001
      3 C          -2.3635   -1.1860    0.1328 C.ar    1  LIG1       -0.0547
      4 C          -3.0363    0.0306    0.1622 C.ar    1  LIG1       -0.0353
      5 C          -4.4343    0.0389    0.0115 C.ar    1  LIG1        0.0799
      6 N          -5.1055   -1.1251   -0.1588 N.ar    1  LIG1       -0.2129
      7 H          -1.2838   -1.2097    0.2474 H       1  LIG1        0.0620
      8 H          -2.5586   -3.3354   -0.0694 H       1  LIG1        0.0671
      9 O          -5.2533   -3.3613   -0.3633 O.3     1  LIG1       -0.4924
     10 H          -4.7133   -4.1627   -0.3721 H       1  LIG1        0.2937
     11 H          -2.4812    0.9489    0.2988 H       1  LIG1        0.0639
     12 C          -6.6728    1.2517   -0.1363 C.ar    1  LIG1        0.2223
     13 C          -5.2471    1.2697    0.0251 C.ar    1  LIG1        0.0618
     14 C          -4.6786    2.5379    0.1946 C.ar    1  LIG1       -0.0454
     15 C          -5.4491    3.6916    0.2040 C.ar    1  LIG1       -0.0347
     16 C          -6.8386    3.5615    0.0373 C.ar    1  LIG1        0.0799
     17 N          -7.4103    2.3574   -0.1264 N.ar    1  LIG1       -0.2123
     18 H          -3.6060    2.6376    0.3229 H       1  LIG1        0.0626
     19 O          -7.3590    0.1226   -0.3074 O.3     1  LIG1       -0.4919
     20 H          -6.6995   -0.6264   -0.2950 H       1  LIG1        0.2937
     21 H          -4.9907    4.6593    0.3346 H       1  LIG1        0.0639
     22 C          -7.4616    6.0708    0.2070 C.ar    1  LIG1        0.2223
     23 C          -7.7889    4.7044    0.0199 C.ar    1  LIG1        0.0618
     24 C          -9.1488    4.4593   -0.2094 C.ar    1  LIG1       -0.0454
     25 C         -10.0837    5.4891   -0.2268 C.ar    1  LIG1       -0.0347
     26 C          -9.6475    6.8043   -0.0017 C.ar    1  LIG1        0.0799
     27 N          -8.3417    7.0646    0.2010 N.ar    1  LIG1       -0.2123
     28 H          -9.4453    3.4315   -0.3834 H       1  LIG1        0.0626
     29 O          -6.1777    6.4495    0.4185 O.3     1  LIG1       -0.4919
     30 H          -6.2143    7.4142    0.5291 H       1  LIG1        0.2937
     31 H         -11.1195    5.2788   -0.4705 H       1  LIG1        0.0639
     32 C         -11.8883    7.9386    0.4798 C.ar    1  LIG1        0.2217
     33 C         -10.5580    7.9736   -0.0144 C.ar    1  LIG1        0.0618
     34 C         -10.1124    9.2013   -0.5171 C.ar    1  LIG1       -0.0460
     35 C         -10.9737   10.2921   -0.5731 C.ar    1  LIG1       -0.0427
     36 C         -12.2750   10.1139   -0.1067 C.ar    1  LIG1        0.0314
     37 N         -12.7223    8.9713    0.4219 N.ar    1  LIG1       -0.2209
     38 H          -9.0897    9.2708   -0.8719 H       1  LIG1        0.0626
     39 H         -12.9955   10.9287   -0.1500 H       1  LIG1        0.0831
     40 O         -12.4189    6.8417    1.0783 O.3     1  LIG1       -0.4919
     41 H         -11.7173    6.1929    1.2348 H       1  LIG1        0.2937
     42 H         -10.6526   11.2467   -0.9751 H       1  LIG1        0.0633
@<TRIPOS>BOND
     1    42    35    1
     2    38    34    1
     3    35    34   ar
     4    35    36   ar
     5    34    33   ar
     6    31    25    1
     7    28    24    1
     8    10     9    1
     9     9     1    1
    10    19    20    1
    11    19    12    1
    12    25    24   ar
    13    25    26   ar
    14    24    23   ar
    15     1     6   ar
    16     1     2   ar
    17     6     5   ar
    18    39    36    1
    19    12    17   ar
    20    12    13   ar
    21    17    16   ar
    22    36    37   ar
    23     8     2    1
    24     2     3   ar
    25    33    26    1
    26    33    32   ar
    27    26    27   ar
    28     5    13    1
    29     5     4   ar
    30    23    16    1
    31    23    22   ar
    32    13    14   ar
    33    16    15   ar
    34     3     4   ar
    35     3     7    1
    36     4    11    1
    37    14    15   ar
    38    14    18    1
    39    27    22   ar
    40    15    21    1
    41    22    29    1
    42    29    30    1
    43    37    32   ar
    44    32    40    1
    45    40    41    1
