@<TRIPOS>MOLECULE
mol_data/opt/b3lyp/geoms/mol2/6fa6fa6fa-6fa-.out
 42 45 0 0 0
SMALL
GASTEIGER

@<TRIPOS>ATOM
      1 C          -4.5022   -2.3197   -0.0002 C.ar    1  LIG1        0.2128
      2 C          -3.1064   -2.4224   -0.0003 C.ar    1  LIG1       -0.0001
      3 C          -2.3834   -1.2325   -0.0005 C.ar    1  LIG1       -0.0547
      4 C          -3.0421   -0.0083   -0.0005 C.ar    1  LIG1       -0.0353
      5 C          -4.4488    0.0090   -0.0003 C.ar    1  LIG1        0.0799
      6 N          -5.1409   -1.1557   -0.0002 N.ar    1  LIG1       -0.2129
      7 H          -1.2978   -1.2625   -0.0006 H       1  LIG1        0.0620
      8 H          -2.6119   -3.3887   -0.0003 H       1  LIG1        0.0671
      9 O          -5.3219   -3.3993   -0.0000 O.3     1  LIG1       -0.4924
     10 H          -4.7888   -4.2053   -0.0001 H       1  LIG1        0.2937
     11 H          -2.4704    0.9100   -0.0005 H       1  LIG1        0.0639
     12 C          -6.6809    1.2419   -0.0000 C.ar    1  LIG1        0.2223
     13 C          -5.2463    1.2487   -0.0003 C.ar    1  LIG1        0.0618
     14 C          -4.6529    2.5180   -0.0005 C.ar    1  LIG1       -0.0454
     15 C          -5.4089    3.6801   -0.0004 C.ar    1  LIG1       -0.0347
     16 C          -6.8104    3.5606   -0.0001 C.ar    1  LIG1        0.0799
     17 N          -7.4054    2.3559    0.0001 N.ar    1  LIG1       -0.2123
     18 H          -3.5719    2.6100   -0.0007 H       1  LIG1        0.0626
     19 O          -7.3902    0.1128    0.0001 O.3     1  LIG1       -0.4919
     20 H          -6.7391   -0.6426   -0.0001 H       1  LIG1        0.2937
     21 H          -4.9343    4.6488   -0.0006 H       1  LIG1        0.0639
     22 C          -7.3833    6.0835   -0.0001 C.ar    1  LIG1        0.2223
     23 C          -7.7416    4.7158    0.0001 C.ar    1  LIG1        0.0618
     24 C          -9.1261    4.4858    0.0004 C.ar    1  LIG1       -0.0454
     25 C         -10.0411    5.5270    0.0006 C.ar    1  LIG1       -0.0347
     26 C          -9.5705    6.8530    0.0004 C.ar    1  LIG1        0.0799
     27 N          -8.2484    7.0878    0.0001 N.ar    1  LIG1       -0.2123
     28 H          -9.4569    3.4538    0.0005 H       1  LIG1        0.0626
     29 O          -6.0801    6.4645   -0.0004 O.3     1  LIG1       -0.4919
     30 H          -6.1126    7.4363   -0.0004 H       1  LIG1        0.2937
     31 H         -11.0978    5.2934    0.0009 H       1  LIG1        0.0639
     32 C         -10.0615    9.3823    0.0007 C.ar    1  LIG1        0.2217
     33 C         -10.4868    8.0223    0.0005 C.ar    1  LIG1        0.0618
     34 C         -11.8790    7.8457    0.0005 C.ar    1  LIG1       -0.0460
     35 C         -12.7594    8.9232    0.0006 C.ar    1  LIG1       -0.0427
     36 C         -12.2153   10.2021    0.0008 C.ar    1  LIG1        0.0314
     37 N         -10.8984   10.4225    0.0009 N.ar    1  LIG1       -0.2209
     38 H         -12.2896    6.8433    0.0003 H       1  LIG1        0.0626
     39 H         -12.8493   11.0862    0.0009 H       1  LIG1        0.0831
     40 O          -8.7556    9.7176    0.0009 O.3     1  LIG1       -0.4919
     41 H          -8.7640   10.6905    0.0010 H       1  LIG1        0.2937
     42 H         -13.8328    8.7711    0.0005 H       1  LIG1        0.0633
@<TRIPOS>BOND
     1    18    14    1
     2     7     3    1
     3    21    15    1
     4    11     4    1
     5    14    15   ar
     6    14    13   ar
     7     3     4   ar
     8     3     2   ar
     9     4     5   ar
    10    15    16   ar
    11    30    29    1
    12    29    22    1
    13     2     8    1
    14     2     1   ar
    15     5    13    1
    16     5     6   ar
    17    13    12   ar
    18     1     6   ar
    19     1     9    1
    20    20    19    1
    21    16    23    1
    22    16    17   ar
    23    22    23   ar
    24    22    27   ar
    25    10     9    1
    26    12    19    1
    27    12    17   ar
    28    23    24   ar
    29    27    26   ar
    30    38    34    1
    31    26    33    1
    32    26    25   ar
    33    24    28    1
    34    24    25   ar
    35    34    33   ar
    36    34    35   ar
    37    33    32   ar
    38    42    35    1
    39    25    31    1
    40    35    36   ar
    41    32    40    1
    42    32    37   ar
    43    36    37   ar
    44    36    39    1
    45    40    41    1
