@<TRIPOS>MOLECULE
mol_data/opt/b3lyp/geoms/mol2/6fa6fa.out
 22 23 0 0 0
SMALL
GASTEIGER

@<TRIPOS>ATOM
      1 C          -4.4730   -2.0881   -0.0000 C.ar    1  LIG1        0.2128
      2 C          -3.0736   -2.1038   -0.0000 C.ar    1  LIG1       -0.0001
      3 C          -2.4264   -0.8715   -0.0001 C.ar    1  LIG1       -0.0547
      4 C          -3.1599    0.3099   -0.0002 C.ar    1  LIG1       -0.0353
      5 C          -4.5644    0.2398   -0.0002 C.ar    1  LIG1        0.0799
      6 N          -5.1818   -0.9651   -0.0001 N.ar    1  LIG1       -0.2129
      7 H          -1.3411   -0.8338   -0.0001 H       1  LIG1        0.0620
      8 H          -2.5197   -3.0374    0.0000 H       1  LIG1        0.0671
      9 O          -5.2251   -3.2152    0.0001 O.3     1  LIG1       -0.4924
     10 H          -4.6449   -3.9881    0.0001 H       1  LIG1        0.2937
     11 H          -2.6445    1.2611   -0.0002 H       1  LIG1        0.0639
     12 C          -6.8722    1.3243   -0.0002 C.ar    1  LIG1        0.2217
     13 C          -5.4411    1.4295   -0.0003 C.ar    1  LIG1        0.0618
     14 C          -4.9170    2.7305   -0.0006 C.ar    1  LIG1       -0.0460
     15 C          -5.7542    3.8375   -0.0006 C.ar    1  LIG1       -0.0427
     16 C          -7.1308    3.6047   -0.0004 C.ar    1  LIG1        0.0314
     17 N          -7.6788    2.3921   -0.0001 N.ar    1  LIG1       -0.2209
     18 H          -3.8431    2.8831   -0.0008 H       1  LIG1        0.0626
     19 H          -7.8293    4.4407   -0.0004 H       1  LIG1        0.0831
     20 O          -7.5038    0.1523   -0.0000 O.3     1  LIG1       -0.4919
     21 H          -6.8055   -0.5596   -0.0001 H       1  LIG1        0.2937
     22 H          -5.3575    4.8467   -0.0008 H       1  LIG1        0.0633
@<TRIPOS>BOND
     1    22    15    1
     2    18    14    1
     3    15    14   ar
     4    15    16   ar
     5    14    13   ar
     6    19    16    1
     7    16    17   ar
     8    13     5    1
     9    13    12   ar
    10    11     4    1
    11     5     4   ar
    12     5     6   ar
    13     4     3   ar
    14    12    17   ar
    15    12    20    1
    16    21    20    1
    17     6     1   ar
    18     3     7    1
    19     3     2   ar
    20     1     2   ar
    21     1     9    1
    22     2     8    1
    23     9    10    1
