@<TRIPOS>MOLECULE
mol_data/opt/b3lyp/geoms/mol2/6fa6fa-6fa-6fa-.out
 42 45 0 0 0
SMALL
GASTEIGER

@<TRIPOS>ATOM
      1 C          -4.5753   -2.3104   -0.0002 C.ar    1  LIG1        0.2128
      2 C          -3.1815   -2.4895   -0.0005 C.ar    1  LIG1       -0.0001
      3 C          -2.3984   -1.3435   -0.0007 C.ar    1  LIG1       -0.0547
      4 C          -2.9969   -0.0834   -0.0006 C.ar    1  LIG1       -0.0353
      5 C          -4.3989   -0.0101   -0.0003 C.ar    1  LIG1        0.0799
      6 N          -5.1601   -1.1261   -0.0001 N.ar    1  LIG1       -0.2129
      7 H          -1.3154   -1.4274   -0.0010 H       1  LIG1        0.0620
      8 H          -2.7384   -3.4815   -0.0006 H       1  LIG1        0.0671
      9 O          -5.4376   -3.3647   -0.0000 O.3     1  LIG1       -0.4924
     10 H          -4.9274   -4.1852   -0.0001 H       1  LIG1        0.2937
     11 H          -2.3985    0.8145   -0.0008 H       1  LIG1        0.0639
     12 C          -4.6214    2.5676   -0.0003 C.ar    1  LIG1        0.2223
     13 C          -5.1649    1.2623   -0.0002 C.ar    1  LIG1        0.0618
     14 C          -6.5678    1.2268    0.0001 C.ar    1  LIG1       -0.0454
     15 C          -7.3302    2.3847    0.0003 C.ar    1  LIG1       -0.0347
     16 C          -6.6807    3.6330    0.0001 C.ar    1  LIG1        0.0799
     17 N          -5.3382    3.6820   -0.0002 N.ar    1  LIG1       -0.2123
     18 H          -7.0414    0.2521    0.0003 H       1  LIG1        0.0626
     19 O          -3.2777    2.7639   -0.0006 O.3     1  LIG1       -0.4919
     20 H          -3.1751    3.7309   -0.0007 H       1  LIG1        0.2937
     21 H          -8.4091    2.3007    0.0006 H       1  LIG1        0.0639
     22 C          -6.8270    6.2051    0.0003 C.ar    1  LIG1        0.2223
     23 C          -7.4241    4.9146    0.0002 C.ar    1  LIG1        0.0618
     24 C          -8.8279    4.9434    0.0002 C.ar    1  LIG1       -0.0454
     25 C          -9.5516    6.1256    0.0003 C.ar    1  LIG1       -0.0347
     26 C          -8.8557    7.3472    0.0004 C.ar    1  LIG1        0.0799
     27 N          -7.5154    7.3425    0.0004 N.ar    1  LIG1       -0.2123
     28 H          -9.3806    4.0116    0.0001 H       1  LIG1        0.0626
     29 O          -5.4884    6.3695    0.0003 O.3     1  LIG1       -0.4919
     30 H          -5.3762    7.3365    0.0004 H       1  LIG1        0.2937
     31 H         -10.6323    6.0765    0.0004 H       1  LIG1        0.0639
     32 C          -8.8937    9.9226    0.0009 C.ar    1  LIG1        0.2217
     33 C          -9.5523    8.6590    0.0005 C.ar    1  LIG1        0.0618
     34 C         -10.9539    8.7299    0.0002 C.ar    1  LIG1       -0.0460
     35 C         -11.6307    9.9455    0.0002 C.ar    1  LIG1       -0.0427
     36 C         -10.8697   11.1086    0.0006 C.ar    1  LIG1        0.0314
     37 N          -9.5347   11.0939    0.0010 N.ar    1  LIG1       -0.2209
     38 H         -11.5352    7.8158   -0.0002 H       1  LIG1        0.0626
     39 H         -11.3381   12.0904    0.0007 H       1  LIG1        0.0831
     40 O          -7.5499   10.0215    0.0013 O.3     1  LIG1       -0.4919
     41 H          -7.3844   10.9802    0.0015 H       1  LIG1        0.2937
     42 H         -12.7142    9.9851   -0.0000 H       1  LIG1        0.0633
@<TRIPOS>BOND
     1     7     3    1
     2    11     4    1
     3     3     4   ar
     4     3     2   ar
     5    20    19    1
     6    19    12    1
     7     4     5   ar
     8     8     2    1
     9     2     1   ar
    10    12    17   ar
    11    12    13   ar
    12     5    13    1
    13     5     6   ar
    14     1     6   ar
    15     1     9    1
    16    17    16   ar
    17    38    34    1
    18    13    14   ar
    19    10     9    1
    20    42    35    1
    21    16    23    1
    22    16    15   ar
    23    14    18    1
    24    14    15   ar
    25    28    24    1
    26    34    35   ar
    27    34    33   ar
    28    23    24   ar
    29    23    22   ar
    30    24    25   ar
    31    35    36   ar
    32    15    21    1
    33    22    29    1
    34    22    27   ar
    35    29    30    1
    36    25    31    1
    37    25    26   ar
    38    27    26   ar
    39    26    33    1
    40    33    32   ar
    41    36    39    1
    42    36    37   ar
    43    32    37   ar
    44    32    40    1
    45    40    41    1
