@<TRIPOS>MOLECULE
mol_data/opt/b3lyp/geoms/mol2/6fa6fa-6fa-6fa.out
 42 45 0 0 0
SMALL
GASTEIGER

@<TRIPOS>ATOM
      1 C          -4.5310   -2.2527    0.1450 C.ar    1  LIG1        0.2128
      2 C          -3.1445   -2.4248   -0.0071 C.ar    1  LIG1       -0.0001
      3 C          -2.3811   -1.2786   -0.1766 C.ar    1  LIG1       -0.0547
      4 C          -2.9912   -0.0236   -0.1931 C.ar    1  LIG1       -0.0353
      5 C          -4.3837    0.0426   -0.0347 C.ar    1  LIG1        0.0799
      6 N          -5.1257   -1.0732    0.1319 N.ar    1  LIG1       -0.2129
      7 H          -1.3045   -1.3575   -0.2963 H       1  LIG1        0.0620
      8 H          -2.6920   -3.4124    0.0082 H       1  LIG1        0.0671
      9 O          -5.3745   -3.3066    0.3195 O.3     1  LIG1       -0.4924
     10 H          -4.8599   -4.1244    0.3154 H       1  LIG1        0.2937
     11 H          -2.4067    0.8739   -0.3228 H       1  LIG1        0.0639
     12 C          -4.6481    2.6091   -0.2492 C.ar    1  LIG1        0.2223
     13 C          -5.1640    1.3092   -0.0241 C.ar    1  LIG1        0.0618
     14 C          -6.5417    1.2643    0.2302 C.ar    1  LIG1       -0.0454
     15 C          -7.3134    2.4194    0.2571 C.ar    1  LIG1       -0.0347
     16 C          -6.6907    3.6500    0.0134 C.ar    1  LIG1        0.0799
     17 N          -5.3730    3.7204   -0.2366 N.ar    1  LIG1       -0.2123
     18 H          -6.9834    0.2924    0.4156 H       1  LIG1        0.0626
     19 O          -3.3300    2.7953   -0.5108 O.3     1  LIG1       -0.4919
     20 H          -3.2323    3.7564   -0.6171 H       1  LIG1        0.2937
     21 H          -8.3715    2.3697    0.4874 H       1  LIG1        0.0639
     22 C          -7.0012    6.1363    0.5337 C.ar    1  LIG1        0.2223
     23 C          -7.4689    4.9107   -0.0075 C.ar    1  LIG1        0.0618
     24 C          -8.7421    4.9605   -0.5756 C.ar    1  LIG1       -0.0454
     25 C          -9.4854    6.1412   -0.5937 C.ar    1  LIG1       -0.0347
     26 C          -8.9297    7.2939   -0.0198 C.ar    1  LIG1        0.0799
     27 N          -7.6980    7.2666    0.5287 N.ar    1  LIG1       -0.2123
     28 H          -9.1442    4.0667   -1.0427 H       1  LIG1        0.0626
     29 O          -5.7961    6.1857    1.1331 O.3     1  LIG1       -0.4919
     30 H          -5.7120    7.0956    1.4632 H       1  LIG1        0.2937
     31 H         -10.4396    6.1775   -1.1073 H       1  LIG1        0.0639
     32 C         -11.0250    8.7530    0.1377 C.ar    1  LIG1        0.2217
     33 C          -9.6219    8.6052   -0.0146 C.ar    1  LIG1        0.0618
     34 C          -8.8822    9.7854   -0.1489 C.ar    1  LIG1       -0.0460
     35 C          -9.5271   11.0173   -0.1916 C.ar    1  LIG1       -0.0427
     36 C         -10.9170   11.0246   -0.0885 C.ar    1  LIG1        0.0314
     37 N         -11.6522    9.9228    0.0875 N.ar    1  LIG1       -0.2209
     38 H          -7.8033    9.7097   -0.2325 H       1  LIG1        0.0626
     39 H         -11.4715   11.9598   -0.1404 H       1  LIG1        0.0831
     40 O         -11.8510    7.6994    0.3693 O.3     1  LIG1       -0.4919
     41 H         -11.3172    6.9170    0.5706 H       1  LIG1        0.2937
     42 H          -8.9733   11.9419   -0.3121 H       1  LIG1        0.0633
@<TRIPOS>BOND
     1    31    25    1
     2    28    24    1
     3    20    19    1
     4    25    24   ar
     5    25    26   ar
     6    24    23   ar
     7    19    12    1
     8    11     4    1
     9    42    35    1
    10     7     3    1
    11    12    17   ar
    12    12    13   ar
    13    17    16   ar
    14    38    34    1
    15     4     3   ar
    16     4     5   ar
    17    35    34   ar
    18    35    36   ar
    19     3     2   ar
    20    34    33   ar
    21    39    36    1
    22    36    37   ar
    23     5    13    1
    24     5     6   ar
    25    13    14   ar
    26    26    33    1
    27    26    27   ar
    28    33    32   ar
    29    23    16    1
    30    23    22   ar
    31     2     8    1
    32     2     1   ar
    33    16    15   ar
    34    37    32   ar
    35     6     1   ar
    36    32    40    1
    37     1     9    1
    38    14    15   ar
    39    14    18    1
    40    15    21    1
    41    10     9    1
    42    40    41    1
    43    27    22   ar
    44    22    29    1
    45    29    30    1
