@<TRIPOS>MOLECULE
mol_data/opt/b3lyp/geoms/mol2/6fa6fa-.out
 22 23 0 0 0
SMALL
GASTEIGER

@<TRIPOS>ATOM
      1 C          -4.5426   -2.0627   -0.0001 C.ar    1  LIG1        0.2128
      2 C          -3.1401   -2.1524   -0.0000 C.ar    1  LIG1       -0.0001
      3 C          -2.4324   -0.9591   -0.0001 C.ar    1  LIG1       -0.0547
      4 C          -3.1105    0.2607   -0.0002 C.ar    1  LIG1       -0.0353
      5 C          -4.5136    0.2445   -0.0002 C.ar    1  LIG1        0.0799
      6 N          -5.2009   -0.9177   -0.0001 N.ar    1  LIG1       -0.2129
      7 H          -1.3463   -0.9730   -0.0001 H       1  LIG1        0.0620
      8 H          -2.6345   -3.1139    0.0000 H       1  LIG1        0.0671
      9 O          -5.3365   -3.1690    0.0000 O.3     1  LIG1       -0.4924
     10 H          -4.7764   -3.9563    0.0000 H       1  LIG1        0.2937
     11 H          -2.5689    1.1941   -0.0002 H       1  LIG1        0.0639
     12 C          -4.8983    2.8036   -0.0004 C.ar    1  LIG1        0.2217
     13 C          -5.3651    1.4665   -0.0003 C.ar    1  LIG1        0.0618
     14 C          -6.7607    1.3261   -0.0003 C.ar    1  LIG1       -0.0460
     15 C          -7.5988    2.4373   -0.0004 C.ar    1  LIG1       -0.0427
     16 C          -7.0119    3.6978   -0.0004 C.ar    1  LIG1        0.0314
     17 N          -5.6862    3.8764   -0.0004 N.ar    1  LIG1       -0.2209
     18 H          -7.1596    0.3186   -0.0003 H       1  LIG1        0.0626
     19 H          -7.6153    4.6026   -0.0005 H       1  LIG1        0.0831
     20 O          -3.5685    3.0765   -0.0003 O.3     1  LIG1       -0.4919
     21 H          -3.5150    4.0466   -0.0004 H       1  LIG1        0.2937
     22 H          -8.6776    2.3268   -0.0004 H       1  LIG1        0.0633
@<TRIPOS>BOND
     1    19    16    1
     2    16    17   ar
     3    16    15   ar
     4    17    12   ar
     5    22    15    1
     6    21    20    1
     7    15    14   ar
     8    12    20    1
     9    12    13   ar
    10    14    13   ar
    11    14    18    1
    12    13     5    1
    13    11     4    1
    14     5     4   ar
    15     5     6   ar
    16     4     3   ar
    17     6     1   ar
    18     3     7    1
    19     3     2   ar
    20     1     2   ar
    21     1     9    1
    22     2     8    1
    23     9    10    1
