@<TRIPOS>MOLECULE
mol_data/opt/b3lyp/geoms/mol2/6fa6fa-6fa6fa-.out
 42 45 0 0 0
SMALL
GASTEIGER

@<TRIPOS>ATOM
      1 C          -4.4644   -2.2343   -0.3838 C.ar    1  LIG1        0.2128
      2 C          -3.1046   -2.4031   -0.0706 C.ar    1  LIG1       -0.0001
      3 C          -2.3960   -1.2684    0.2972 C.ar    1  LIG1       -0.0547
      4 C          -3.0321   -0.0270    0.3467 C.ar    1  LIG1       -0.0353
      5 C          -4.3944    0.0365    0.0175 C.ar    1  LIG1        0.0799
      6 N          -5.0831   -1.0679   -0.3413 N.ar    1  LIG1       -0.2129
      7 H          -1.3419   -1.3453    0.5474 H       1  LIG1        0.0620
      8 H          -2.6309   -3.3797   -0.1152 H       1  LIG1        0.0671
      9 O          -5.2542   -3.2769   -0.7582 O.3     1  LIG1       -0.4924
     10 H          -4.7264   -4.0863   -0.7616 H       1  LIG1        0.2937
     11 H          -2.4893    0.8611    0.6301 H       1  LIG1        0.0639
     12 C          -4.7455    2.5742    0.4059 C.ar    1  LIG1        0.2223
     13 C          -5.1997    1.2873    0.0227 C.ar    1  LIG1        0.0618
     14 C          -6.5373    1.2446   -0.3894 C.ar    1  LIG1       -0.0454
     15 C          -7.3382    2.3820   -0.3935 C.ar    1  LIG1       -0.0347
     16 C          -6.7876    3.6010    0.0342 C.ar    1  LIG1        0.0799
     17 N          -5.4972    3.6677    0.4158 N.ar    1  LIG1       -0.2123
     18 H          -6.9279    0.2884   -0.7172 H       1  LIG1        0.0626
     19 O          -3.4649    2.7603    0.8084 O.3     1  LIG1       -0.4919
     20 H          -3.4036    3.7052    1.0268 H       1  LIG1        0.2937
     21 H          -8.3498    2.3318   -0.7813 H       1  LIG1        0.0639
     22 C          -8.9295    4.9642    0.3600 C.ar    1  LIG1        0.2223
     23 C          -7.5465    4.8706    0.0547 C.ar    1  LIG1        0.0618
     24 C          -6.9071    6.0836   -0.2176 C.ar    1  LIG1       -0.0454
     25 C          -7.6121    7.2805   -0.2510 C.ar    1  LIG1       -0.0347
     26 C          -8.9923    7.2496    0.0059 C.ar    1  LIG1        0.0799
     27 N          -9.6104    6.0946    0.3230 N.ar    1  LIG1       -0.2123
     28 H          -5.8416    6.0678   -0.4205 H       1  LIG1        0.0626
     29 O          -9.6706    3.8899    0.7412 O.3     1  LIG1       -0.4919
     30 H          -9.0790    3.1439    0.9174 H       1  LIG1        0.2937
     31 H          -7.1121    8.2086   -0.4802 H       1  LIG1        0.0639
     32 C          -9.4918    9.7552   -0.3878 C.ar    1  LIG1        0.2217
     33 C          -9.8804    8.4422   -0.0249 C.ar    1  LIG1        0.0618
     34 C         -11.2313    8.2981    0.3247 C.ar    1  LIG1       -0.0460
     35 C         -12.1011    9.3844    0.3089 C.ar    1  LIG1       -0.0427
     36 C         -11.5918   10.6231   -0.0659 C.ar    1  LIG1        0.0314
     37 N         -10.3112   10.8039   -0.4083 N.ar    1  LIG1       -0.2209
     38 H         -11.5696    7.3080    0.6068 H       1  LIG1        0.0626
     39 H         -12.2234   11.5083   -0.0965 H       1  LIG1        0.0831
     40 O          -8.2132   10.0254   -0.7527 O.3     1  LIG1       -0.4919
     41 H          -8.2084   10.9759   -0.9544 H       1  LIG1        0.2937
     42 H         -13.1448    9.2720    0.5806 H       1  LIG1        0.0633
@<TRIPOS>BOND
     1    41    40    1
     2    21    15    1
     3    10     9    1
     4     9     1    1
     5    40    32    1
     6    18    14    1
     7    31    25    1
     8    28    24    1
     9    37    32   ar
    10    37    36   ar
    11    15    14   ar
    12    15    16   ar
    13    14    13   ar
    14    32    33   ar
    15     1     6   ar
    16     1     2   ar
    17     6     5   ar
    18    25    24   ar
    19    25    26   ar
    20    24    23   ar
    21     8     2    1
    22    39    36    1
    23     2     3   ar
    24    36    35   ar
    25    33    26    1
    26    33    34   ar
    27    26    27   ar
    28     5    13    1
    29     5     4   ar
    30    13    12   ar
    31    16    23    1
    32    16    17   ar
    33    23    22   ar
    34     3     4   ar
    35     3     7    1
    36    35    34   ar
    37    35    42    1
    38    27    22   ar
    39    34    38    1
    40     4    11    1
    41    22    29    1
    42    12    17   ar
    43    12    19    1
    44    29    30    1
    45    19    20    1
