@<TRIPOS>MOLECULE
mol_data/opt/b3lyp/geoms/mol2/6fa6fa-4fa6fa.out
 43 46 0 0 0
SMALL
GASTEIGER

@<TRIPOS>ATOM
      1 C          -4.5038   -2.2435    0.1904 C.ar    1  LIG1        0.2128
      2 C          -3.1295   -2.4157   -0.0476 C.ar    1  LIG1       -0.0001
      3 C          -2.3849   -1.2719   -0.2986 C.ar    1  LIG1       -0.0547
      4 C          -3.0007   -0.0197   -0.3074 C.ar    1  LIG1       -0.0353
      5 C          -4.3800    0.0471   -0.0579 C.ar    1  LIG1        0.0799
      6 N          -5.1036   -1.0667    0.1856 N.ar    1  LIG1       -0.2129
      7 H          -1.3185   -1.3507   -0.4890 H       1  LIG1        0.0620
      8 H          -2.6721   -3.4010   -0.0354 H       1  LIG1        0.0671
      9 O          -5.3291   -3.2952    0.4474 O.3     1  LIG1       -0.4924
     10 H          -4.8113   -4.1109    0.4325 H       1  LIG1        0.2937
     11 H          -2.4308    0.8757   -0.5007 H       1  LIG1        0.0639
     12 C          -4.6549    2.6144   -0.2489 C.ar    1  LIG1        0.2223
     13 C          -5.1652    1.3106   -0.0357 C.ar    1  LIG1        0.0618
     14 C          -6.5423    1.2588    0.2217 C.ar    1  LIG1       -0.0454
     15 C          -7.3179    2.4108    0.2586 C.ar    1  LIG1       -0.0347
     16 C          -6.7007    3.6463    0.0273 C.ar    1  LIG1        0.0783
     17 N          -5.3832    3.7236   -0.2231 N.ar    1  LIG1       -0.2124
     18 H          -6.9798    0.2839    0.4014 H       1  LIG1        0.0626
     19 O          -3.3366    2.8095   -0.5085 O.3     1  LIG1       -0.4919
     20 H          -3.2455    3.7723   -0.6040 H       1  LIG1        0.2937
     21 H          -8.3768    2.3570    0.4845 H       1  LIG1        0.0639
     22 C          -7.0450    6.0912    0.6486 C.ar    1  LIG1        0.1266
     23 C          -7.8302    7.2466    0.6107 C.ar    1  LIG1       -0.0116
     24 C          -7.4870    4.9061    0.0168 C.ar    1  LIG1        0.0419
     25 C          -9.0668    7.2760   -0.0493 C.ar    1  LIG1       -0.0093
     26 H          -7.4847    8.1375    1.1310 H       1  LIG1        0.0660
     27 C          -8.7287    4.9462   -0.6299 C.ar    1  LIG1       -0.0485
     28 C          -9.5122    6.0975   -0.6732 C.ar    1  LIG1       -0.0530
     29 H          -9.0704    4.0534   -1.1442 H       1  LIG1        0.0625
     30 O          -5.8675    6.0660    1.3292 O.3     1  LIG1       -0.5061
     31 H          -5.7336    6.9249    1.7521 H       1  LIG1        0.2922
     32 H         -10.4382    6.0972   -1.2400 H       1  LIG1        0.0624
     33 C         -11.2468    8.5567    0.2301 C.ar    1  LIG1        0.2202
     34 C          -9.8630    8.5289   -0.0894 C.ar    1  LIG1        0.0436
     35 C          -9.2795    9.7532   -0.4261 C.ar    1  LIG1       -0.0475
     36 C         -10.0482   10.9156   -0.4609 C.ar    1  LIG1       -0.0428
     37 C         -11.4005   10.8053   -0.1493 C.ar    1  LIG1        0.0314
     38 N         -11.9908    9.6561    0.1963 N.ar    1  LIG1       -0.2209
     39 H          -8.2248    9.7804   -0.6851 H       1  LIG1        0.0626
     40 H         -12.0475   11.6803   -0.1744 H       1  LIG1        0.0831
     41 O         -11.9186    7.4438    0.6164 O.3     1  LIG1       -0.4920
     42 H         -11.2904    6.7096    0.6943 H       1  LIG1        0.2937
     43 H          -9.6150   11.8719   -0.7325 H       1  LIG1        0.0633
@<TRIPOS>BOND
     1    32    28    1
     2    29    27    1
     3    43    36    1
     4    39    35    1
     5    28    27   ar
     6    28    25   ar
     7    27    24   ar
     8    20    19    1
     9    19    12    1
    10    11     4    1
    11     7     3    1
    12    36    35   ar
    13    36    37   ar
    14    35    34   ar
    15     4     3   ar
    16     4     5   ar
    17     3     2   ar
    18    12    17   ar
    19    12    13   ar
    20    17    16   ar
    21    40    37    1
    22    37    38   ar
    23    34    25    1
    24    34    33   ar
    25     5    13    1
    26     5     6   ar
    27    25    23   ar
    28     2     8    1
    29     2     1   ar
    30    13    14   ar
    31    24    16    1
    32    24    22   ar
    33    16    15   ar
    34     6     1   ar
    35     1     9    1
    36    38    33   ar
    37    14    15   ar
    38    14    18    1
    39    33    41    1
    40    15    21    1
    41    10     9    1
    42    23    22   ar
    43    23    26    1
    44    41    42    1
    45    22    30    1
    46    30    31    1
