@<TRIPOS>MOLECULE
mol_data/opt/b3lyp/geoms/mol2/6fa6fa-6fa.out
 32 34 0 0 0
SMALL
GASTEIGER

@<TRIPOS>ATOM
      1 C          -4.4894   -2.1400   -0.2076 C.ar    1  LIG1        0.2128
      2 C          -3.0996   -2.2600   -0.0341 C.ar    1  LIG1       -0.0001
      3 C          -2.3843   -1.0879    0.1635 C.ar    1  LIG1       -0.0547
      4 C          -3.0429    0.1426    0.1863 C.ar    1  LIG1       -0.0353
      5 C          -4.4339    0.1562    0.0061 C.ar    1  LIG1        0.0799
      6 N          -5.1294   -0.9844   -0.1878 N.ar    1  LIG1       -0.2129
      7 H          -1.3075   -1.1268    0.3002 H       1  LIG1        0.0620
      8 H          -2.6089   -3.2289   -0.0545 H       1  LIG1        0.0671
      9 O          -5.2881   -3.2222   -0.4108 O.3     1  LIG1       -0.4924
     10 H          -4.7436   -4.0204   -0.4097 H       1  LIG1        0.2937
     11 H          -2.4952    1.0597    0.3373 H       1  LIG1        0.0639
     12 C          -4.8094    2.7077    0.2555 C.ar    1  LIG1        0.2223
     13 C          -5.2652    1.3903   -0.0002 C.ar    1  LIG1        0.0618
     14 C          -6.6323    1.2954   -0.2868 C.ar    1  LIG1       -0.0454
     15 C          -7.4570    2.4160   -0.2959 C.ar    1  LIG1       -0.0347
     16 C          -6.8992    3.6700   -0.0024 C.ar    1  LIG1        0.0799
     17 N          -5.5831    3.7863    0.2586 N.ar    1  LIG1       -0.2123
     18 H          -7.0277    0.3119   -0.5118 H       1  LIG1        0.0626
     19 O          -3.5038    2.9426    0.5323 O.3     1  LIG1       -0.4919
     20 H          -3.4457    3.9006    0.6842 H       1  LIG1        0.2937
     21 H          -8.4983    2.3221   -0.5845 H       1  LIG1        0.0639
     22 C          -9.0305    5.0113    0.4422 C.ar    1  LIG1        0.2217
     23 C          -7.6849    4.9268   -0.0016 C.ar    1  LIG1        0.0618
     24 C          -7.0973    6.1190   -0.4393 C.ar    1  LIG1       -0.0460
     25 C          -7.8406    7.2940   -0.4835 C.ar    1  LIG1       -0.0427
     26 C          -9.1709    7.2341   -0.0719 C.ar    1  LIG1        0.0314
     27 N          -9.7526    6.1255    0.3946 N.ar    1  LIG1       -0.2209
     28 H          -6.0594    6.0958   -0.7540 H       1  LIG1        0.0626
     29 H          -9.8026    8.1198   -0.1093 H       1  LIG1        0.0831
     30 O          -9.6932    3.9539    0.9772 O.3     1  LIG1       -0.4919
     31 H          -9.0667    3.2333    1.1377 H       1  LIG1        0.2937
     32 H          -7.4083    8.2242   -0.8356 H       1  LIG1        0.0633
@<TRIPOS>BOND
     1    32    25    1
     2    28    24    1
     3    21    15    1
     4    18    14    1
     5    25    24   ar
     6    25    26   ar
     7    24    23   ar
     8     9    10    1
     9     9     1    1
    10    15    14   ar
    11    15    16   ar
    12    14    13   ar
    13     1     6   ar
    14     1     2   ar
    15     6     5   ar
    16    29    26    1
    17    26    27   ar
    18     8     2    1
    19     2     3   ar
    20    16    23    1
    21    16    17   ar
    22    23    22   ar
    23    13     5    1
    24    13    12   ar
    25     5     4   ar
    26     3     4   ar
    27     3     7    1
    28     4    11    1
    29    12    17   ar
    30    12    19    1
    31    27    22   ar
    32    22    30    1
    33    19    20    1
    34    30    31    1
