@<TRIPOS>MOLECULE
mol_data/opt/b3lyp/geoms/mol2/6fa6fa6fa6fa.out
 42 45 0 0 0
SMALL
GASTEIGER

@<TRIPOS>ATOM
      1 C          -4.3807   -2.2624   -0.0003 C.ar    1  LIG1        0.2128
      2 C          -2.9814   -2.3101   -0.0004 C.ar    1  LIG1       -0.0001
      3 C          -2.3036   -1.0948   -0.0005 C.ar    1  LIG1       -0.0547
      4 C          -3.0072    0.1055   -0.0004 C.ar    1  LIG1       -0.0353
      5 C          -4.4116    0.0676   -0.0003 C.ar    1  LIG1        0.0799
      6 N          -5.0610   -1.1213   -0.0002 N.ar    1  LIG1       -0.2129
      7 H          -1.2178   -1.0846   -0.0006 H       1  LIG1        0.0620
      8 H          -2.4506   -3.2567   -0.0004 H       1  LIG1        0.0671
      9 O          -5.1604   -3.3680   -0.0002 O.3     1  LIG1       -0.4924
     10 H          -4.6030   -4.1576   -0.0002 H       1  LIG1        0.2937
     11 H          -2.4699    1.0445   -0.0004 H       1  LIG1        0.0639
     12 C          -6.6881    1.1887   -0.0000 C.ar    1  LIG1        0.2223
     13 C          -5.2608    1.2721   -0.0002 C.ar    1  LIG1        0.0618
     14 C          -4.7308    2.5713   -0.0004 C.ar    1  LIG1       -0.0454
     15 C          -5.5404    3.6939   -0.0003 C.ar    1  LIG1       -0.0347
     16 C          -6.9369    3.5206   -0.0001 C.ar    1  LIG1        0.0799
     17 N          -7.4616    2.2770    0.0000 N.ar    1  LIG1       -0.2123
     18 H          -3.6555    2.7135   -0.0005 H       1  LIG1        0.0626
     19 O          -7.3471    0.0385    0.0001 O.3     1  LIG1       -0.4919
     20 H          -6.6577   -0.6914   -0.0000 H       1  LIG1        0.2937
     21 H          -5.0925    4.6787   -0.0004 H       1  LIG1        0.0639
     22 C          -9.3099    4.4067    0.0003 C.ar    1  LIG1        0.2223
     23 C          -7.8974    4.6332    0.0001 C.ar    1  LIG1        0.0618
     24 C          -7.4995    5.9793   -0.0001 C.ar    1  LIG1       -0.0454
     25 C          -8.4179    7.0136    0.0001 C.ar    1  LIG1       -0.0347
     26 C          -9.7919    6.7018    0.0003 C.ar    1  LIG1        0.0799
     27 N         -10.1887    5.4130    0.0005 N.ar    1  LIG1       -0.2123
     28 H          -6.4434    6.2272   -0.0003 H       1  LIG1        0.0626
     29 O          -9.8455    3.1960    0.0005 O.3     1  LIG1       -0.4919
     30 H          -9.0794    2.5401    0.0003 H       1  LIG1        0.2937
     31 H          -8.0704    8.0379   -0.0000 H       1  LIG1        0.0639
     32 C         -12.2498    7.3611    0.0009 C.ar    1  LIG1        0.2217
     33 C         -10.8583    7.7195    0.0005 C.ar    1  LIG1        0.0618
     34 C         -10.5710    9.0928    0.0004 C.ar    1  LIG1       -0.0460
     35 C         -11.5906   10.0339    0.0006 C.ar    1  LIG1       -0.0427
     36 C         -12.9051    9.5608    0.0009 C.ar    1  LIG1        0.0314
     37 N         -13.2326    8.2715    0.0010 N.ar    1  LIG1       -0.2209
     38 H          -9.5403    9.4309    0.0001 H       1  LIG1        0.0626
     39 H         -13.7394   10.2615    0.0011 H       1  LIG1        0.0831
     40 O         -12.6588    6.0980    0.0010 O.3     1  LIG1       -0.4919
     41 H         -11.8373    5.5221    0.0008 H       1  LIG1        0.2937
     42 H         -11.3795   11.0974    0.0004 H       1  LIG1        0.0633
@<TRIPOS>BOND
     1     7     3    1
     2    18    14    1
     3     3     4   ar
     4     3     2   ar
     5    11     4    1
     6     8     2    1
     7     4     5   ar
     8     2     1   ar
     9    21    15    1
    10    14    15   ar
    11    14    13   ar
    12     5     6   ar
    13     5    13    1
    14     1     6   ar
    15     1     9    1
    16    15    16   ar
    17    28    24    1
    18    10     9    1
    19    13    12   ar
    20    24    23   ar
    21    24    25   ar
    22    16    17   ar
    23    16    23    1
    24    12    17   ar
    25    12    19    1
    26    20    19    1
    27    31    25    1
    28    23    22   ar
    29    25    26   ar
    30    38    34    1
    31    22    27   ar
    32    22    29    1
    33    30    29    1
    34    26    27   ar
    35    26    33    1
    36    34    33   ar
    37    34    35   ar
    38    42    35    1
    39    33    32   ar
    40    35    36   ar
    41    41    40    1
    42    32    40    1
    43    32    37   ar
    44    36    37   ar
    45    36    39    1
