@<TRIPOS>MOLECULE
mol_data/opt/b3lyp/geoms/mol2/6fa6fa6fa6fa-.out
 42 45 0 0 0
SMALL
GASTEIGER

@<TRIPOS>ATOM
      1 C          -4.4250   -2.2874   -0.0003 C.ar    1  LIG1        0.2128
      2 C          -3.0264   -2.3494   -0.0004 C.ar    1  LIG1       -0.0001
      3 C          -2.3370   -1.1401   -0.0004 C.ar    1  LIG1       -0.0547
      4 C          -3.0291    0.0663   -0.0003 C.ar    1  LIG1       -0.0353
      5 C          -4.4345    0.0426   -0.0003 C.ar    1  LIG1        0.0799
      6 N          -5.0950   -1.1406   -0.0003 N.ar    1  LIG1       -0.2129
      7 H          -1.2511   -1.1402   -0.0004 H       1  LIG1        0.0620
      8 H          -2.5048   -3.3011   -0.0004 H       1  LIG1        0.0671
      9 O          -5.2149   -3.3869   -0.0003 O.3     1  LIG1       -0.4924
     10 H          -4.6631   -4.1804   -0.0003 H       1  LIG1        0.2937
     11 H          -2.4831    1.0003   -0.0003 H       1  LIG1        0.0639
     12 C          -6.6978    1.1914   -0.0001 C.ar    1  LIG1        0.2223
     13 C          -5.2700    1.2555   -0.0003 C.ar    1  LIG1        0.0618
     14 C          -4.7241    2.5490   -0.0003 C.ar    1  LIG1       -0.0454
     15 C          -5.5199    3.6802   -0.0003 C.ar    1  LIG1       -0.0347
     16 C          -6.9201    3.5254   -0.0001 C.ar    1  LIG1        0.0799
     17 N          -7.4585    2.2881    0.0000 N.ar    1  LIG1       -0.2123
     18 H          -3.6471    2.6781   -0.0005 H       1  LIG1        0.0626
     19 O          -7.3713    0.0477    0.0000 O.3     1  LIG1       -0.4919
     20 H          -6.6921   -0.6898   -0.0001 H       1  LIG1        0.2937
     21 H          -5.0601    4.6593   -0.0003 H       1  LIG1        0.0639
     22 C          -9.2866    4.4613    0.0003 C.ar    1  LIG1        0.2223
     23 C          -7.8635    4.6537    0.0000 C.ar    1  LIG1        0.0618
     24 C          -7.4370    5.9883   -0.0001 C.ar    1  LIG1       -0.0454
     25 C          -8.3362    7.0436    0.0001 C.ar    1  LIG1       -0.0347
     26 C          -9.7109    6.7450    0.0004 C.ar    1  LIG1        0.0799
     27 N         -10.1470    5.4752    0.0005 N.ar    1  LIG1       -0.2123
     28 H          -6.3765    6.2171   -0.0003 H       1  LIG1        0.0626
     29 O          -9.8412    3.2522    0.0004 O.3     1  LIG1       -0.4919
     30 H          -9.0925    2.5861    0.0003 H       1  LIG1        0.2937
     31 H          -7.9889    8.0646   -0.0001 H       1  LIG1        0.0639
     32 C         -10.6001    9.1761    0.0005 C.ar    1  LIG1        0.2217
     33 C         -10.7880    7.7722    0.0005 C.ar    1  LIG1        0.0618
     34 C         -12.1268    7.3522    0.0008 C.ar    1  LIG1       -0.0460
     35 C         -13.1717    8.2711    0.0010 C.ar    1  LIG1       -0.0427
     36 C         -12.8509    9.6245    0.0009 C.ar    1  LIG1        0.0314
     37 N         -11.5887   10.0678    0.0006 N.ar    1  LIG1       -0.2209
     38 H         -12.3103    6.2841    0.0009 H       1  LIG1        0.0626
     39 H         -13.6250   10.3890    0.0010 H       1  LIG1        0.0831
     40 O          -9.3531    9.7124    0.0002 O.3     1  LIG1       -0.4919
     41 H          -9.4983   10.6731    0.0002 H       1  LIG1        0.2937
     42 H         -14.2061    7.9455    0.0012 H       1  LIG1        0.0633
@<TRIPOS>BOND
     1    18    14    1
     2     7     3    1
     3     8     2    1
     4     3     2   ar
     5     3     4   ar
     6     2     1   ar
     7     4    11    1
     8     4     5   ar
     9    14    15   ar
    10    14    13   ar
    11    21    15    1
    12    10     9    1
    13     1     9    1
    14     1     6   ar
    15    28    24    1
    16     5     6   ar
    17     5    13    1
    18    15    16   ar
    19    13    12   ar
    20    24    23   ar
    21    24    25   ar
    22    20    19    1
    23    12    17   ar
    24    12    19    1
    25    16    17   ar
    26    16    23    1
    27    31    25    1
    28    23    22   ar
    29    25    26   ar
    30    41    40    1
    31    40    32    1
    32    30    29    1
    33    22    29    1
    34    22    27   ar
    35    26    27   ar
    36    26    33    1
    37    32    33   ar
    38    32    37   ar
    39    33    34   ar
    40    37    36   ar
    41    34    38    1
    42    34    35   ar
    43    36    39    1
    44    36    35   ar
    45    35    42    1
