@<TRIPOS>MOLECULE
mol_data/opt/b3lyp/geoms/mol2/6fa6he-13ih-6ea-.out
 49 52 0 0 0
SMALL
GASTEIGER

@<TRIPOS>ATOM
      1 C          -4.3468   -2.2364    0.3674 C.ar    1  LIG1        0.2128
      2 C          -2.9466   -2.2318    0.3781 C.ar    1  LIG1       -0.0001
      3 C          -2.3185   -0.9918    0.3050 C.ar    1  LIG1       -0.0547
      4 C          -3.0757    0.1704    0.2122 C.ar    1  LIG1       -0.0353
      5 C          -4.4801    0.0700    0.1768 C.ar    1  LIG1        0.0781
      6 N          -5.0825   -1.1370    0.2671 N.ar    1  LIG1       -0.2129
      7 H          -1.2344   -0.9325    0.3320 H       1  LIG1        0.0620
      8 H          -2.3780   -3.1536    0.4557 H       1  LIG1        0.0671
      9 O          -5.0754   -3.3805    0.4599 O.3     1  LIG1       -0.4924
     10 H          -4.4744   -4.1333    0.5363 H       1  LIG1        0.2937
     11 H          -2.5859    1.1353    0.1942 H       1  LIG1        0.0639
     12 C          -6.7500    1.2697    0.3521 C.ar    1  LIG1        0.1262
     13 C          -5.3431    1.2626    0.0490 C.ar    1  LIG1        0.0412
     14 C          -4.8287    2.4705   -0.4157 C.ar    1  LIG1       -0.0317
     15 C          -5.5925    3.6445   -0.5088 C.ar    1  LIG1        0.0528
     16 C          -6.9356    3.5695   -0.0461 C.ar    1  LIG1        0.1049
     17 N          -7.4766    2.3991    0.3244 N.ar    1  LIG1       -0.2291
     18 H          -3.8050    2.5168   -0.7695 H       1  LIG1        0.0638
     19 N          -7.4180    0.1515    0.7124 N.pl3   1  LIG1       -0.3426
     20 H          -8.4063    0.2412    0.8845 H       1  LIG1        0.1437
     21 H          -6.9451   -0.7421    0.6305 H       1  LIG1        0.1437
     22 C          -5.0273    4.7745   -1.1682 C.1     1  LIG1       -0.0674
     23 C          -4.4894    5.6768   -1.7723 C.1     1  LIG1       -0.1138
     24 H          -4.0400    6.4809   -2.3067 H       1  LIG1        0.1232
     25 C          -7.8611    4.7015    0.0085 C.ar    1  LIG1        0.0714
     26 C          -7.7269    6.0718    0.2800 C.ar    1  LIG1       -0.0024
     27 C          -9.0327    6.6206    0.2315 C.ar    1  LIG1        0.0539
     28 C          -9.9468    5.5842   -0.0372 C.ar    1  LIG1        0.0708
     29 N          -9.1918    4.4407   -0.1653 N.ar    1  LIG1       -0.3512
     30 H          -9.5455    3.5129   -0.3430 H       1  LIG1        0.1660
     31 C          -6.5116    6.8505    0.6886 C.3     1  LIG1       -0.0359
     32 H          -6.7578    7.5268    1.5164 H       1  LIG1        0.0279
     33 H          -6.0989    7.4543   -0.1292 H       1  LIG1        0.0279
     34 H          -5.7081    6.1954    1.0272 H       1  LIG1        0.0279
     35 N          -9.3331    7.9757    0.4702 N.pl3   1  LIG1       -0.3561
     36 H          -8.5253    8.5678    0.3139 H       1  LIG1        0.1424
     37 H         -10.0994    8.3139   -0.1018 H       1  LIG1        0.1424
     38 C         -12.1946    4.6660   -0.8346 C.ar    1  LIG1        0.1222
     39 C         -11.3988    5.6197   -0.1301 C.ar    1  LIG1        0.0339
     40 C         -12.1135    6.6437    0.5287 C.ar    1  LIG1       -0.0485
     41 C         -13.4962    6.7056    0.4485 C.ar    1  LIG1       -0.0429
     42 C         -14.1683    5.7255   -0.2858 C.ar    1  LIG1        0.0290
     43 N         -13.5395    4.7274   -0.9027 N.ar    1  LIG1       -0.2460
     44 H         -11.5704    7.3625    1.1323 H       1  LIG1        0.0625
     45 H         -15.2527    5.7387   -0.3753 H       1  LIG1        0.0830
     46 C         -11.6221    3.5553   -1.5435 C.1     1  LIG1       -0.0491
     47 C         -11.1736    2.6051   -2.1452 C.1     1  LIG1       -0.1124
     48 H         -10.7836    1.7799   -2.6951 H       1  LIG1        0.1232
     49 H         -14.0481    7.4879    0.9604 H       1  LIG1        0.0633
@<TRIPOS>BOND
     1    48    47    1
     2    24    23    1
     3    47    46    3
     4    23    22    3
     5    46    38    1
     6    22    15    1
     7    43    38   ar
     8    43    42   ar
     9    38    39   ar
    10    18    14    1
    11    15    14   ar
    12    15    16   ar
    13    14    13   ar
    14    45    42    1
    15    30    29    1
    16    42    41   ar
    17    29    28   ar
    18    29    25   ar
    19    39    28    1
    20    39    40   ar
    21    33    31    1
    22    37    35    1
    23    16    25    1
    24    16    17   ar
    25    28    27   ar
    26    25    26   ar
    27    13     5    1
    28    13    12   ar
    29     5     4   ar
    30     5     6   ar
    31    11     4    1
    32     4     3   ar
    33    27    26   ar
    34    27    35    1
    35     6     1   ar
    36    26    31    1
    37     3     7    1
    38     3     2   ar
    39    36    35    1
    40    17    12   ar
    41    12    19    1
    42     1     2   ar
    43     1     9    1
    44     2     8    1
    45    41    40   ar
    46    41    49    1
    47     9    10    1
    48    40    44    1
    49    21    19    1
    50    31    34    1
    51    31    32    1
    52    19    20    1
