@<TRIPOS>MOLECULE
mol_data/opt/b3lyp/geoms/mol2/6fa6la-12hi12ae-4fi13ll-4di-4ai.out
 103 110 0 0 0
SMALL
GASTEIGER

@<TRIPOS>ATOM
      1 C          -3.2235   -1.5231   -0.2248 C.ar    1  LIG1        0.2128
      2 C          -1.8728   -1.3000   -0.5441 C.ar    1  LIG1       -0.0001
      3 C          -1.4621    0.0174   -0.7025 C.ar    1  LIG1       -0.0547
      4 C          -2.3865    1.0486   -0.5434 C.ar    1  LIG1       -0.0353
      5 C          -3.7114    0.7175   -0.2193 C.ar    1  LIG1        0.0799
      6 N          -4.1144   -0.5565   -0.0629 N.ar    1  LIG1       -0.2129
      7 H          -0.4300    0.2386   -0.9586 H       1  LIG1        0.0620
      8 H          -1.1785   -2.1269   -0.6660 H       1  LIG1        0.0671
      9 O          -3.7190   -2.7789   -0.0471 O.3     1  LIG1       -0.4924
     10 H          -3.0052   -3.4171   -0.1763 H       1  LIG1        0.2937
     11 H          -2.0993    2.0837   -0.6882 H       1  LIG1        0.0639
     12 C          -6.0334    1.7581   -0.5315 C.ar    1  LIG1        0.2245
     13 C          -4.7138    1.7889    0.0019 C.ar    1  LIG1        0.0620
     14 C          -4.4053    2.9098    0.7724 C.ar    1  LIG1       -0.0453
     15 C          -5.3440    3.9133    1.0042 C.ar    1  LIG1       -0.0317
     16 C          -6.6167    3.7779    0.4256 C.ar    1  LIG1        0.1117
     17 N          -6.9359    2.7046   -0.3322 N.ar    1  LIG1       -0.2092
     18 H          -3.4244    2.9748    1.2346 H       1  LIG1        0.0626
     19 O          -6.3583    0.7194   -1.3233 O.3     1  LIG1       -0.4792
     20 C          -7.6840    0.6973   -1.8602 C.3     1  LIG1        0.0804
     21 H          -7.7397   -0.2246   -2.4404 H       1  LIG1        0.0660
     22 H          -8.4320    0.6951   -1.0632 H       1  LIG1        0.0660
     23 H          -7.8669    1.5653   -2.4999 H       1  LIG1        0.0660
     24 H          -5.1195    4.7304    1.6793 H       1  LIG1        0.0640
     25 C          -7.6463    4.7800    0.6109 C.ar    1  LIG1        0.1748
     26 C          -7.6161    6.1122    0.9913 C.ar    1  LIG1        0.0762
     27 C          -8.9679    6.5790    1.0048 C.ar    1  LIG1        0.0197
     28 C          -9.7311    5.5010    0.6028 C.ar    1  LIG1        0.1754
     29 O          -8.9495    4.4183    0.3602 O.2     1  LIG1       -0.4480
     30 N          -6.5024    6.8790    1.3433 N.pl3   1  LIG1       -0.3548
     31 H          -5.6499    6.5830    0.8830 H       1  LIG1        0.1424
     32 H          -6.6473    7.8707    1.1980 H       1  LIG1        0.1424
     33 C          -9.4295    7.9488    1.3986 C.3     1  LIG1       -0.0342
     34 H         -10.4157    7.9111    1.8704 H       1  LIG1        0.0279
     35 H          -9.5017    8.6329    0.5428 H       1  LIG1        0.0279
     36 H          -8.7434    8.3981    2.1242 H       1  LIG1        0.0279
     37 C         -11.1474    5.3428    0.4122 C.ar    1  LIG1        0.1721
     38 C         -12.1952    6.2232    0.3424 C.ar    1  LIG1        0.0033
     39 C         -13.3842    5.4438    0.1459 C.ar    1  LIG1        0.0712
     40 C         -12.9745    4.1177    0.0878 C.ar    1  LIG1        0.1546
     41 O         -11.6168    4.0665    0.2588 O.2     1  LIG1       -0.4503
     42 H         -12.1526    7.2990    0.4056 H       1  LIG1        0.0669
     43 C         -14.6961    5.9816    0.1248 C.1     1  LIG1       -0.0658
     44 C         -15.7861    6.5068    0.1483 C.1     1  LIG1       -0.1138
     45 H         -16.7545    6.9493    0.1600 H       1  LIG1        0.1232
     46 C         -14.7753    2.6017   -0.8222 C.ar    1  LIG1        0.1282
     47 C         -15.3417    1.3330   -0.8899 C.ar    1  LIG1       -0.0100
     48 C         -13.6278    2.8219   -0.0328 C.ar    1  LIG1        0.0601
     49 C         -14.7986    0.2313   -0.2042 C.ar    1  LIG1        0.0084
     50 H         -16.2244    1.1821   -1.5031 H       1  LIG1        0.0661
     51 C         -13.0870    1.7109    0.6369 C.ar    1  LIG1       -0.0440
     52 C         -13.6324    0.4299    0.5825 C.ar    1  LIG1       -0.0403
     53 H         -12.2025    1.8733    1.2440 H       1  LIG1        0.0629
     54 O         -15.2703    3.6452   -1.5426 O.3     1  LIG1       -0.5060
     55 H         -16.0651    3.3582   -2.0111 H       1  LIG1        0.2922
     56 C         -12.9748   -0.6615    1.3999 C.3     1  LIG1       -0.0391
     57 H         -12.3261   -0.2220    2.1617 H       1  LIG1        0.0278
     58 H         -12.3341   -1.3182    0.7941 H       1  LIG1        0.0278
     59 H         -13.7092   -1.2942    1.9069 H       1  LIG1        0.0278
     60 C         -15.4794   -1.0564   -0.3480 C.ar    1  LIG1        0.0933
     61 C         -16.8223   -1.3377   -0.6135 C.ar    1  LIG1        0.1875
     62 C         -16.9726   -2.7467   -0.7425 C.ar    1  LIG1        0.1875
     63 C         -15.7169   -3.3221   -0.5523 C.ar    1  LIG1        0.0942
     64 N         -14.8461   -2.2803   -0.2729 N.ar    1  LIG1       -0.3482
     65 H         -13.8459   -2.3884   -0.3255 H       1  LIG1        0.1661
     66 O         -17.8333   -0.4123   -0.7008 O.3     1  LIG1       -0.4895
     67 C         -18.6487   -0.3417    0.4772 C.3     1  LIG1        0.0791
     68 H         -19.4243    0.3997    0.2742 H       1  LIG1        0.0660
     69 H         -19.1130   -1.3106    0.6922 H       1  LIG1        0.0660
     70 H         -18.0553   -0.0241    1.3425 H       1  LIG1        0.0660
     71 O         -18.1349   -3.4468   -0.8578 O.3     1  LIG1       -0.4895
     72 C         -18.9919   -3.0602   -1.9475 C.3     1  LIG1        0.0791
     73 H         -19.8843   -3.6809   -1.8553 H       1  LIG1        0.0660
     74 H         -19.2616   -2.0030   -1.8810 H       1  LIG1        0.0660
     75 H         -18.5078   -3.2677   -2.9053 H       1  LIG1        0.0660
     76 C         -15.7092   -5.7430   -1.3134 C.ar    1  LIG1        0.0616
     77 C         -15.2336   -7.0500   -1.1358 C.ar    1  LIG1       -0.0357
     78 C         -15.2691   -4.7075   -0.4528 C.ar    1  LIG1        0.0196
     79 C         -14.3004   -7.3810   -0.1487 C.ar    1  LIG1       -0.0137
     80 H         -15.5783   -7.8222   -1.8153 H       1  LIG1        0.0637
     81 C         -14.3353   -5.0602    0.5369 C.ar    1  LIG1       -0.0478
     82 C         -13.8365   -6.3534    0.7078 C.ar    1  LIG1       -0.0420
     83 H         -14.0201   -4.2909    1.2361 H       1  LIG1        0.0627
     84 N         -17.2215   -5.3660   -3.3870 N.1     1  LIG1       -0.1908
     85 C         -16.5669   -5.5007   -2.4339 C.1     1  LIG1        0.0998
     86 C         -12.8620   -6.6134    1.8336 C.3     1  LIG1       -0.0391
     87 H         -12.9538   -5.8449    2.6057 H       1  LIG1        0.0278
     88 H         -11.8237   -6.5984    1.4823 H       1  LIG1        0.0278
     89 H         -13.0288   -7.5900    2.2945 H       1  LIG1        0.0278
     90 C         -14.8059   -9.8257    0.0745 C.ar    1  LIG1       -0.0540
     91 C         -14.3982  -11.1575    0.1463 C.ar    1  LIG1       -0.0609
     92 C         -13.8561   -8.7998   -0.0398 C.ar    1  LIG1       -0.0173
     93 C         -13.0443  -11.4826    0.0988 C.ar    1  LIG1       -0.0588
     94 H         -15.1410  -11.9439    0.2457 H       1  LIG1        0.0618
     95 C         -12.4967   -9.1482   -0.0897 C.ar    1  LIG1       -0.0511
     96 C         -12.0732  -10.4792   -0.0258 C.ar    1  LIG1       -0.0499
     97 H         -11.7530   -8.3648   -0.2058 H       1  LIG1        0.0626
     98 H         -12.7354  -12.5234    0.1572 H       1  LIG1        0.0620
     99 H         -15.8611   -9.5745    0.1253 H       1  LIG1        0.0624
    100 C         -10.6070  -10.8322   -0.1184 C.3     1  LIG1       -0.0397
    101 H          -9.9724   -9.9582    0.0523 H       1  LIG1        0.0278
    102 H         -10.3576  -11.2318   -1.1088 H       1  LIG1        0.0278
    103 H         -10.3333  -11.5973    0.6154 H       1  LIG1        0.0278
@<TRIPOS>BOND
     1    84    85    3
     2    75    72    1
     3    23    20    1
     4    21    20    1
     5    85    76    1
     6    55    54    1
     7    72    74    1
     8    72    73    1
     9    72    71    1
    10    20    19    1
    11    20    22    1
    12    80    77    1
    13    54    46    1
    14    50    47    1
    15    19    12    1
    16    76    77   ar
    17    76    78   ar
    18    77    79   ar
    19   102   100    1
    20     7     3    1
    21    47    46   ar
    22    47    49   ar
    23    71    62    1
    24    46    48   ar
    25    62    61   ar
    26    62    63   ar
    27     3     2   ar
    28     3     4   ar
    29    66    61    1
    30    66    67    1
    31    11     4    1
    32     8     2    1
    33    61    60   ar
    34    63    78    1
    35    63    64   ar
    36     2     1   ar
    37     4     5   ar
    38    12    17   ar
    39    12    13   ar
    40    78    81   ar
    41    60    64   ar
    42    60    49    1
    43    17    16   ar
    44    65    64    1
    45     1     6   ar
    46     1     9    1
    47     5     6   ar
    48     5    13    1
    49    97    95    1
    50    49    52   ar
    51    10     9    1
    52    79    92    1
    53    79    82   ar
    54   100    96    1
    55   100   101    1
    56   100   103    1
    57    95    92   ar
    58    95    96   ar
    59    92    90   ar
    60    48    40    1
    61    48    51   ar
    62    96    93   ar
    63    13    14   ar
    64    90    99    1
    65    90    91   ar
    66    40    39   ar
    67    40    41   ar
    68    93    91   ar
    69    93    98    1
    70    43    39    1
    71    43    44    3
    72    39    38   ar
    73    91    94    1
    74    44    45    1
    75    41    37   ar
    76    68    67    1
    77    38    42    1
    78    38    37   ar
    79    29    28   ar
    80    29    25   ar
    81    37    28    1
    82    16    25    1
    83    16    15   ar
    84    67    69    1
    85    67    70    1
    86    81    82   ar
    87    81    83    1
    88    35    33    1
    89    52    51   ar
    90    52    56    1
    91    28    27   ar
    92    25    26   ar
    93    51    53    1
    94    82    86    1
    95    14    15   ar
    96    14    18    1
    97    58    56    1
    98    31    30    1
    99    26    27   ar
   100    26    30    1
   101    15    24    1
   102    27    33    1
   103    32    30    1
   104    33    34    1
   105    33    36    1
   106    56    59    1
   107    56    57    1
   108    88    86    1
   109    86    89    1
   110    86    87    1
