@<TRIPOS>MOLECULE
mol_data/opt/b3lyp/geoms/mol2/6fa6fa6fa.out
 32 34 0 0 0
SMALL
GASTEIGER

@<TRIPOS>ATOM
      1 C          -4.4198   -2.1738   -0.0001 C.ar    1  LIG1        0.2128
      2 C          -3.0201   -2.2038   -0.0002 C.ar    1  LIG1       -0.0001
      3 C          -2.3582   -0.9794   -0.0002 C.ar    1  LIG1       -0.0547
      4 C          -3.0777    0.2110   -0.0003 C.ar    1  LIG1       -0.0353
      5 C          -4.4820    0.1552   -0.0002 C.ar    1  LIG1        0.0799
      6 N          -5.1156   -1.0424   -0.0002 N.ar    1  LIG1       -0.2129
      7 H          -1.2726   -0.9548   -0.0003 H       1  LIG1        0.0620
      8 H          -2.4771   -3.1436   -0.0001 H       1  LIG1        0.0671
      9 O          -5.1844   -3.2908   -0.0001 O.3     1  LIG1       -0.4924
     10 H          -4.6149   -4.0717   -0.0001 H       1  LIG1        0.2937
     11 H          -2.5531    1.1571   -0.0003 H       1  LIG1        0.0639
     12 C          -6.7708    1.2525   -0.0001 C.ar    1  LIG1        0.2223
     13 C          -5.3452    1.3491   -0.0002 C.ar    1  LIG1        0.0618
     14 C          -4.8292    2.6543   -0.0004 C.ar    1  LIG1       -0.0454
     15 C          -5.6507    3.7674   -0.0004 C.ar    1  LIG1       -0.0347
     16 C          -7.0467    3.5811   -0.0002 C.ar    1  LIG1        0.0799
     17 N          -7.5559    2.3323   -0.0001 N.ar    1  LIG1       -0.2123
     18 H          -3.7554    2.8080   -0.0005 H       1  LIG1        0.0626
     19 O          -7.4187    0.0945    0.0000 O.3     1  LIG1       -0.4919
     20 H          -6.7233   -0.6278   -0.0000 H       1  LIG1        0.2937
     21 H          -5.2117    4.7559   -0.0005 H       1  LIG1        0.0639
     22 C          -9.4358    4.4582    0.0001 C.ar    1  LIG1        0.2217
     23 C          -8.0180    4.6899   -0.0002 C.ar    1  LIG1        0.0618
     24 C          -7.6084    6.0319   -0.0004 C.ar    1  LIG1       -0.0460
     25 C          -8.5392    7.0608   -0.0003 C.ar    1  LIG1       -0.0427
     26 C          -9.8908    6.7079   -0.0000 C.ar    1  LIG1        0.0314
     27 N         -10.3327    5.4530    0.0002 N.ar    1  LIG1       -0.2209
     28 H          -6.5515    6.2761   -0.0006 H       1  LIG1        0.0626
     29 H         -10.6589    7.4806    0.0000 H       1  LIG1        0.0831
     30 O          -9.9574    3.2368    0.0002 O.3     1  LIG1       -0.4919
     31 H          -9.1921    2.5893    0.0002 H       1  LIG1        0.2937
     32 H          -8.2333    8.1010   -0.0005 H       1  LIG1        0.0633
@<TRIPOS>BOND
     1    28    24    1
     2    18    14    1
     3    21    15    1
     4    32    25    1
     5    14    15   ar
     6    14    13   ar
     7    24    25   ar
     8    24    23   ar
     9    15    16   ar
    10    25    26   ar
    11    11     4    1
    12     7     3    1
    13     4     3   ar
    14     4     5   ar
    15    13     5    1
    16    13    12   ar
    17     3     2   ar
    18     5     6   ar
    19    16    23    1
    20    16    17   ar
    21    23    22   ar
    22     2     8    1
    23     2     1   ar
    24     6     1   ar
    25     1     9    1
    26    12    17   ar
    27    12    19    1
    28     9    10    1
    29    20    19    1
    30    26    29    1
    31    26    27   ar
    32    22    27   ar
    33    22    30    1
    34    31    30    1
