@<TRIPOS>MOLECULE
mol_data/opt/b3lyp/geoms/mol2/6fd13df4ai-4di-.out
 50 53 0 0 0
SMALL
GASTEIGER

@<TRIPOS>ATOM
      1 C          -4.2068   -1.8300    0.9161 C.ar    1  LIG1        0.2129
      2 C          -2.8069   -1.8108    1.0663 C.ar    1  LIG1        0.0011
      3 C          -2.1596   -0.6127    0.8331 C.ar    1  LIG1       -0.0372
      4 C          -2.8850    0.5204    0.4183 C.ar    1  LIG1        0.0794
      5 C          -4.2761    0.3654    0.1993 C.ar    1  LIG1        0.1096
      6 N          -4.9063   -0.7916    0.4882 N.ar    1  LIG1       -0.2102
      7 H          -1.0897   -0.5249    0.9892 H       1  LIG1        0.0633
      8 H          -2.2589   -2.6925    1.3832 H       1  LIG1        0.0671
      9 O          -4.9481   -2.9266    1.1950 O.3     1  LIG1       -0.4924
     10 H          -4.3698   -3.6365    1.5053 H       1  LIG1        0.2937
     11 N          -1.6085    2.7735    0.4248 N.1     1  LIG1       -0.1908
     12 C          -2.2073    1.7770    0.3743 C.1     1  LIG1        0.1014
     13 C          -5.1652    1.4101   -0.2960 C.ar    1  LIG1        0.0880
     14 C          -5.0142    2.5198   -1.1517 C.ar    1  LIG1        0.1204
     15 C          -6.2932    3.1324   -1.2553 C.ar    1  LIG1        0.1601
     16 C          -7.1992    2.4005   -0.4870 C.ar    1  LIG1        0.0903
     17 N          -6.4828    1.3557    0.0527 N.ar    1  LIG1       -0.3490
     18 H          -6.8383    0.6345    0.6639 H       1  LIG1        0.1661
     19 N          -3.0170    3.1555   -2.6573 N.1     1  LIG1       -0.1907
     20 C          -3.8966    2.8734   -1.9492 C.1     1  LIG1        0.1050
     21 O          -6.5301    4.2188   -2.0305 O.3     1  LIG1       -0.5034
     22 H          -7.4832    4.2978   -2.1784 H       1  LIG1        0.2923
     23 C          -9.1840    3.8861   -0.2623 C.ar    1  LIG1       -0.0519
     24 C         -10.5533    4.0567   -0.0877 C.ar    1  LIG1       -0.0531
     25 C          -8.6317    2.5936   -0.2840 C.ar    1  LIG1        0.0022
     26 C         -11.4118    2.9621    0.0766 C.ar    1  LIG1       -0.0137
     27 H         -10.9667    5.0604   -0.0657 H       1  LIG1        0.0624
     28 C          -9.4970    1.4992   -0.1090 C.ar    1  LIG1       -0.0490
     29 C         -10.8716    1.6557    0.0781 C.ar    1  LIG1       -0.0421
     30 H          -9.0913    0.4912   -0.1395 H       1  LIG1        0.0627
     31 H          -8.5382    4.7566   -0.3274 H       1  LIG1        0.0624
     32 C         -11.7410    0.4370    0.2884 C.3     1  LIG1       -0.0391
     33 H         -11.1292   -0.4613    0.4010 H       1  LIG1        0.0278
     34 H         -12.4242    0.2712   -0.5512 H       1  LIG1        0.0278
     35 H         -12.3605    0.5403    1.1850 H       1  LIG1        0.0278
     36 C         -13.4025    3.8048    1.4049 C.ar    1  LIG1        0.0595
     37 C         -14.7846    4.0425    1.5138 C.ar    1  LIG1       -0.0435
     38 C         -12.8769    3.2042    0.2398 C.ar    1  LIG1       -0.0000
     39 C         -15.6403    3.6903    0.4799 C.ar    1  LIG1       -0.0576
     40 H         -15.1722    4.5004    2.4177 H       1  LIG1        0.0631
     41 C         -13.7689    2.8619   -0.7841 C.ar    1  LIG1       -0.0499
     42 C         -15.1447    3.0944   -0.6899 C.ar    1  LIG1       -0.0498
     43 H         -13.3683    2.4140   -1.6894 H       1  LIG1        0.0627
     44 H         -16.7055    3.8795    0.5788 H       1  LIG1        0.0621
     45 N         -11.8904    4.4655    3.4115 N.1     1  LIG1       -0.1909
     46 C         -12.5509    4.1652    2.5018 C.1     1  LIG1        0.0998
     47 C         -16.0746    2.7341   -1.8223 C.3     1  LIG1       -0.0397
     48 H         -15.5648    2.1461   -2.5895 H       1  LIG1        0.0278
     49 H         -16.4751    3.6342   -2.3034 H       1  LIG1        0.0278
     50 H         -16.9311    2.1543   -1.4626 H       1  LIG1        0.0278
@<TRIPOS>BOND
     1    19    20    3
     2    48    47    1
     3    49    47    1
     4    22    21    1
     5    21    15    1
     6    20    14    1
     7    47    50    1
     8    47    42    1
     9    43    41    1
    10    15    14   ar
    11    15    16   ar
    12    14    13   ar
    13    41    42   ar
    14    41    38   ar
    15    42    39   ar
    16    34    32    1
    17    16    25    1
    18    16    17   ar
    19    31    23    1
    20    13    17   ar
    21    13     5    1
    22    25    23   ar
    23    25    28   ar
    24    23    24   ar
    25    30    28    1
    26    28    29   ar
    27    24    27    1
    28    24    26   ar
    29    17    18    1
    30    26    29   ar
    31    26    38    1
    32    29    32    1
    33     5     4   ar
    34     5     6   ar
    35    38    36   ar
    36    32    33    1
    37    32    35    1
    38    12     4    1
    39    12    11    3
    40     4     3   ar
    41    39    44    1
    42    39    37   ar
    43     6     1   ar
    44     3     7    1
    45     3     2   ar
    46     1     2   ar
    47     1     9    1
    48     2     8    1
    49     9    10    1
    50    36    37   ar
    51    36    46    1
    52    37    40    1
    53    46    45    3
