@<TRIPOS>MOLECULE
mol_data/opt/b3lyp/geoms/mol2/6fd12di13hi12ie.out
 49 52 0 0 0
SMALL
GASTEIGER

@<TRIPOS>ATOM
      1 C          -4.4034   -2.0988    0.1630 C.ar    1  LIG1        0.2129
      2 C          -3.1276   -2.1788   -0.4304 C.ar    1  LIG1        0.0011
      3 C          -2.6027   -1.0248   -0.9795 C.ar    1  LIG1       -0.0371
      4 C          -3.3268    0.1795   -0.9097 C.ar    1  LIG1        0.0810
      5 C          -4.5692    0.1602   -0.2280 C.ar    1  LIG1        0.1284
      6 N          -5.0918   -0.9725    0.2697 N.ar    1  LIG1       -0.2086
      7 H          -1.6429   -1.0394   -1.4845 H       1  LIG1        0.0633
      8 H          -2.5827   -3.1168   -0.4743 H       1  LIG1        0.0671
      9 O          -5.0216   -3.1822    0.6848 O.3     1  LIG1       -0.4924
     10 H          -4.4594   -3.9607    0.5733 H       1  LIG1        0.2937
     11 N          -2.4267    2.2196   -2.2297 N.1     1  LIG1       -0.1908
     12 C          -2.8384    1.3259   -1.6081 C.1     1  LIG1        0.1014
     13 C          -5.3747    1.3614   -0.0258 C.ar    1  LIG1        0.1728
     14 C          -5.0946    2.6641    0.3432 C.ar    1  LIG1        0.1025
     15 C          -6.3481    3.3510    0.5068 C.ar    1  LIG1        0.0149
     16 C          -7.3167    2.4197    0.1964 C.ar    1  LIG1        0.1578
     17 O          -6.7226    1.2141   -0.1112 O.2     1  LIG1       -0.4501
     18 N          -2.8210    3.6962    1.0067 N.1     1  LIG1       -0.1907
     19 C          -3.8289    3.2141    0.6812 C.1     1  LIG1        0.1033
     20 C          -6.5051    4.7480    1.0263 C.3     1  LIG1       -0.0348
     21 H          -7.5507    4.9850    1.2274 H       1  LIG1        0.0279
     22 H          -6.1139    5.4885    0.3184 H       1  LIG1        0.0279
     23 H          -5.9390    4.8734    1.9552 H       1  LIG1        0.0279
     24 C          -8.7524    2.4160    0.1434 C.ar    1  LIG1        0.1041
     25 C          -9.6933    3.4055   -0.1618 C.ar    1  LIG1        0.0569
     26 C         -10.9889    2.8268   -0.0668 C.ar    1  LIG1       -0.0008
     27 C         -10.8068    1.4787    0.2546 C.ar    1  LIG1        0.0876
     28 N          -9.4624    1.2503    0.3807 N.ar    1  LIG1       -0.3476
     29 H          -9.0417    0.3621    0.6043 H       1  LIG1        0.1661
     30 N          -9.4405    4.7524   -0.4568 N.pl3   1  LIG1       -0.3560
     31 H          -8.5406    4.9029   -0.8973 H       1  LIG1        0.1424
     32 H         -10.1693    5.1667   -1.0254 H       1  LIG1        0.1424
     33 C         -12.2798    3.5771   -0.2064 C.3     1  LIG1       -0.0358
     34 H         -13.1081    3.0154    0.2314 H       1  LIG1        0.0279
     35 H         -12.5444    3.7879   -1.2515 H       1  LIG1        0.0279
     36 H         -12.2247    4.5401    0.3147 H       1  LIG1        0.0279
     37 C         -11.7563    0.4081    0.4740 C.ar    1  LIG1        0.1553
     38 C         -12.9269    0.0225   -0.1272 C.ar    1  LIG1        0.0121
     39 C         -13.3587   -1.1676    0.5788 C.ar    1  LIG1        0.0659
     40 C         -12.4055   -1.4180    1.5295 C.ar    1  LIG1        0.1082
     41 O         -11.4307   -0.4802    1.4846 O.2     1  LIG1       -0.4599
     42 H         -12.2977   -2.1940    2.2707 H       1  LIG1        0.1042
     43 C         -13.6094    0.6173   -1.3192 C.3     1  LIG1       -0.0349
     44 H         -13.9735   -0.1752   -1.9802 H       1  LIG1        0.0279
     45 H         -12.9259    1.2534   -1.8861 H       1  LIG1        0.0279
     46 H         -14.4791    1.2220   -1.0370 H       1  LIG1        0.0279
     47 C         -14.5221   -1.9344    0.3109 C.1     1  LIG1       -0.0662
     48 C         -15.5190   -2.5740    0.0631 C.1     1  LIG1       -0.1138
     49 H         -16.3951   -3.1430   -0.1458 H       1  LIG1        0.1232
@<TRIPOS>BOND
     1    11    12    3
     2    44    43    1
     3    45    43    1
     4    12     4    1
     5     7     3    1
     6    43    46    1
     7    43    38    1
     8    35    33    1
     9    32    30    1
    10     3     4   ar
    11     3     2   ar
    12     4     5   ar
    13    31    30    1
    14     8     2    1
    15    30    25    1
    16     2     1   ar
    17     5    13    1
    18     5     6   ar
    19    33    26    1
    20    33    34    1
    21    33    36    1
    22    25    26   ar
    23    25    24   ar
    24    49    48    1
    25    38    37   ar
    26    38    39   ar
    27    17    13   ar
    28    17    16   ar
    29    26    27   ar
    30    13    14   ar
    31    48    47    3
    32    24    16    1
    33    24    28   ar
    34     1     6   ar
    35     1     9    1
    36    16    15   ar
    37    27    28   ar
    38    27    37    1
    39    47    39    1
    40    22    20    1
    41    14    15   ar
    42    14    19    1
    43    28    29    1
    44    37    41   ar
    45    15    20    1
    46    10     9    1
    47    39    40   ar
    48    19    18    3
    49    20    21    1
    50    20    23    1
    51    41    40   ar
    52    40    42    1
