@<TRIPOS>MOLECULE
mol_data/opt/b3lyp/geoms/mol2/6fd4fe-6ii13lh.out
 55 58 0 0 0
SMALL
GASTEIGER

@<TRIPOS>ATOM
      1 C          -4.4246   -2.4894    0.3668 C.ar    1  LIG1        0.2129
      2 C          -3.0296   -2.5581    0.2066 C.ar    1  LIG1        0.0011
      3 C          -2.3557   -1.3724   -0.0210 C.ar    1  LIG1       -0.0372
      4 C          -3.0630   -0.1583   -0.0595 C.ar    1  LIG1        0.0780
      5 C          -4.4626   -0.1936    0.1622 C.ar    1  LIG1        0.0956
      6 N          -5.1087   -1.3522    0.3501 N.ar    1  LIG1       -0.2116
      7 H          -1.2831   -1.3699   -0.1833 H       1  LIG1        0.0633
      8 H          -2.5004   -3.5055    0.2435 H       1  LIG1        0.0671
      9 O          -5.1844   -3.5925    0.5563 O.3     1  LIG1       -0.4924
     10 H          -4.6195   -4.3770    0.5535 H       1  LIG1        0.2937
     11 N          -1.7427    1.9801   -0.6965 N.1     1  LIG1       -0.1908
     12 C          -2.3552    1.0386   -0.3919 C.1     1  LIG1        0.1013
     13 C          -5.0146    2.1922    0.8533 C.ar    1  LIG1        0.1267
     14 C          -5.8549    3.3056    0.7677 C.ar    1  LIG1       -0.0106
     15 C          -5.3209    1.0200    0.1362 C.ar    1  LIG1        0.0443
     16 C          -7.0233    3.2907    0.0030 C.ar    1  LIG1        0.0027
     17 H          -5.6088    4.2005    1.3342 H       1  LIG1        0.0661
     18 C          -6.5051    0.9941   -0.6039 C.ar    1  LIG1       -0.0330
     19 C          -7.3576    2.1044   -0.6991 C.ar    1  LIG1        0.0333
     20 H          -6.7603    0.0854   -1.1367 H       1  LIG1        0.0638
     21 O          -3.9201    2.1795    1.6616 O.3     1  LIG1       -0.5061
     22 H          -3.7181    3.0790    1.9514 H       1  LIG1        0.2922
     23 C          -8.5163    2.0228   -1.5319 C.1     1  LIG1       -0.0690
     24 C          -9.4871    1.9248   -2.2484 C.1     1  LIG1       -0.1139
     25 H         -10.3382    1.8501   -2.8845 H       1  LIG1        0.1232
     26 C          -9.1304    4.6258    0.5395 C.ar    1  LIG1        0.0467
     27 C          -7.8594    4.5225   -0.0637 C.ar    1  LIG1        0.0047
     28 C          -7.3788    5.6502   -0.7337 C.ar    1  LIG1       -0.0473
     29 C          -8.1056    6.8391   -0.8155 C.ar    1  LIG1       -0.0223
     30 C          -9.3462    6.8606   -0.1366 C.ar    1  LIG1        0.0939
     31 N          -9.8256    5.7636    0.4961 N.ar    1  LIG1       -0.2494
     32 H          -6.4191    5.5871   -1.2411 H       1  LIG1        0.0627
     33 C          -9.7705    3.4793    1.2831 C.3     1  LIG1       -0.0217
     34 H          -9.0524    2.9670    1.9304 H       1  LIG1        0.0293
     35 H         -10.1659    2.7340    0.5846 H       1  LIG1        0.0293
     36 H         -10.5940    3.8587    1.8903 H       1  LIG1        0.0293
     37 C          -7.5778    7.9756   -1.6529 C.3     1  LIG1       -0.0376
     38 H          -7.1695    8.7869   -1.0457 H       1  LIG1        0.0278
     39 H          -8.3715    8.4213   -2.2585 H       1  LIG1        0.0278
     40 H          -6.7909    7.6152   -2.3219 H       1  LIG1        0.0278
     41 C         -10.2699    7.9992   -0.0795 C.ar    1  LIG1        0.1093
     42 C         -10.1863    9.3945   -0.1700 C.ar    1  LIG1        0.1673
     43 C         -11.4881    9.9390    0.0147 C.ar    1  LIG1        0.0851
     44 C         -12.3408    8.8705    0.2338 C.ar    1  LIG1        0.0267
     45 N         -11.5954    7.7227    0.1698 N.ar    1  LIG1       -0.3549
     46 H         -11.8811    6.7808    0.3923 H       1  LIG1        0.1655
     47 H         -13.4047    8.8476    0.4171 H       1  LIG1        0.0827
     48 O          -9.0705   10.1725   -0.3767 O.3     1  LIG1       -0.4911
     49 C          -8.6025   10.8193    0.8143 C.3     1  LIG1        0.0790
     50 H          -9.3791   11.4594    1.2473 H       1  LIG1        0.0660
     51 H          -8.2864   10.0818    1.5624 H       1  LIG1        0.0660
     52 H          -7.7453   11.4293    0.5190 H       1  LIG1        0.0660
     53 N         -11.7651   11.3211    0.0320 N.pl3   1  LIG1       -0.3540
     54 H         -11.2067   11.8084   -0.6618 H       1  LIG1        0.1425
     55 H         -12.7448   11.5222   -0.1322 H       1  LIG1        0.1425
@<TRIPOS>BOND
     1    25    24    1
     2    40    37    1
     3    39    37    1
     4    24    23    3
     5    37    38    1
     6    37    29    1
     7    23    19    1
     8    32    28    1
     9    20    18    1
    10    29    28   ar
    11    29    30   ar
    12    28    27   ar
    13    19    18   ar
    14    19    16   ar
    15    11    12    3
    16    54    53    1
    17    18    15   ar
    18    12     4    1
    19    48    42    1
    20    48    49    1
    21     7     3    1
    22    42    41   ar
    23    42    43   ar
    24    30    41    1
    25    30    31   ar
    26    55    53    1
    27    41    45   ar
    28    27    16    1
    29    27    26   ar
    30     4     3   ar
    31     4     5   ar
    32     3     2   ar
    33    16    14   ar
    34    43    53    1
    35    43    44   ar
    36    15     5    1
    37    15    13   ar
    38     5     6   ar
    39    45    44   ar
    40    45    46    1
    41     2     8    1
    42     2     1   ar
    43    44    47    1
    44     6     1   ar
    45     1     9    1
    46    31    26   ar
    47    52    49    1
    48    26    33    1
    49    10     9    1
    50    35    33    1
    51    14    13   ar
    52    14    17    1
    53    49    50    1
    54    49    51    1
    55    13    21    1
    56    33    36    1
    57    33    34    1
    58    21    22    1
