@<TRIPOS>MOLECULE
mol_data/opt/b3lyp/geoms/mol2/6fd6fd-6fd6fd-.out
 46 49 0 0 0
SMALL
GASTEIGER

@<TRIPOS>ATOM
      1 C          -3.6932   -1.8124   -1.0904 C.ar    1  LIG1        0.2129
      2 C          -2.8611   -2.2206   -0.0317 C.ar    1  LIG1        0.0011
      3 C          -2.8402   -1.4378    1.1071 C.ar    1  LIG1       -0.0372
      4 C          -3.6134   -0.2639    1.1664 C.ar    1  LIG1        0.0781
      5 C          -4.3764    0.0810    0.0267 C.ar    1  LIG1        0.0972
      6 N          -4.4185   -0.6996   -1.0592 N.ar    1  LIG1       -0.2116
      7 H          -2.2408   -1.7254    1.9641 H       1  LIG1        0.0633
      8 H          -2.2675   -3.1272   -0.0973 H       1  LIG1        0.0671
      9 O          -3.8186   -2.5232   -2.2298 O.3     1  LIG1       -0.4924
     10 H          -3.2674   -3.3165   -2.1847 H       1  LIG1        0.2937
     11 N          -3.7080    1.0518    3.3979 N.1     1  LIG1       -0.1908
     12 C          -3.6609    0.4827    2.3841 C.1     1  LIG1        0.1013
     13 C          -4.7979    2.5940    0.3109 C.ar    1  LIG1        0.2224
     14 C          -5.2344    1.2933   -0.0399 C.ar    1  LIG1        0.0643
     15 C          -6.5194    1.2056   -0.5551 C.ar    1  LIG1       -0.0279
     16 C          -7.3511    2.3389   -0.6213 C.ar    1  LIG1        0.0787
     17 C          -6.8449    3.5715   -0.1429 C.ar    1  LIG1        0.0973
     18 N          -5.5765    3.6699    0.2808 N.ar    1  LIG1       -0.2110
     19 H          -6.8775    0.2500   -0.9211 H       1  LIG1        0.0639
     20 O          -3.5195    2.7726    0.6678 O.3     1  LIG1       -0.4919
     21 H          -3.4199    3.7037    0.9269 H       1  LIG1        0.2937
     22 N          -9.6863    2.1047   -1.7272 N.1     1  LIG1       -0.1908
     23 C          -8.6421    2.2233   -1.2278 C.1     1  LIG1        0.1013
     24 C          -8.9238    4.9650    0.4431 C.ar    1  LIG1        0.2224
     25 C          -7.6299    4.8314   -0.1259 C.ar    1  LIG1        0.0643
     26 C          -7.0442    6.0003   -0.6042 C.ar    1  LIG1       -0.0279
     27 C          -7.7468    7.2110   -0.6097 C.ar    1  LIG1        0.0787
     28 C          -9.0751    7.2031   -0.1174 C.ar    1  LIG1        0.0973
     29 N          -9.6066    6.1039    0.4225 N.ar    1  LIG1       -0.2110
     30 H          -6.0260    5.9668   -0.9743 H       1  LIG1        0.0639
     31 O          -9.5612    3.9716    1.0874 O.3     1  LIG1       -0.4919
     32 H          -9.0242    3.1674    1.0973 H       1  LIG1        0.2937
     33 N          -6.4872    9.3510   -1.3546 N.1     1  LIG1       -0.1908
     34 C          -7.0767    8.4000   -1.0357 C.1     1  LIG1        0.1013
     35 C         -10.1336    9.2624   -1.2032 C.ar    1  LIG1        0.2218
     36 C          -9.9486    8.4037   -0.0940 C.ar    1  LIG1        0.0643
     37 C         -10.6973    8.6887    1.0439 C.ar    1  LIG1       -0.0285
     38 C         -11.5246    9.8220    1.0776 C.ar    1  LIG1        0.0707
     39 C         -11.5784   10.6295   -0.0688 C.ar    1  LIG1        0.0488
     40 N         -10.9094   10.3458   -1.1838 N.ar    1  LIG1       -0.2196
     41 H         -10.6284    8.0293    1.9013 H       1  LIG1        0.0639
     42 H         -12.1909   11.5271   -0.0802 H       1  LIG1        0.0844
     43 O          -9.5320    8.9647   -2.3645 O.3     1  LIG1       -0.4919
     44 H          -9.7414    9.6849   -2.9819 H       1  LIG1        0.2937
     45 N         -12.9052   10.4407    3.1840 N.1     1  LIG1       -0.1908
     46 C         -12.2849   10.1584    2.2411 C.1     1  LIG1        0.1007
@<TRIPOS>BOND
     1    44    43    1
     2    43    35    1
     3     9    10    1
     4     9     1    1
     5    22    23    3
     6    33    34    3
     7    23    16    1
     8    35    40   ar
     9    35    36   ar
    10    40    39   ar
    11     1     6   ar
    12     1     2   ar
    13     6     5   ar
    14    34    27    1
    15    30    26    1
    16    19    15    1
    17    16    15   ar
    18    16    17   ar
    19    27    26   ar
    20    27    28   ar
    21    26    25   ar
    22    15    14   ar
    23    17    25    1
    24    17    18   ar
    25    25    24   ar
    26    28    36    1
    27    28    29   ar
    28     8     2    1
    29    36    37   ar
    30    42    39    1
    31    39    38   ar
    32    14     5    1
    33    14    13   ar
    34     2     3   ar
    35     5     4   ar
    36    18    13   ar
    37    13    20    1
    38    29    24   ar
    39    24    31    1
    40    20    21    1
    41    37    38   ar
    42    37    41    1
    43    38    46    1
    44    31    32    1
    45     3     4   ar
    46     3     7    1
    47     4    12    1
    48    46    45    3
    49    12    11    3
