@<TRIPOS>MOLECULE
mol_data/opt/b3lyp/geoms/mol2/6fd6fd-6fd.out
 35 37 0 0 0
SMALL
GASTEIGER

@<TRIPOS>ATOM
      1 C          -4.1517   -1.9175   -1.0016 C.ar    1  LIG1        0.2129
      2 C          -3.0003   -2.1756   -0.2351 C.ar    1  LIG1        0.0011
      3 C          -2.6082   -1.2152    0.6781 C.ar    1  LIG1       -0.0372
      4 C          -3.3388   -0.0187    0.7958 C.ar    1  LIG1        0.0781
      5 C          -4.4518    0.1608   -0.0581 C.ar    1  LIG1        0.0972
      6 N          -4.8458   -0.7877   -0.9156 N.ar    1  LIG1       -0.2116
      7 H          -1.7464   -1.3788    1.3161 H       1  LIG1        0.0633
      8 H          -2.4462   -3.1029   -0.3430 H       1  LIG1        0.0671
      9 O          -4.6433   -2.8031   -1.8923 O.3     1  LIG1       -0.4924
     10 H          -4.0932   -3.5983   -1.9026 H       1  LIG1        0.2937
     11 N          -2.6918    1.6528    2.6685 N.1     1  LIG1       -0.1908
     12 C          -2.9828    0.9219    1.8113 C.1     1  LIG1        0.1013
     13 C          -4.8011    2.7000   -0.0774 C.ar    1  LIG1        0.2224
     14 C          -5.3053    1.3777   -0.0331 C.ar    1  LIG1        0.0643
     15 C          -6.6872    1.2567   -0.0553 C.ar    1  LIG1       -0.0279
     16 C          -7.5130    2.3958   -0.0219 C.ar    1  LIG1        0.0787
     17 C          -6.8980    3.6694    0.0402 C.ar    1  LIG1        0.0973
     18 N          -5.5638    3.7864   -0.0193 N.ar    1  LIG1       -0.2110
     19 H          -7.1301    0.2687   -0.1097 H       1  LIG1        0.0639
     20 O          -3.4817    2.8852   -0.2158 O.3     1  LIG1       -0.4919
     21 H          -3.3190    3.8418   -0.1658 H       1  LIG1        0.2937
     22 N         -10.0814    2.0751   -0.2022 N.1     1  LIG1       -0.1908
     23 C          -8.9316    2.2335   -0.1193 C.1     1  LIG1        0.1013
     24 C          -8.6563    5.2237    1.0828 C.ar    1  LIG1        0.2218
     25 C          -7.6552    4.9461    0.1133 C.ar    1  LIG1        0.0643
     26 C          -7.3225    5.9756   -0.7646 C.ar    1  LIG1       -0.0285
     27 C          -8.0102    7.1937   -0.7124 C.ar    1  LIG1        0.0707
     28 C          -9.0175    7.3292    0.2592 C.ar    1  LIG1        0.0488
     29 N          -9.3178    6.3791    1.1349 N.ar    1  LIG1       -0.2196
     30 H          -6.5339    5.8198   -1.4919 H       1  LIG1        0.0639
     31 H          -9.5904    8.2511    0.3245 H       1  LIG1        0.0844
     32 O          -9.0000    4.3670    2.0606 O.3     1  LIG1       -0.4919
     33 H          -8.4817    3.5528    2.0030 H       1  LIG1        0.2937
     34 N          -7.4624    9.1330   -2.3442 N.1     1  LIG1       -0.1908
     35 C          -7.7075    8.2615   -1.6133 C.1     1  LIG1        0.1007
@<TRIPOS>BOND
     1    34    35    3
     2    10     9    1
     3     9     1    1
     4    35    27    1
     5    30    26    1
     6     1     6   ar
     7     1     2   ar
     8     6     5   ar
     9    26    27   ar
    10    26    25   ar
    11    27    28   ar
    12     8     2    1
    13     2     3   ar
    14    20    21    1
    15    20    13    1
    16    22    23    3
    17    23    16    1
    18    19    15    1
    19    13    14   ar
    20    13    18   ar
    21     5    14    1
    22     5     4   ar
    23    15    14   ar
    24    15    16   ar
    25    16    17   ar
    26    18    17   ar
    27    17    25    1
    28    25    24   ar
    29    28    31    1
    30    28    29   ar
    31     3     4   ar
    32     3     7    1
    33     4    12    1
    34    24    29   ar
    35    24    32    1
    36    12    11    3
    37    33    32    1
