@<TRIPOS>MOLECULE
mol_data/opt/b3lyp/geoms/mol2/6fd6fd6fd6fd-.out
 46 49 0 0 0
SMALL
GASTEIGER

@<TRIPOS>ATOM
      1 C          -4.5067   -2.2529   -0.2763 C.ar    1  LIG1        0.2129
      2 C          -3.1341   -2.4127   -0.0357 C.ar    1  LIG1        0.0011
      3 C          -2.4075   -1.2705    0.2407 C.ar    1  LIG1       -0.0372
      4 C          -3.0229   -0.0043    0.2582 C.ar    1  LIG1        0.0781
      5 C          -4.4102    0.0764   -0.0381 C.ar    1  LIG1        0.0972
      6 N          -5.0955   -1.0627   -0.2795 N.ar    1  LIG1       -0.2116
      7 H          -1.3472   -1.3376    0.4592 H       1  LIG1        0.0633
      8 H          -2.6649   -3.3906   -0.0495 H       1  LIG1        0.0671
      9 O          -5.3420   -3.2771   -0.5237 O.3     1  LIG1       -0.4924
     10 H          -4.8607   -4.1157   -0.5005 H       1  LIG1        0.2937
     11 N          -1.4758    1.9629    0.9315 N.1     1  LIG1       -0.1908
     12 C          -2.1988    1.1049    0.6212 C.1     1  LIG1        0.1013
     13 C          -6.6519    1.2608   -0.1118 C.ar    1  LIG1        0.2224
     14 C          -5.2175    1.3115   -0.0930 C.ar    1  LIG1        0.0643
     15 C          -4.6701    2.5937   -0.1727 C.ar    1  LIG1       -0.0279
     16 C          -5.4607    3.7493   -0.1838 C.ar    1  LIG1        0.0787
     17 C          -6.8726    3.6058   -0.0727 C.ar    1  LIG1        0.0973
     18 N          -7.3949    2.3667   -0.0681 N.ar    1  LIG1       -0.2110
     19 H          -3.5999    2.7291   -0.2474 H       1  LIG1        0.0639
     20 O          -7.3433    0.1380   -0.1674 O.3     1  LIG1       -0.4919
     21 H          -6.6779   -0.6075   -0.2634 H       1  LIG1        0.2937
     22 N          -4.1861    5.9799   -0.5325 N.1     1  LIG1       -0.1908
     23 C          -4.7839    4.9951   -0.3663 C.1     1  LIG1        0.1013
     24 C          -9.2539    4.4749   -0.2165 C.ar    1  LIG1        0.2224
     25 C          -7.8503    4.7044    0.0111 C.ar    1  LIG1        0.0643
     26 C          -7.4980    6.0125    0.3575 C.ar    1  LIG1       -0.0279
     27 C          -8.4459    7.0390    0.3828 C.ar    1  LIG1        0.0787
     28 C          -9.7762    6.7222    0.0042 C.ar    1  LIG1        0.0973
     29 N         -10.1451    5.4691   -0.2524 N.ar    1  LIG1       -0.2110
     30 H          -6.4817    6.2556    0.6361 H       1  LIG1        0.0639
     31 O          -9.7622    3.2714   -0.4149 O.3     1  LIG1       -0.4919
     32 H          -9.0145    2.6143   -0.2981 H       1  LIG1        0.2937
     33 N          -7.7433    9.3611    1.2972 N.1     1  LIG1       -0.1908
     34 C          -8.0644    8.3302    0.8640 C.1     1  LIG1        0.1013
     35 C         -10.7401    8.9837   -0.7069 C.ar    1  LIG1        0.2218
     36 C         -10.8665    7.7278   -0.0668 C.ar    1  LIG1        0.0643
     37 C         -12.1197    7.4200    0.4544 C.ar    1  LIG1       -0.0285
     38 C         -13.1574    8.3635    0.3990 C.ar    1  LIG1        0.0707
     39 C         -12.8885    9.5997   -0.2083 C.ar    1  LIG1        0.0488
     40 N         -11.7132    9.8931   -0.7595 N.ar    1  LIG1       -0.2196
     41 H         -12.2787    6.4479    0.9066 H       1  LIG1        0.0639
     42 H         -13.6561   10.3677   -0.2542 H       1  LIG1        0.0844
     43 O          -9.5957    9.2788   -1.3401 O.3     1  LIG1       -0.4919
     44 H          -9.6796   10.1906   -1.6646 H       1  LIG1        0.2937
     45 N         -15.5014    7.8749    1.3955 N.1     1  LIG1       -0.1908
     46 C         -14.4483    8.0891    0.9496 C.1     1  LIG1        0.1007
@<TRIPOS>BOND
     1    44    43    1
     2    43    35    1
     3    40    35   ar
     4    40    39   ar
     5    35    36   ar
     6    22    23    3
     7     9    10    1
     8     9     1    1
     9    31    32    1
    10    31    24    1
    11    23    16    1
    12     6     1   ar
    13     6     5   ar
    14     1     2   ar
    15    21    20    1
    16    42    39    1
    17    29    24   ar
    18    29    28   ar
    19    19    15    1
    20    24    25   ar
    21    39    38   ar
    22    16    15   ar
    23    16    17   ar
    24    15    14   ar
    25    20    13    1
    26    13    14   ar
    27    13    18   ar
    28    14     5    1
    29    17    18   ar
    30    17    25    1
    31    36    28    1
    32    36    37   ar
    33     8     2    1
    34     5     4   ar
    35     2     3   ar
    36    28    27   ar
    37    25    26   ar
    38     3     4   ar
    39     3     7    1
    40     4    12    1
    41    26    27   ar
    42    26    30    1
    43    27    34    1
    44    38    37   ar
    45    38    46    1
    46    37    41    1
    47    12    11    3
    48    34    33    3
    49    46    45    3
