@<TRIPOS>MOLECULE
mol_data/opt/b3lyp/geoms/mol2/6fd6fd6fd-6fd-.out
 46 49 0 0 0
SMALL
GASTEIGER

@<TRIPOS>ATOM
      1 C          -4.3053   -2.1693   -0.5754 C.ar    1  LIG1        0.2129
      2 C          -2.9449   -2.2860   -0.2543 C.ar    1  LIG1        0.0011
      3 C          -2.2990   -1.1400    0.1686 C.ar    1  LIG1       -0.0372
      4 C          -2.9911    0.0797    0.2903 C.ar    1  LIG1        0.0781
      5 C          -4.3811    0.1009   -0.0074 C.ar    1  LIG1        0.0972
      6 N          -4.9744   -1.0302   -0.4458 N.ar    1  LIG1       -0.2116
      7 H          -1.2400   -1.1645    0.4023 H       1  LIG1        0.0633
      8 H          -2.4167   -3.2286   -0.3510 H       1  LIG1        0.0671
      9 O          -5.0479   -3.1920   -1.0378 O.3     1  LIG1       -0.4924
     10 H          -4.5046   -3.9878   -1.1199 H       1  LIG1        0.2937
     11 N          -1.5250    2.1113    0.9541 N.1     1  LIG1       -0.1908
     12 C          -2.2171    1.2228    0.6597 C.1     1  LIG1        0.1013
     13 C          -6.5518    1.3085   -0.5540 C.ar    1  LIG1        0.2224
     14 C          -5.2681    1.2775    0.0958 C.ar    1  LIG1        0.0643
     15 C          -4.9474    2.4066    0.8535 C.ar    1  LIG1       -0.0279
     16 C          -5.7851    3.5260    0.8857 C.ar    1  LIG1        0.0787
     17 C          -6.9582    3.4974    0.0903 C.ar    1  LIG1        0.0973
     18 N          -7.3197    2.4000   -0.5720 N.ar    1  LIG1       -0.2110
     19 H          -4.0482    2.4332    1.4535 H       1  LIG1        0.0639
     20 O          -7.0644    0.2654   -1.1874 O.3     1  LIG1       -0.4919
     21 H          -6.4452   -0.5030   -1.0372 H       1  LIG1        0.2937
     22 N          -5.2284    5.4521    2.5294 N.1     1  LIG1       -0.1908
     23 C          -5.4758    4.6044    1.7719 C.1     1  LIG1        0.1013
     24 C          -7.5082    5.9774   -0.2397 C.ar    1  LIG1        0.2224
     25 C          -7.9028    4.6374   -0.0126 C.ar    1  LIG1        0.0643
     26 C          -9.2722    4.4068    0.0363 C.ar    1  LIG1       -0.0279
     27 C         -10.1840    5.4712   -0.0526 C.ar    1  LIG1        0.0787
     28 C          -9.6706    6.7802   -0.2007 C.ar    1  LIG1        0.0973
     29 N          -8.3558    6.9980   -0.3073 N.ar    1  LIG1       -0.2110
     30 H          -9.6310    3.3894    0.1419 H       1  LIG1        0.0639
     31 O          -6.2104    6.2489   -0.4356 O.3     1  LIG1       -0.4919
     32 H          -6.1343    7.2130   -0.5281 H       1  LIG1        0.2937
     33 N         -12.7266    4.9640    0.0306 N.1     1  LIG1       -0.1908
     34 C         -11.5884    5.2032   -0.0091 C.1     1  LIG1        0.1013
     35 C         -10.4526    8.9454   -1.2687 C.ar    1  LIG1        0.2218
     36 C         -10.5489    7.9786   -0.2370 C.ar    1  LIG1        0.0643
     37 C         -11.4938    8.2191    0.7539 C.ar    1  LIG1       -0.0285
     38 C         -12.2800    9.3838    0.7142 C.ar    1  LIG1        0.0707
     39 C         -12.0795   10.2731   -0.3497 C.ar    1  LIG1        0.0488
     40 N         -11.1918   10.0529   -1.3182 N.ar    1  LIG1       -0.2196
     41 H         -11.6188    7.5164    1.5700 H       1  LIG1        0.0639
     42 H         -12.6590   11.1900   -0.4160 H       1  LIG1        0.0844
     43 O          -9.5980    8.7446   -2.2831 O.3     1  LIG1       -0.4919
     44 H          -9.7118    9.5011   -2.8824 H       1  LIG1        0.2937
     45 N         -14.0268    9.9166    2.5550 N.1     1  LIG1       -0.1908
     46 C         -13.2440    9.6703    1.7304 C.1     1  LIG1        0.1007
@<TRIPOS>BOND
     1    44    43    1
     2    43    35    1
     3    40    35   ar
     4    40    39   ar
     5    35    36   ar
     6    20    21    1
     7    20    13    1
     8    10     9    1
     9     9     1    1
    10     1     6   ar
    11     1     2   ar
    12    18    13   ar
    13    18    17   ar
    14    13    14   ar
    15    32    31    1
    16     6     5   ar
    17    31    24    1
    18    42    39    1
    19     8     2    1
    20    39    38   ar
    21    29    24   ar
    22    29    28   ar
    23     2     3   ar
    24    24    25   ar
    25    36    28    1
    26    36    37   ar
    27    28    27   ar
    28    27    34    1
    29    27    26   ar
    30    25    26   ar
    31    25    17    1
    32    34    33    3
    33     5    14    1
    34     5     4   ar
    35    26    30    1
    36    17    16   ar
    37    14    15   ar
    38     3     4   ar
    39     3     7    1
    40     4    12    1
    41    12    11    3
    42    38    37   ar
    43    38    46    1
    44    37    41    1
    45    15    16   ar
    46    15    19    1
    47    16    23    1
    48    46    45    3
    49    23    22    3
