@<TRIPOS>MOLECULE
mol_data/opt/b3lyp/geoms/mol2/6fd6fd6fd-6fd.out
 46 49 0 0 0
SMALL
GASTEIGER

@<TRIPOS>ATOM
      1 C          -4.4534   -2.2597    0.0735 C.ar    1  LIG1        0.2129
      2 C          -3.0587   -2.3623    0.1827 C.ar    1  LIG1        0.0011
      3 C          -2.3453   -1.1812    0.2570 C.ar    1  LIG1       -0.0372
      4 C          -2.9981    0.0648    0.1997 C.ar    1  LIG1        0.0781
      5 C          -4.4096    0.0805    0.0367 C.ar    1  LIG1        0.0972
      6 N          -5.0792   -1.0910   -0.0018 N.ar    1  LIG1       -0.2116
      7 H          -1.2669   -1.2008    0.3725 H       1  LIG1        0.0633
      8 H          -2.5613   -3.3253    0.2267 H       1  LIG1        0.0671
      9 O          -5.2746   -3.3245    0.0343 O.3     1  LIG1       -0.4924
     10 H          -4.7639   -4.1430    0.1026 H       1  LIG1        0.2937
     11 N          -1.4645    2.1306    0.5132 N.1     1  LIG1       -0.1908
     12 C          -2.1833    1.2272    0.3638 C.1     1  LIG1        0.1013
     13 C          -6.6744    1.2336    0.1290 C.ar    1  LIG1        0.2224
     14 C          -5.2513    1.2901   -0.0770 C.ar    1  LIG1        0.0643
     15 C          -4.7395    2.5411   -0.4284 C.ar    1  LIG1       -0.0279
     16 C          -5.5556    3.6766   -0.4735 C.ar    1  LIG1        0.0787
     17 C          -6.9168    3.5250   -0.1119 C.ar    1  LIG1        0.0973
     18 N          -7.4393    2.3278    0.1462 N.ar    1  LIG1       -0.2110
     19 H          -3.6978    2.6578   -0.6947 H       1  LIG1        0.0639
     20 O          -7.3305    0.1012    0.3233 O.3     1  LIG1       -0.4919
     21 H          -6.6746   -0.6425    0.2051 H       1  LIG1        0.2937
     22 N          -4.5748    5.8948   -1.3892 N.1     1  LIG1       -0.1908
     23 C          -5.0168    4.9094   -0.9566 C.1     1  LIG1        0.1013
     24 C          -7.6260    5.8917    0.5764 C.ar    1  LIG1        0.2224
     25 C          -7.8811    4.6536   -0.0620 C.ar    1  LIG1        0.0643
     26 C          -9.1463    4.5032   -0.6121 C.ar    1  LIG1       -0.0279
     27 C         -10.0797    5.5551   -0.5758 C.ar    1  LIG1        0.0787
     28 C          -9.7107    6.7586    0.0719 C.ar    1  LIG1        0.0973
     29 N          -8.4988    6.8932    0.6290 N.ar    1  LIG1       -0.2110
     30 H          -9.4043    3.5664   -1.0926 H       1  LIG1        0.0639
     31 O          -6.4610    6.0642    1.2118 O.3     1  LIG1       -0.4919
     32 H          -6.4486    6.9750    1.5502 H       1  LIG1        0.2937
     33 N         -12.3338    5.2599   -1.8262 N.1     1  LIG1       -0.1908
     34 C         -11.3275    5.4048   -1.2603 C.1     1  LIG1        0.1013
     35 C         -11.9164    7.9274    0.6763 C.ar    1  LIG1        0.2218
     36 C         -10.5946    7.9512    0.1564 C.ar    1  LIG1        0.0643
     37 C         -10.0827    9.1927   -0.2154 C.ar    1  LIG1       -0.0285
     38 C         -10.8852   10.3369   -0.1312 C.ar    1  LIG1        0.0707
     39 C         -12.1950   10.1767    0.3536 C.ar    1  LIG1        0.0488
     40 N         -12.6861    9.0120    0.7564 N.ar    1  LIG1       -0.2196
     41 H          -9.0627    9.2616   -0.5767 H       1  LIG1        0.0639
     42 H         -12.8592   11.0351    0.4208 H       1  LIG1        0.0844
     43 O         -12.4988    6.8222    1.1751 O.3     1  LIG1       -0.4919
     44 H         -11.9083    6.0595    1.1075 H       1  LIG1        0.2937
     45 N         -10.0105   12.6731   -0.8386 N.1     1  LIG1       -0.1908
     46 C         -10.3996   11.6229   -0.5233 C.1     1  LIG1        0.1007
@<TRIPOS>BOND
     1    33    34    3
     2    22    23    3
     3    34    27    1
     4    30    26    1
     5    23    16    1
     6    45    46    3
     7    19    15    1
     8    26    27   ar
     9    26    25   ar
    10    41    37    1
    11    27    28   ar
    12    46    38    1
    13    16    15   ar
    14    16    17   ar
    15    15    14   ar
    16    37    38   ar
    17    37    36   ar
    18    38    39   ar
    19    17    25    1
    20    17    18   ar
    21    14     5    1
    22    14    13   ar
    23    25    24   ar
    24     6     5   ar
    25     6     1   ar
    26     9     1    1
    27     9    10    1
    28     5     4   ar
    29    28    36    1
    30    28    29   ar
    31     1     2   ar
    32    13    18   ar
    33    13    20    1
    34    36    35   ar
    35     2     8    1
    36     2     3   ar
    37     4     3   ar
    38     4    12    1
    39    21    20    1
    40     3     7    1
    41    39    42    1
    42    39    40   ar
    43    12    11    3
    44    24    29   ar
    45    24    31    1
    46    35    40   ar
    47    35    43    1
    48    44    43    1
    49    31    32    1
