@<TRIPOS>MOLECULE
mol_data/opt/b3lyp/geoms/mol2/6fd6ed13ei-12ai6ed12fd12ah4ld.out
 93 100 0 0 0
SMALL
GASTEIGER

@<TRIPOS>ATOM
      1 C          -5.2020   -2.6616   -0.0338 C.ar    1  LIG1        0.2129
      2 C          -3.8438   -2.8170    0.2960 C.ar    1  LIG1        0.0011
      3 C          -3.1145   -1.6720    0.5551 C.ar    1  LIG1       -0.0372
      4 C          -3.7391   -0.4145    0.4734 C.ar    1  LIG1        0.0780
      5 C          -5.1089   -0.3707    0.1152 C.ar    1  LIG1        0.0948
      6 N          -5.8086   -1.4864   -0.1214 N.ar    1  LIG1       -0.2116
      7 H          -2.0665   -1.7328    0.8279 H       1  LIG1        0.0633
      8 H          -3.3820   -3.7981    0.3506 H       1  LIG1        0.0671
      9 O          -5.9993   -3.7257   -0.2988 O.3     1  LIG1       -0.4924
     10 H          -5.4833   -4.5404   -0.2311 H       1  LIG1        0.2937
     11 N          -2.3388    1.6915    1.0483 N.1     1  LIG1       -0.1908
     12 C          -2.9850    0.7601    0.7846 C.1     1  LIG1        0.1013
     13 C          -7.0752    1.1870    0.5820 C.ar    1  LIG1        0.1231
     14 C          -5.8290    0.9201   -0.0408 C.ar    1  LIG1        0.0368
     15 C          -5.3139    1.9180   -0.8643 C.ar    1  LIG1       -0.0303
     16 C          -5.9904    3.1309   -1.0401 C.ar    1  LIG1        0.0798
     17 C          -7.1863    3.3444   -0.3038 C.ar    1  LIG1        0.1070
     18 N          -7.7074    2.3605    0.4544 N.ar    1  LIG1       -0.2350
     19 H          -4.3979    1.7485   -1.4190 H       1  LIG1        0.0638
     20 C          -7.7074    0.2433    1.4571 C.1     1  LIG1       -0.0491
     21 C          -8.2542   -0.5017    2.2367 C.1     1  LIG1       -0.1124
     22 H          -8.7348   -1.1759    2.9078 H       1  LIG1        0.1232
     23 N          -5.0922    4.6675   -2.9227 N.1     1  LIG1       -0.1908
     24 C          -5.5080    4.0231   -2.0476 C.1     1  LIG1        0.1014
     25 C          -7.9641    4.5758   -0.3206 C.ar    1  LIG1        0.0826
     26 C          -7.6343    5.9478   -0.3839 C.ar    1  LIG1        0.0550
     27 C          -8.8462    6.6899   -0.2538 C.ar    1  LIG1       -0.0061
     28 C          -9.8727    5.7545   -0.1075 C.ar    1  LIG1        0.0867
     29 N          -9.3160    4.5020   -0.1367 N.ar    1  LIG1       -0.3493
     30 H          -9.8255    3.6354   -0.0168 H       1  LIG1        0.1661
     31 C          -6.3426    6.5273   -0.4347 C.1     1  LIG1       -0.0672
     32 C          -5.2580    7.0649   -0.4460 C.1     1  LIG1       -0.1138
     33 H          -4.2884    7.5041   -0.4877 H       1  LIG1        0.1232
     34 C          -8.9759    8.1810   -0.2590 C.3     1  LIG1       -0.0364
     35 H          -9.3194    8.5639    0.7100 H       1  LIG1        0.0279
     36 H          -9.6912    8.5201   -1.0174 H       1  LIG1        0.0279
     37 H          -8.0101    8.6432   -0.4747 H       1  LIG1        0.0279
     38 C         -11.2944    5.8938    0.0458 C.ar    1  LIG1        0.1523
     39 C         -12.1858    6.9236    0.2400 C.ar    1  LIG1       -0.0109
     40 C         -13.4849    6.3423    0.3537 C.ar    1  LIG1       -0.0040
     41 C         -13.3060    4.9760    0.2185 C.ar    1  LIG1        0.1413
     42 O         -11.9751    4.7150    0.0270 O.2     1  LIG1       -0.4530
     43 H         -11.9468    7.9738    0.3180 H       1  LIG1        0.0659
     44 C         -14.7570    7.0983    0.6037 C.3     1  LIG1       -0.0361
     45 H         -15.4484    6.5344    1.2367 H       1  LIG1        0.0279
     46 H         -15.2815    7.3376   -0.3297 H       1  LIG1        0.0279
     47 H         -14.5451    8.0462    1.1056 H       1  LIG1        0.0279
     48 C         -13.7180    2.4928    0.5090 C.ar    1  LIG1        0.1246
     49 C         -14.1779    3.8170    0.2202 C.ar    1  LIG1        0.0526
     50 C         -15.5301    3.9311   -0.1279 C.ar    1  LIG1       -0.0288
     51 C         -16.3670    2.8123   -0.2023 C.ar    1  LIG1        0.0816
     52 C         -15.8107    1.5414    0.1020 C.ar    1  LIG1        0.1284
     53 N         -14.5221    1.4269    0.4489 N.ar    1  LIG1       -0.2332
     54 H         -15.9357    4.8949   -0.4091 H       1  LIG1        0.0639
     55 C         -12.3735    2.1762    0.8978 C.1     1  LIG1       -0.0491
     56 C         -11.2698    1.8079    1.2329 C.1     1  LIG1       -0.1124
     57 H         -10.2841    1.4961    1.5064 H       1  LIG1        0.1232
     58 N         -18.7559    3.1986   -1.1335 N.1     1  LIG1       -0.1908
     59 C         -17.6965    2.9980   -0.6962 C.1     1  LIG1        0.1014
     60 C         -16.5098    0.2681    0.0047 C.ar    1  LIG1        0.1977
     61 C         -17.7975   -0.2082    0.1458 C.ar    1  LIG1        0.1827
     62 C         -17.7426   -1.6337   -0.0396 C.ar    1  LIG1        0.1425
     63 C         -16.4045   -1.9372   -0.2659 C.ar    1  LIG1        0.1917
     64 O         -15.6798   -0.8093   -0.2329 O.2     1  LIG1       -0.4450
     65 O         -18.8759    0.5257    0.4691 O.3     1  LIG1       -0.5023
     66 H         -19.6782   -0.0113    0.3985 H       1  LIG1        0.2923
     67 N         -19.7738   -3.2158    0.0962 N.1     1  LIG1       -0.1906
     68 C         -18.8421   -2.5178    0.0329 C.1     1  LIG1        0.1068
     69 C         -15.6779   -3.1463   -0.5094 C.ar    1  LIG1        0.1738
     70 C         -16.0234   -4.4610   -0.7048 C.ar    1  LIG1        0.0087
     71 C         -14.8034   -5.1818   -0.8921 C.ar    1  LIG1        0.0718
     72 C         -13.7720   -4.2462   -0.7855 C.ar    1  LIG1        0.1599
     73 O         -14.3310   -3.0082   -0.5503 O.2     1  LIG1       -0.4497
     74 H         -17.0231   -4.8714   -0.7175 H       1  LIG1        0.0675
     75 N         -14.7363   -6.5469   -1.0970 N.pl3   1  LIG1       -0.3550
     76 H         -15.5109   -6.9407   -1.6112 H       1  LIG1        0.1424
     77 H         -13.8269   -6.8940   -1.3701 H       1  LIG1        0.1424
     78 C         -11.4680   -5.3263   -0.8017 C.ar    1  LIG1        0.1309
     79 C         -10.0832   -5.2004   -0.9221 C.ar    1  LIG1       -0.0180
     80 C         -12.3197   -4.2046   -0.9117 C.ar    1  LIG1        0.0619
     81 C          -9.4897   -3.9621   -1.1370 C.ar    1  LIG1       -0.0409
     82 H          -9.4819   -6.0998   -0.8361 H       1  LIG1        0.0655
     83 C         -11.7047   -2.9542   -1.1326 C.ar    1  LIG1       -0.0301
     84 C         -10.3163   -2.8299   -1.2404 C.ar    1  LIG1        0.0527
     85 H         -12.3238   -2.0700   -1.2129 H       1  LIG1        0.0639
     86 H          -8.4126   -3.8588   -1.2055 H       1  LIG1        0.0631
     87 O         -11.9892   -6.5885   -0.5789 O.3     1  LIG1       -0.4944
     88 C         -12.1140   -6.9362    0.8100 C.3     1  LIG1        0.0788
     89 H         -12.5435   -7.9382    0.8391 H       1  LIG1        0.0660
     90 H         -11.1314   -6.9385    1.2954 H       1  LIG1        0.0660
     91 H         -12.7792   -6.2401    1.3314 H       1  LIG1        0.0660
     92 N          -9.2848   -0.4823   -1.6637 N.1     1  LIG1       -0.1909
     93 C          -9.7429   -1.5339   -1.4706 C.1     1  LIG1        0.0992
@<TRIPOS>BOND
     1    23    24    3
     2    24    16    1
     3    92    93    3
     4    76    75    1
     5    93    84    1
     6    19    15    1
     7    77    75    1
     8    84    81   ar
     9    84    83   ar
    10    85    83    1
    11    86    81    1
    12    81    79   ar
    13    58    59    3
    14    83    80   ar
    15    75    71    1
    16    16    15   ar
    17    16    17   ar
    18    36    34    1
    19    79    82    1
    20    79    78   ar
    21    80    78   ar
    22    80    72    1
    23    71    72   ar
    24    71    70   ar
    25    15    14   ar
    26    78    87    1
    27    72    73   ar
    28    74    70    1
    29    70    69   ar
    30    59    51    1
    31    87    88    1
    32    73    69   ar
    33    69    63    1
    34    33    32    1
    35    37    34    1
    36    32    31    3
    37    31    26    1
    38    54    50    1
    39    26    25   ar
    40    26    27   ar
    41    46    44    1
    42    25    17    1
    43    25    29   ar
    44    17    18   ar
    45     9    10    1
    46     9     1    1
    47    63    64   ar
    48    63    62   ar
    49    34    27    1
    50    34    35    1
    51    27    28   ar
    52    64    60   ar
    53    51    50   ar
    54    51    52   ar
    55    29    28   ar
    56    29    30    1
    57    50    49   ar
    58     6     1   ar
    59     6     5   ar
    60    28    38    1
    61    14     5    1
    62    14    13   ar
    63    62    68    1
    64    62    61   ar
    65     1     2   ar
    66    60    52    1
    67    60    61   ar
    68    42    38   ar
    69    42    41   ar
    70    68    67    3
    71    38    39   ar
    72    52    53   ar
    73     5     4   ar
    74    61    65    1
    75    41    49    1
    76    41    40   ar
    77    49    48   ar
    78    39    43    1
    79    39    40   ar
    80     2     8    1
    81     2     3   ar
    82    40    44    1
    83    66    65    1
    84    53    48   ar
    85    18    13   ar
    86     4     3   ar
    87     4    12    1
    88    48    55    1
    89     3     7    1
    90    13    20    1
    91    44    47    1
    92    44    45    1
    93    12    11    3
    94    88    89    1
    95    88    90    1
    96    88    91    1
    97    55    56    3
    98    56    57    1
    99    20    21    3
   100    21    22    1
