@<TRIPOS>MOLECULE
mol_data/opt/b3lyp/geoms/mol2/6fd6fd6fd.out
 35 37 0 0 0
SMALL
GASTEIGER

@<TRIPOS>ATOM
      1 C          -4.5274   -2.1783   -0.0003 C.ar    1  LIG1        0.2129
      2 C          -3.1321   -2.3132   -0.0003 C.ar    1  LIG1        0.0011
      3 C          -2.3921   -1.1467   -0.0003 C.ar    1  LIG1       -0.0372
      4 C          -3.0165    0.1155   -0.0003 C.ar    1  LIG1        0.0781
      5 C          -4.4382    0.1689   -0.0002 C.ar    1  LIG1        0.0972
      6 N          -5.1274   -0.9945   -0.0002 N.ar    1  LIG1       -0.2116
      7 H          -1.3083   -1.1889   -0.0003 H       1  LIG1        0.0633
      8 H          -2.6536   -3.2863   -0.0004 H       1  LIG1        0.0671
      9 O          -5.3762   -3.2213   -0.0003 O.3     1  LIG1       -0.4924
     10 H          -4.8839   -4.0539   -0.0003 H       1  LIG1        0.2937
     11 N          -1.3632    2.1107   -0.0002 N.1     1  LIG1       -0.1908
     12 C          -2.1408    1.2442   -0.0002 C.1     1  LIG1        0.1013
     13 C          -6.7130    1.2979   -0.0000 C.ar    1  LIG1        0.2224
     14 C          -5.2794    1.3838   -0.0002 C.ar    1  LIG1        0.0643
     15 C          -4.7754    2.6865   -0.0003 C.ar    1  LIG1       -0.0279
     16 C          -5.5948    3.8221   -0.0003 C.ar    1  LIG1        0.0787
     17 C          -7.0101    3.6451   -0.0001 C.ar    1  LIG1        0.0973
     18 N          -7.4832    2.3858    0.0000 N.ar    1  LIG1       -0.2110
     19 H          -3.7089    2.8609   -0.0005 H       1  LIG1        0.0639
     20 O          -7.3813    0.1612    0.0001 O.3     1  LIG1       -0.4919
     21 H          -6.6952   -0.5752    0.0001 H       1  LIG1        0.2937
     22 N          -4.2857    6.0599   -0.0006 N.1     1  LIG1       -0.1908
     23 C          -4.9091    5.0767   -0.0004 C.1     1  LIG1        0.1013
     24 C          -9.4500    4.3706    0.0002 C.ar    1  LIG1        0.2218
     25 C          -8.0417    4.7020   -0.0001 C.ar    1  LIG1        0.0643
     26 C          -7.7328    6.0691   -0.0003 C.ar    1  LIG1       -0.0285
     27 C          -8.7447    7.0311   -0.0003 C.ar    1  LIG1        0.0707
     28 C         -10.0787    6.5803    0.0000 C.ar    1  LIG1        0.0488
     29 N         -10.4155    5.3031    0.0003 N.ar    1  LIG1       -0.2196
     30 H          -6.7077    6.4094   -0.0006 H       1  LIG1        0.0639
     31 H         -10.8938    7.3011    0.0001 H       1  LIG1        0.0844
     32 O          -9.8976    3.1303    0.0005 O.3     1  LIG1       -0.4919
     33 H          -9.0913    2.5287    0.0005 H       1  LIG1        0.2937
     34 N          -8.2338    9.5733   -0.0007 N.1     1  LIG1       -0.1908
     35 C          -8.4503    8.4300   -0.0005 C.1     1  LIG1        0.1007
@<TRIPOS>BOND
     1    34    35    3
     2    30    26    1
     3    22    23    3
     4    35    27    1
     5    19    15    1
     6    23    16    1
     7     8     2    1
     8     7     3    1
     9     2     3   ar
    10     2     1   ar
    11    26    27   ar
    12    26    25   ar
    13    15    16   ar
    14    15    14   ar
    15     3     4   ar
    16    10     9    1
    17    16    17   ar
    18    27    28   ar
    19     1     9    1
    20     1     6   ar
    21     4    12    1
    22     4     5   ar
    23    12    11    3
    24     6     5   ar
    25     5    14    1
    26    14    13   ar
    27    17    25    1
    28    17    18   ar
    29    25    24   ar
    30    13    18   ar
    31    13    20    1
    32    28    31    1
    33    28    29   ar
    34    20    21    1
    35    24    29   ar
    36    24    32    1
    37    33    32    1
