@<TRIPOS>MOLECULE
mol_data/opt/b3lyp/geoms/mol2/6fd6fd-6fd-6fd-.out
 46 49 0 0 0
SMALL
GASTEIGER

@<TRIPOS>ATOM
      1 C          -4.1082   -2.0421   -0.9730 C.ar    1  LIG1        0.2129
      2 C          -2.9969   -2.3180   -0.1557 C.ar    1  LIG1        0.0011
      3 C          -2.6251   -1.3577    0.7662 C.ar    1  LIG1       -0.0372
      4 C          -3.3347   -0.1455    0.8431 C.ar    1  LIG1        0.0781
      5 C          -4.4059    0.0509   -0.0599 C.ar    1  LIG1        0.0972
      6 N          -4.7810   -0.8977   -0.9267 N.ar    1  LIG1       -0.2116
      7 H          -1.7958   -1.5337    1.4429 H       1  LIG1        0.0633
      8 H          -2.4584   -3.2576   -0.2321 H       1  LIG1        0.0671
      9 O          -4.5793   -2.9260   -1.8777 O.3     1  LIG1       -0.4924
     10 H          -4.0472   -3.7330   -1.8543 H       1  LIG1        0.2937
     11 N          -2.7248    1.5165    2.7367 N.1     1  LIG1       -0.1908
     12 C          -3.0011    0.7923    1.8689 C.1     1  LIG1        0.1013
     13 C          -4.7046    2.5952   -0.1088 C.ar    1  LIG1        0.2224
     14 C          -5.2350    1.2840   -0.0818 C.ar    1  LIG1        0.0643
     15 C          -6.6184    1.1867   -0.1569 C.ar    1  LIG1       -0.0279
     16 C          -7.4207    2.3398   -0.1743 C.ar    1  LIG1        0.0787
     17 C          -6.7810    3.5989   -0.1209 C.ar    1  LIG1        0.0973
     18 N          -5.4476    3.6961   -0.1067 N.ar    1  LIG1       -0.2110
     19 H          -7.0773    0.2058   -0.2057 H       1  LIG1        0.0639
     20 O          -3.3746    2.7576   -0.1719 O.3     1  LIG1       -0.4919
     21 H          -3.2067    3.7139   -0.1392 H       1  LIG1        0.2937
     22 N          -9.9971    2.0855   -0.3374 N.1     1  LIG1       -0.1908
     23 C          -8.8423    2.2103   -0.2646 C.1     1  LIG1        0.1013
     24 C          -7.2748    5.9486   -0.9529 C.ar    1  LIG1        0.2224
     25 C          -7.5425    4.8734   -0.0693 C.ar    1  LIG1        0.0643
     26 C          -8.5454    5.0892    0.8658 C.ar    1  LIG1       -0.0279
     27 C          -9.2255    6.3190    0.9236 C.ar    1  LIG1        0.0787
     28 C          -8.8729    7.3207   -0.0060 C.ar    1  LIG1        0.0973
     29 N          -7.9165    7.1107   -0.9187 N.ar    1  LIG1       -0.2110
     30 H          -8.7995    4.3139    1.5797 H       1  LIG1        0.0639
     31 O          -6.3512    5.7977   -1.9135 O.3     1  LIG1       -0.4919
     32 H          -6.3437    6.6323   -2.4115 H       1  LIG1        0.2937
     33 N         -11.0076    6.6876    2.7717 N.1     1  LIG1       -0.1908
     34 C         -10.2120    6.5316    1.9370 C.1     1  LIG1        0.1013
     35 C          -8.8109    9.8553   -0.0305 C.ar    1  LIG1        0.2218
     36 C          -9.5470    8.6447   -0.0430 C.ar    1  LIG1        0.0643
     37 C         -10.9308    8.7585   -0.1139 C.ar    1  LIG1       -0.0285
     38 C         -11.5321   10.0270   -0.1904 C.ar    1  LIG1        0.0707
     39 C         -10.6950   11.1504   -0.1862 C.ar    1  LIG1        0.0488
     40 N          -9.3682   11.0631   -0.1023 N.ar    1  LIG1       -0.2196
     41 H         -11.5515    7.8697   -0.1249 H       1  LIG1        0.0639
     42 H         -11.1166   12.1499   -0.2521 H       1  LIG1        0.0844
     43 O          -7.4750    9.8122    0.0898 O.3     1  LIG1       -0.4919
     44 H          -7.1779   10.7374    0.1067 H       1  LIG1        0.2937
     45 N         -14.1025   10.3143   -0.3762 N.1     1  LIG1       -0.1908
     46 C         -12.9506   10.1781   -0.2885 C.1     1  LIG1        0.1007
@<TRIPOS>BOND
     1    32    31    1
     2    31    24    1
     3     9    10    1
     4     9     1    1
     5     1     6   ar
     6     1     2   ar
     7    24    29   ar
     8    24    25   ar
     9     6     5   ar
    10    29    28   ar
    11    45    46    3
    12    22    23    3
    13    46    38    1
    14    23    16    1
    15    42    39    1
    16     8     2    1
    17    19    15    1
    18    38    39   ar
    19    38    37   ar
    20    39    40   ar
    21    16    15   ar
    22    16    17   ar
    23    20    21    1
    24    20    13    1
    25    15    14   ar
    26     2     3   ar
    27    41    37    1
    28    17    18   ar
    29    17    25    1
    30    37    36   ar
    31    13    18   ar
    32    13    14   ar
    33    40    35   ar
    34    14     5    1
    35    25    26   ar
    36     5     4   ar
    37    36    35   ar
    38    36    28    1
    39    35    43    1
    40    28    27   ar
    41    43    44    1
    42     3     4   ar
    43     3     7    1
    44     4    12    1
    45    26    27   ar
    46    26    30    1
    47    27    34    1
    48    12    11    3
    49    34    33    3
