@<TRIPOS>MOLECULE
mol_data/opt/b3lyp/geoms/mol2/6fd6fd-4fd6fd.out
 47 50 0 0 0
SMALL
GASTEIGER

@<TRIPOS>ATOM
      1 C          -4.3319   -2.1864   -0.5449 C.ar    1  LIG1        0.2129
      2 C          -2.9764   -2.3015   -0.1867 C.ar    1  LIG1        0.0011
      3 C          -2.3386   -1.1685    0.2823 C.ar    1  LIG1       -0.0372
      4 C          -3.0378    0.0496    0.3614 C.ar    1  LIG1        0.0781
      5 C          -4.3843    0.0668   -0.0721 C.ar    1  LIG1        0.0972
      6 N          -5.0048   -1.0421   -0.4924 N.ar    1  LIG1       -0.2116
      7 H          -1.3032   -1.2106    0.6028 H       1  LIG1        0.0633
      8 H          -2.4513   -3.2490   -0.2588 H       1  LIG1        0.0671
      9 O          -5.0598   -3.2378   -0.9756 O.3     1  LIG1       -0.4924
     10 H          -4.5115   -4.0342   -0.9851 H       1  LIG1        0.2937
     11 N          -1.8497    2.0793    1.4516 N.1     1  LIG1       -0.1908
     12 C          -2.3936    1.1855    0.9426 C.1     1  LIG1        0.1013
     13 C          -4.8384    2.5399   -0.5624 C.ar    1  LIG1        0.2224
     14 C          -5.2342    1.2859   -0.0409 C.ar    1  LIG1        0.0643
     15 C          -6.5270    1.2151    0.4614 C.ar    1  LIG1       -0.0279
     16 C          -7.3429    2.3580    0.5055 C.ar    1  LIG1        0.0787
     17 C          -6.8211    3.5704    0.0037 C.ar    1  LIG1        0.0957
     18 N          -5.5956    3.6316   -0.5271 N.ar    1  LIG1       -0.2111
     19 H          -6.8989    0.2676    0.8341 H       1  LIG1        0.0639
     20 O          -3.6479    2.6435   -1.1713 O.3     1  LIG1       -0.4919
     21 H          -3.5352    3.5775   -1.4131 H       1  LIG1        0.2937
     22 N          -9.7057    2.2047    1.5651 N.1     1  LIG1       -0.1908
     23 C          -8.6479    2.2802    1.0861 C.1     1  LIG1        0.1013
     24 C          -7.1243    5.9918    0.6557 C.ar    1  LIG1        0.1267
     25 C          -7.8806    7.1690    0.6482 C.ar    1  LIG1       -0.0104
     26 C          -7.6123    4.8325    0.0133 C.ar    1  LIG1        0.0444
     27 C          -9.1187    7.2429    0.0056 C.ar    1  LIG1        0.0081
     28 H          -7.5078    8.0451    1.1724 H       1  LIG1        0.0661
     29 C          -8.8476    4.9014   -0.6242 C.ar    1  LIG1       -0.0310
     30 C          -9.6039    6.0854   -0.6502 C.ar    1  LIG1        0.0605
     31 H          -9.2332    4.0268   -1.1359 H       1  LIG1        0.0638
     32 O          -5.9392    5.9049    1.2995 O.3     1  LIG1       -0.5061
     33 H          -5.7276    6.7494    1.7206 H       1  LIG1        0.2922
     34 N         -11.8165    6.1167   -2.0083 N.1     1  LIG1       -0.1908
     35 C         -10.8283    6.1108   -1.3943 C.1     1  LIG1        0.0998
     36 C         -11.1451    8.6546    0.6436 C.ar    1  LIG1        0.2203
     37 C          -9.8743    8.5257    0.0185 C.ar    1  LIG1        0.0461
     38 C          -9.3262    9.6753   -0.5400 C.ar    1  LIG1       -0.0300
     39 C         -10.0331   10.8867   -0.4927 C.ar    1  LIG1        0.0706
     40 C         -11.2880   10.8815    0.1375 C.ar    1  LIG1        0.0488
     41 N         -11.8217    9.8000    0.6939 N.ar    1  LIG1       -0.2197
     42 H          -8.3568    9.6305   -1.0255 H       1  LIG1        0.0639
     43 H         -11.8735   11.7962    0.1913 H       1  LIG1        0.0844
     44 O         -11.7569    7.6321    1.2651 O.3     1  LIG1       -0.4920
     45 H         -11.2281    6.8242    1.1934 H       1  LIG1        0.2937
     46 N          -9.0585   13.0588   -1.5195 N.1     1  LIG1       -0.1908
     47 C          -9.4976   12.0832   -1.0618 C.1     1  LIG1        0.1007
@<TRIPOS>BOND
     1    34    35    3
     2    46    47    3
     3    21    20    1
     4    35    30    1
     5    20    13    1
     6    31    29    1
     7    47    39    1
     8    42    38    1
     9    10     9    1
    10     9     1    1
    11    30    29   ar
    12    30    27   ar
    13    29    26   ar
    14    13    18   ar
    15    13    14   ar
    16     1     6   ar
    17     1     2   ar
    18    38    39   ar
    19    38    37   ar
    20    18    17   ar
    21    39    40   ar
    22     6     5   ar
    23     8     2    1
    24     2     3   ar
    25     5    14    1
    26     5     4   ar
    27    14    15   ar
    28    17    26    1
    29    17    16   ar
    30    27    37    1
    31    27    25   ar
    32    26    24   ar
    33    37    36   ar
    34    40    43    1
    35    40    41   ar
    36     3     4   ar
    37     3     7    1
    38     4    12    1
    39    15    16   ar
    40    15    19    1
    41    16    23    1
    42    36    41   ar
    43    36    44    1
    44    25    24   ar
    45    25    28    1
    46    24    32    1
    47    12    11    3
    48    23    22    3
    49    45    44    1
    50    32    33    1
