@<TRIPOS>MOLECULE
mol_data/opt/b3lyp/geoms/mol2/6fd6fd-.out
 24 25 0 0 0
SMALL
GASTEIGER

@<TRIPOS>ATOM
      1 C          -4.4410   -2.0151   -0.5057 C.ar    1  LIG1        0.2129
      2 C          -3.1021   -2.1124   -0.0859 C.ar    1  LIG1        0.0011
      3 C          -2.4960   -0.9657    0.3917 C.ar    1  LIG1       -0.0372
      4 C          -3.2085    0.2468    0.4193 C.ar    1  LIG1        0.0781
      5 C          -4.5348    0.2453   -0.0736 C.ar    1  LIG1        0.0972
      6 N          -5.1255   -0.8768   -0.5027 N.ar    1  LIG1       -0.2116
      7 H          -1.4755   -0.9924    0.7586 H       1  LIG1        0.0633
      8 H          -2.5662   -3.0559   -0.1189 H       1  LIG1        0.0671
      9 O          -5.1394   -3.0810   -0.9520 O.3     1  LIG1       -0.4924
     10 H          -4.5827   -3.8710   -0.9234 H       1  LIG1        0.2937
     11 N          -2.0802    2.3009    1.5269 N.1     1  LIG1       -0.1908
     12 C          -2.5982    1.3970    1.0088 C.1     1  LIG1        0.1013
     13 C          -4.9833    2.7022   -0.6307 C.ar    1  LIG1        0.2218
     14 C          -5.3954    1.4574   -0.1000 C.ar    1  LIG1        0.0643
     15 C          -6.7092    1.3796    0.3501 C.ar    1  LIG1       -0.0285
     16 C          -7.5302    2.5186    0.3318 C.ar    1  LIG1        0.0707
     17 C          -6.9856    3.7117   -0.1659 C.ar    1  LIG1        0.0488
     18 N          -5.7472    3.7940   -0.6472 N.ar    1  LIG1       -0.2196
     19 H          -7.0877    0.4330    0.7184 H       1  LIG1        0.0639
     20 H          -7.5785    4.6224   -0.1811 H       1  LIG1        0.0844
     21 O          -3.7672    2.8014   -1.1895 O.3     1  LIG1       -0.4919
     22 H          -3.6523    3.7315   -1.4454 H       1  LIG1        0.2937
     23 N          -9.9731    2.4490    1.1997 N.1     1  LIG1       -0.1908
     24 C          -8.8768    2.4761    0.8109 C.1     1  LIG1        0.1007
@<TRIPOS>BOND
     1    22    21    1
     2    21    13    1
     3     9    10    1
     4     9     1    1
     5    18    13   ar
     6    18    17   ar
     7    13    14   ar
     8     1     6   ar
     9     1     2   ar
    10     6     5   ar
    11    20    17    1
    12    17    16   ar
    13     8     2    1
    14    14     5    1
    15    14    15   ar
    16     2     3   ar
    17     5     4   ar
    18    16    15   ar
    19    16    24    1
    20    15    19    1
    21     3     4   ar
    22     3     7    1
    23     4    12    1
    24    24    23    3
    25    12    11    3
