@<TRIPOS>MOLECULE
mol_data/opt/b3lyp/geoms/mol2/6fd6fd-6fd-6fd.out
 46 49 0 0 0
SMALL
GASTEIGER

@<TRIPOS>ATOM
      1 C          -4.3492   -2.1916   -0.5151 C.ar    1  LIG1        0.2129
      2 C          -2.9904   -2.3078   -0.1695 C.ar    1  LIG1        0.0011
      3 C          -2.3427   -1.1716    0.2773 C.ar    1  LIG1       -0.0372
      4 C          -3.0355    0.0508    0.3473 C.ar    1  LIG1        0.0781
      5 C          -4.3863    0.0679   -0.0719 C.ar    1  LIG1        0.0972
      6 N          -5.0164   -1.0435   -0.4707 N.ar    1  LIG1       -0.2116
      7 H          -1.3042   -1.2140    0.5874 H       1  LIG1        0.0633
      8 H          -2.4703   -3.2586   -0.2342 H       1  LIG1        0.0671
      9 O          -5.0862   -3.2451   -0.9241 O.3     1  LIG1       -0.4924
     10 H          -4.5418   -4.0442   -0.9290 H       1  LIG1        0.2937
     11 N          -1.8266    2.0900    1.3960 N.1     1  LIG1       -0.1908
     12 C          -2.3798    1.1916    0.9057 C.1     1  LIG1        0.1013
     13 C          -4.8384    2.5369   -0.5904 C.ar    1  LIG1        0.2224
     14 C          -5.2320    1.2903   -0.0484 C.ar    1  LIG1        0.0643
     15 C          -6.5201    1.2291    0.4664 C.ar    1  LIG1       -0.0279
     16 C          -7.3347    2.3734    0.5022 C.ar    1  LIG1        0.0787
     17 C          -6.8154    3.5780   -0.0223 C.ar    1  LIG1        0.0973
     18 N          -5.5945    3.6293   -0.5645 N.ar    1  LIG1       -0.2110
     19 H          -6.8901    0.2875    0.8555 H       1  LIG1        0.0639
     20 O          -3.6531    2.6299   -1.2093 O.3     1  LIG1       -0.4919
     21 H          -3.5365    3.5610   -1.4611 H       1  LIG1        0.2937
     22 N          -9.6912    2.2366    1.5776 N.1     1  LIG1       -0.1908
     23 C          -8.6347    2.3027    1.0940 C.1     1  LIG1        0.1013
     24 C          -7.0751    6.0526    0.4914 C.ar    1  LIG1        0.2224
     25 C          -7.5999    4.8403   -0.0249 C.ar    1  LIG1        0.0643
     26 C          -8.8790    4.9087   -0.5549 C.ar    1  LIG1       -0.0279
     27 C          -9.5955    6.1218   -0.5633 C.ar    1  LIG1        0.0787
     28 C          -8.9912    7.2620    0.0140 C.ar    1  LIG1        0.0973
     29 N          -7.7472    7.1989    0.5135 N.ar    1  LIG1       -0.2110
     30 H          -9.3341    4.0286   -0.9947 H       1  LIG1        0.0639
     31 O          -5.8486    6.0568    1.0265 O.3     1  LIG1       -0.4919
     32 H          -5.6907    6.9583    1.3536 H       1  LIG1        0.2937
     33 N         -11.8847    6.2054   -1.7809 N.1     1  LIG1       -0.1908
     34 C         -10.8618    6.1794   -1.2270 C.1     1  LIG1        0.1013
     35 C         -10.9353    8.8273    0.6212 C.ar    1  LIG1        0.2218
     36 C          -9.6434    8.5957    0.0755 C.ar    1  LIG1        0.0643
     37 C          -8.9265    9.7125   -0.3489 C.ar    1  LIG1       -0.0285
     38 C          -9.5070   10.9849   -0.2915 C.ar    1  LIG1        0.0707
     39 C         -10.8127   11.0792    0.2215 C.ar    1  LIG1        0.0488
     40 N         -11.4947   10.0358    0.6747 N.ar    1  LIG1       -0.2196
     41 H          -7.9200    9.5845   -0.7308 H       1  LIG1        0.0639
     42 H         -11.3107   12.0448    0.2688 H       1  LIG1        0.0844
     43 O         -11.6949    7.8645    1.1710 O.3     1  LIG1       -0.4919
     44 H         -11.2533    7.0051    1.1313 H       1  LIG1        0.2937
     45 N          -8.2357   13.0945   -1.1016 N.1     1  LIG1       -0.1908
     46 C          -8.8053   12.1468   -0.7394 C.1     1  LIG1        0.1007
@<TRIPOS>BOND
     1    33    34    3
     2    21    20    1
     3    34    27    1
     4    20    13    1
     5    45    46    3
     6    30    26    1
     7    10     9    1
     8     9     1    1
     9    46    38    1
    10    41    37    1
    11    13    18   ar
    12    13    14   ar
    13    18    17   ar
    14    27    26   ar
    15    27    28   ar
    16    26    25   ar
    17     1     6   ar
    18     1     2   ar
    19     6     5   ar
    20    37    38   ar
    21    37    36   ar
    22    38    39   ar
    23     8     2    1
    24     2     3   ar
    25     5    14    1
    26     5     4   ar
    27    14    15   ar
    28    25    17    1
    29    25    24   ar
    30    17    16   ar
    31    28    36    1
    32    28    29   ar
    33    36    35   ar
    34    39    42    1
    35    39    40   ar
    36     3     4   ar
    37     3     7    1
    38     4    12    1
    39    15    16   ar
    40    15    19    1
    41    24    29   ar
    42    24    31    1
    43    16    23    1
    44    35    40   ar
    45    35    43    1
    46    12    11    3
    47    31    32    1
    48    23    22    3
    49    44    43    1
