@<TRIPOS>MOLECULE
mol_data/opt/b3lyp/geoms/mol2/6fd6fd.out
 24 25 0 0 0
SMALL
GASTEIGER

@<TRIPOS>ATOM
      1 C          -4.5076   -2.0942   -0.0001 C.ar    1  LIG1        0.2129
      2 C          -3.1082   -2.1600   -0.0001 C.ar    1  LIG1        0.0011
      3 C          -2.4302   -0.9563   -0.0001 C.ar    1  LIG1       -0.0372
      4 C          -3.1177    0.2724   -0.0002 C.ar    1  LIG1        0.0781
      5 C          -4.5426    0.2557   -0.0002 C.ar    1  LIG1        0.0972
      6 N          -5.1668   -0.9430   -0.0002 N.ar    1  LIG1       -0.2116
      7 H          -1.3455   -0.9426   -0.0001 H       1  LIG1        0.0633
      8 H          -2.5801   -3.1074   -0.0001 H       1  LIG1        0.0671
      9 O          -5.3028   -3.1805   -0.0001 O.3     1  LIG1       -0.4924
     10 H          -4.7663   -3.9851   -0.0001 H       1  LIG1        0.2937
     11 N          -1.5377    2.3261   -0.0001 N.1     1  LIG1       -0.1908
     12 C          -2.2890    1.4365   -0.0001 C.1     1  LIG1        0.1013
     13 C          -6.8813    1.2752   -0.0001 C.ar    1  LIG1        0.2218
     14 C          -5.4445    1.4305   -0.0003 C.ar    1  LIG1        0.0643
     15 C          -4.9724    2.7490   -0.0005 C.ar    1  LIG1       -0.0285
     16 C          -5.8587    3.8289   -0.0006 C.ar    1  LIG1        0.0707
     17 C          -7.2367    3.5454   -0.0003 C.ar    1  LIG1        0.0488
     18 N          -7.7251    2.3176   -0.0001 N.ar    1  LIG1       -0.2196
     19 H          -3.9138    2.9632   -0.0007 H       1  LIG1        0.0639
     20 H          -7.9586    4.3596   -0.0003 H       1  LIG1        0.0844
     21 O          -7.4817    0.0981    0.0002 O.3     1  LIG1       -0.4919
     22 H          -6.7624   -0.5981    0.0002 H       1  LIG1        0.2937
     23 N          -5.0327    6.2868   -0.0011 N.1     1  LIG1       -0.1908
     24 C          -5.3923    5.1802   -0.0009 C.1     1  LIG1        0.1007
@<TRIPOS>BOND
     1    23    24    3
     2    24    16    1
     3    19    15    1
     4    16    15   ar
     5    16    17   ar
     6    15    14   ar
     7    17    20    1
     8    17    18   ar
     9    14     5    1
    10    14    13   ar
    11     5     4   ar
    12     5     6   ar
    13     4     3   ar
    14     4    12    1
    15     6     1   ar
    16     3     7    1
    17     3     2   ar
    18    12    11    3
    19     1     2   ar
    20     1     9    1
    21     2     8    1
    22     9    10    1
    23    18    13   ar
    24    13    21    1
    25    22    21    1
