@<TRIPOS>MOLECULE
mol_data/opt/b3lyp/geoms/mol2/6fd6fd6fd6fd.out
 46 49 0 0 0
SMALL
GASTEIGER

@<TRIPOS>ATOM
      1 C          -4.6090   -2.2875   -0.0005 C.ar    1  LIG1        0.2129
      2 C          -3.2220   -2.4920   -0.0007 C.ar    1  LIG1        0.0011
      3 C          -2.4238   -1.3647   -0.0007 C.ar    1  LIG1       -0.0372
      4 C          -2.9839   -0.0723   -0.0005 C.ar    1  LIG1        0.0781
      5 C          -4.4005    0.0518   -0.0004 C.ar    1  LIG1        0.0972
      6 N          -5.1481   -1.0743   -0.0004 N.ar    1  LIG1       -0.2116
      7 H          -1.3435   -1.4617   -0.0008 H       1  LIG1        0.0633
      8 H          -2.7932   -3.4883   -0.0008 H       1  LIG1        0.0671
      9 O          -5.5094   -3.2853   -0.0005 O.3     1  LIG1       -0.4924
     10 H          -5.0617   -4.1427   -0.0006 H       1  LIG1        0.2937
     11 N          -1.2386    1.8430   -0.0005 N.1     1  LIG1       -0.1908
     12 C          -2.0545    1.0126   -0.0005 C.1     1  LIG1        0.1013
     13 C          -6.6174    1.2902    0.0000 C.ar    1  LIG1        0.2224
     14 C          -5.1805    1.3082   -0.0002 C.ar    1  LIG1        0.0643
     15 C          -4.6123    2.5837   -0.0003 C.ar    1  LIG1       -0.0279
     16 C          -5.3759    3.7584   -0.0002 C.ar    1  LIG1        0.0787
     17 C          -6.7951    3.6483    0.0001 C.ar    1  LIG1        0.0973
     18 N          -7.3340    2.4150    0.0002 N.ar    1  LIG1       -0.2110
     19 H          -3.5385    2.7054   -0.0006 H       1  LIG1        0.0639
     20 O          -7.3393    0.1882    0.0001 O.3     1  LIG1       -0.4919
     21 H          -6.6881   -0.5816   -0.0000 H       1  LIG1        0.2937
     22 N          -3.9917    5.9503   -0.0005 N.1     1  LIG1       -0.1908
     23 C          -4.6420    4.9848   -0.0004 C.1     1  LIG1        0.1013
     24 C          -9.1871    4.4848    0.0006 C.ar    1  LIG1        0.2224
     25 C          -7.7741    4.7503    0.0003 C.ar    1  LIG1        0.0643
     26 C          -7.4344    6.1059    0.0001 C.ar    1  LIG1       -0.0279
     27 C          -8.3891    7.1298    0.0002 C.ar    1  LIG1        0.0787
     28 C          -9.7722    6.7774    0.0006 C.ar    1  LIG1        0.0973
     29 N         -10.0866    5.4697    0.0007 N.ar    1  LIG1       -0.2110
     30 H          -6.3973    6.4098   -0.0002 H       1  LIG1        0.0639
     31 O          -9.7039    3.2745    0.0009 O.3     1  LIG1       -0.4919
     32 H          -8.9227    2.6303    0.0009 H       1  LIG1        0.2937
     33 N          -7.3734    9.5151   -0.0002 N.1     1  LIG1       -0.1908
     34 C          -7.8665    8.4605   -0.0000 C.1     1  LIG1        0.1013
     35 C         -12.2832    7.1940    0.0011 C.ar    1  LIG1        0.2218
     36 C         -10.9268    7.6982    0.0007 C.ar    1  LIG1        0.0643
     37 C         -10.7903    9.0931    0.0004 C.ar    1  LIG1       -0.0285
     38 C         -11.9139    9.9219    0.0005 C.ar    1  LIG1        0.0707
     39 C         -13.1816    9.3087    0.0009 C.ar    1  LIG1        0.0488
     40 N         -13.3572    7.9996    0.0012 N.ar    1  LIG1       -0.2196
     41 H          -9.8154    9.5580    0.0000 H       1  LIG1        0.0639
     42 H         -14.0800    9.9229    0.0010 H       1  LIG1        0.0844
     43 O         -12.5728    5.9081    0.0016 O.3     1  LIG1       -0.4919
     44 H         -11.6968    5.4115    0.0017 H       1  LIG1        0.2937
     45 N         -11.7247   12.5079   -0.0002 N.1     1  LIG1       -0.1908
     46 C         -11.7962   11.3465    0.0001 C.1     1  LIG1        0.1007
@<TRIPOS>BOND
     1     7     3    1
     2     8     2    1
     3     3     2   ar
     4     3     4   ar
     5     2     1   ar
     6    10     9    1
     7    19    15    1
     8     4    12    1
     9     4     5   ar
    10    12    11    3
    11    22    23    3
    12     1     9    1
    13     1     6   ar
    14     5     6   ar
    15     5    14    1
    16    23    16    1
    17    15    14   ar
    18    15    16   ar
    19    14    13   ar
    20    16    17   ar
    21    33    34    3
    22    30    26    1
    23    45    46    3
    24    21    20    1
    25    34    27    1
    26    13    20    1
    27    13    18   ar
    28    41    37    1
    29    17    18   ar
    30    17    25    1
    31    26    27   ar
    32    26    25   ar
    33    46    38    1
    34    27    28   ar
    35    25    24   ar
    36    37    38   ar
    37    37    36   ar
    38    38    39   ar
    39    28    36    1
    40    28    29   ar
    41    24    29   ar
    42    24    31    1
    43    36    35   ar
    44    39    42    1
    45    39    40   ar
    46    31    32    1
    47    35    40   ar
    48    35    43    1
    49    43    44    1
