@<TRIPOS>MOLECULE
mol_data/opt/b3lyp/geoms/mol2/6fe13de-12ad-4fh-.out
 46 49 0 0 0
SMALL
GASTEIGER

@<TRIPOS>ATOM
      1 C          -4.6478   -1.8201    1.0883 C.ar    1  LIG1        0.2129
      2 C          -3.3034   -2.0895    0.7735 C.ar    1  LIG1        0.0010
      3 C          -2.5774   -1.0837    0.1649 C.ar    1  LIG1       -0.0392
      4 C          -3.1585    0.1752   -0.0970 C.ar    1  LIG1        0.0523
      5 C          -4.4910    0.3635    0.3451 C.ar    1  LIG1        0.1075
      6 N          -5.2104   -0.6406    0.8890 N.ar    1  LIG1       -0.2103
      7 H          -1.5509   -1.2554   -0.1408 H       1  LIG1        0.0632
      8 H          -2.8581   -3.0588    0.9770 H       1  LIG1        0.0671
      9 O          -5.4708   -2.7534    1.6247 O.3     1  LIG1       -0.4924
     10 H          -4.9851   -3.5810    1.7397 H       1  LIG1        0.2937
     11 C          -2.4227    1.1317   -0.8499 C.1     1  LIG1       -0.0675
     12 C          -1.7624    1.8848   -1.5285 C.1     1  LIG1       -0.1138
     13 H          -1.2033    2.6025   -2.0832 H       1  LIG1        0.1232
     14 C          -5.2602    1.6056    0.2155 C.ar    1  LIG1        0.0856
     15 C          -4.9760    2.9788    0.1969 C.ar    1  LIG1        0.0945
     16 C          -6.2278    3.6827    0.1121 C.ar    1  LIG1        0.0709
     17 C          -7.2357    2.7105    0.0961 C.ar    1  LIG1        0.0995
     18 N          -6.6250    1.4905    0.1629 N.ar    1  LIG1       -0.3485
     19 H          -7.0832    0.5951    0.2716 H       1  LIG1        0.1661
     20 N          -2.7597    4.2486    0.5645 N.1     1  LIG1       -0.1908
     21 C          -3.7361    3.6428    0.3786 C.1     1  LIG1        0.1026
     22 C          -6.4029    5.0846    0.0698 C.1     1  LIG1       -0.0661
     23 C          -6.5491    6.2860    0.0331 C.1     1  LIG1       -0.1138
     24 H          -6.6570    7.3457    0.0050 H       1  LIG1        0.1232
     25 C          -8.6636    2.8400    0.0186 C.ar    1  LIG1        0.1543
     26 C          -9.5233    3.9012   -0.0227 C.ar    1  LIG1        0.0037
     27 C         -10.8439    3.3472   -0.0794 C.ar    1  LIG1        0.0982
     28 C         -10.7113    1.9665   -0.0651 C.ar    1  LIG1        0.1566
     29 O          -9.3789    1.6650   -0.0098 O.2     1  LIG1       -0.4519
     30 H          -9.2566    4.9460   -0.0188 H       1  LIG1        0.0669
     31 N         -12.9604    4.7953   -0.3924 N.1     1  LIG1       -0.1907
     32 C         -12.0295    4.1155   -0.2334 C.1     1  LIG1        0.1030
     33 C         -12.9162    0.8753    0.3959 C.ar    1  LIG1        0.1276
     34 C         -13.7635   -0.2231    0.2402 C.ar    1  LIG1       -0.0177
     35 C         -11.6230    0.8338   -0.1632 C.ar    1  LIG1        0.0617
     36 C         -13.3432   -1.3610   -0.4399 C.ar    1  LIG1       -0.0376
     37 H         -14.7608   -0.1914    0.6722 H       1  LIG1        0.0655
     38 C         -11.2045   -0.3334   -0.8263 C.ar    1  LIG1       -0.0268
     39 C         -12.0473   -1.4383   -0.9772 C.ar    1  LIG1        0.0254
     40 H         -10.2045   -0.3603   -1.2472 H       1  LIG1        0.0644
     41 H         -14.0214   -2.2035   -0.5448 H       1  LIG1        0.0637
     42 O         -13.2664    1.9821    1.1142 O.3     1  LIG1       -0.5061
     43 H         -14.2238    2.0094    1.2368 H       1  LIG1        0.2922
     44 N         -11.5975   -2.6105   -1.6001 N.pl3   1  LIG1       -0.3579
     45 H         -12.3305   -3.1696   -2.0161 H       1  LIG1        0.1423
     46 H         -10.8362   -2.4719   -2.2514 H       1  LIG1        0.1423
@<TRIPOS>BOND
     1    46    44    1
     2    13    12    1
     3    45    44    1
     4    44    39    1
     5    12    11    3
     6    40    38    1
     7    39    38   ar
     8    39    36   ar
     9    11     4    1
    10    38    35   ar
    11    41    36    1
    12    36    34   ar
    13    31    32    3
    14    32    27    1
    15    35    28    1
    16    35    33   ar
    17     7     3    1
    18     4     3   ar
    19     4     5   ar
    20    27    28   ar
    21    27    26   ar
    22    28    29   ar
    23    26    30    1
    24    26    25   ar
    25    29    25   ar
    26    24    23    1
    27    25    17    1
    28    23    22    3
    29    22    16    1
    30    17    16   ar
    31    17    18   ar
    32    16    15   ar
    33    18    14   ar
    34    18    19    1
    35     3     2   ar
    36    15    14   ar
    37    15    21    1
    38    14     5    1
    39    34    33   ar
    40    34    37    1
    41     5     6   ar
    42    21    20    3
    43    33    42    1
    44     2     8    1
    45     2     1   ar
    46     6     1   ar
    47     1     9    1
    48    42    43    1
    49     9    10    1
