@<TRIPOS>MOLECULE
mol_data/opt/b3lyp/geoms/mol2/6fe6fe-4fe6fe.out
 51 54 0 0 0
SMALL
GASTEIGER

@<TRIPOS>ATOM
      1 C          -3.8898   -1.9071    1.1922 C.ar    1  LIG1        0.2129
      2 C          -2.8111   -2.1615    0.3291 C.ar    1  LIG1        0.0010
      3 C          -2.5331   -1.2189   -0.6446 C.ar    1  LIG1       -0.0392
      4 C          -3.2991   -0.0411   -0.7369 C.ar    1  LIG1        0.0510
      5 C          -4.3287    0.1327    0.2205 C.ar    1  LIG1        0.0952
      6 N          -4.6172   -0.7992    1.1403 N.ar    1  LIG1       -0.2116
      7 H          -1.7305   -1.3830   -1.3559 H       1  LIG1        0.0632
      8 H          -2.2245   -3.0722    0.4105 H       1  LIG1        0.0671
      9 O          -4.2710   -2.7832    2.1550 O.3     1  LIG1       -0.4924
     10 H          -3.6960   -3.5594    2.1249 H       1  LIG1        0.2937
     11 C          -3.0614    0.8744   -1.8037 C.1     1  LIG1       -0.0675
     12 C          -2.8468    1.6036   -2.7453 C.1     1  LIG1       -0.1138
     13 H          -2.6657    2.2624   -3.5626 H       1  LIG1        0.1232
     14 C          -4.7302    2.6577    0.2944 C.ar    1  LIG1        0.2224
     15 C          -5.2095    1.3306    0.2424 C.ar    1  LIG1        0.0642
     16 C          -6.5896    1.1830    0.2915 C.ar    1  LIG1       -0.0299
     17 C          -7.4478    2.2987    0.3159 C.ar    1  LIG1        0.0516
     18 C          -6.8467    3.5784    0.2982 C.ar    1  LIG1        0.0937
     19 N          -5.5150    3.7277    0.3033 N.ar    1  LIG1       -0.2111
     20 H          -7.0112    0.1844    0.3145 H       1  LIG1        0.0639
     21 O          -3.4033    2.8782    0.3755 O.3     1  LIG1       -0.4919
     22 H          -3.2971    3.8431    0.4018 H       1  LIG1        0.2937
     23 C          -8.8607    2.1037    0.3752 C.1     1  LIG1       -0.0675
     24 C         -10.0515    1.8942    0.4301 C.1     1  LIG1       -0.1138
     25 H         -11.1013    1.7201    0.4804 H       1  LIG1        0.1232
     26 C          -7.4753    5.8526    1.2179 C.ar    1  LIG1        0.1267
     27 C          -8.2310    7.0251    1.1364 C.ar    1  LIG1       -0.0105
     28 C          -7.6512    4.8314    0.2598 C.ar    1  LIG1        0.0443
     29 C          -9.1692    7.2337    0.1205 C.ar    1  LIG1        0.0061
     30 H          -8.1040    7.7928    1.8962 H       1  LIG1        0.0661
     31 C          -8.5900    5.0363   -0.7482 C.ar    1  LIG1       -0.0330
     32 C          -9.3504    6.2162   -0.8509 C.ar    1  LIG1        0.0334
     33 H          -8.7326    4.2661   -1.4972 H       1  LIG1        0.0638
     34 O          -6.5917    5.6445    2.2276 O.3     1  LIG1       -0.5061
     35 H          -6.6097    6.4029    2.8267 H       1  LIG1        0.2922
     36 C         -10.2547    6.3713   -1.9471 C.1     1  LIG1       -0.0690
     37 C         -11.0254    6.4810   -2.8738 C.1     1  LIG1       -0.1139
     38 H         -11.7081    6.5919   -3.6844 H       1  LIG1        0.1232
     39 C         -11.3356    8.5859    0.1981 C.ar    1  LIG1        0.2203
     40 C          -9.9209    8.5189    0.0908 C.ar    1  LIG1        0.0459
     41 C          -9.2395    9.7314    0.0276 C.ar    1  LIG1       -0.0320
     42 C          -9.9377   10.9511    0.0530 C.ar    1  LIG1        0.0436
     43 C         -11.3369   10.8738    0.1542 C.ar    1  LIG1        0.0468
     44 N         -12.0132    9.7304    0.2287 N.ar    1  LIG1       -0.2197
     45 H          -8.1574    9.7330   -0.0550 H       1  LIG1        0.0638
     46 H         -11.9264   11.7877    0.1769 H       1  LIG1        0.0843
     47 O         -12.1097    7.4869    0.3150 O.3     1  LIG1       -0.4920
     48 H         -11.5672    6.6935    0.1998 H       1  LIG1        0.2937
     49 C          -9.2664   12.2069   -0.0206 C.1     1  LIG1       -0.0681
     50 C          -8.6996   13.2747   -0.0808 C.1     1  LIG1       -0.1139
     51 H          -8.2041   14.2160   -0.1367 H       1  LIG1        0.1232
@<TRIPOS>BOND
     1    38    37    1
     2    13    12    1
     3    37    36    3
     4    12    11    3
     5    36    32    1
     6    11     4    1
     7    33    31    1
     8     7     3    1
     9    32    31   ar
    10    32    29   ar
    11    31    28   ar
    12     4     3   ar
    13     4     5   ar
    14     3     2   ar
    15    51    50    1
    16    50    49    3
    17    45    41    1
    18    49    42    1
    19    41    42   ar
    20    41    40   ar
    21    42    43   ar
    22    40    29    1
    23    40    39   ar
    24    29    27   ar
    25    43    46    1
    26    43    44   ar
    27    39    44   ar
    28    39    47    1
    29    48    47    1
    30     5    15    1
    31     5     6   ar
    32    15    16   ar
    33    15    14   ar
    34    28    18    1
    35    28    26   ar
    36    16    20    1
    37    16    17   ar
    38    14    19   ar
    39    14    21    1
    40    18    19   ar
    41    18    17   ar
    42    17    23    1
    43     2     8    1
    44     2     1   ar
    45    23    24    3
    46    21    22    1
    47    24    25    1
    48    27    26   ar
    49    27    30    1
    50     6     1   ar
    51     1     9    1
    52    26    34    1
    53    10     9    1
    54    34    35    1
