@<TRIPOS>MOLECULE
mol_data/opt/b3lyp/geoms/mol2/6fe6fe-6fe6fe-.out
 50 53 0 0 0
SMALL
GASTEIGER

@<TRIPOS>ATOM
      1 C          -3.4076   -1.6554    1.0831 C.ar    1  LIG1        0.2129
      2 C          -2.5807   -1.9796   -0.0055 C.ar    1  LIG1        0.0010
      3 C          -2.6522   -1.1742   -1.1280 C.ar    1  LIG1       -0.0392
      4 C          -3.5109   -0.0583   -1.1523 C.ar    1  LIG1        0.0510
      5 C          -4.2575    0.2019    0.0227 C.ar    1  LIG1        0.0952
      6 N          -4.2120   -0.6008    1.0955 N.ar    1  LIG1       -0.2116
      7 H          -2.0578   -1.4014   -2.0066 H       1  LIG1        0.0632
      8 H          -1.9197   -2.8411    0.0237 H       1  LIG1        0.0671
      9 O          -3.4447   -2.4015    2.2145 O.3     1  LIG1       -0.4924
     10 H          -2.8364   -3.1472    2.1253 H       1  LIG1        0.2937
     11 C          -3.6459    0.7046   -2.3491 C.1     1  LIG1       -0.0675
     12 C          -3.7551    1.3015   -3.3961 C.1     1  LIG1       -0.1138
     13 H          -3.8573    1.8432   -4.3078 H       1  LIG1        0.1232
     14 C          -4.8461    2.6906   -0.1230 C.ar    1  LIG1        0.2224
     15 C          -5.1988    1.3470    0.1376 C.ar    1  LIG1        0.0642
     16 C          -6.4887    1.1492    0.6068 C.ar    1  LIG1       -0.0299
     17 C          -7.4031    2.2146    0.7234 C.ar    1  LIG1        0.0516
     18 C          -6.9686    3.5062    0.3375 C.ar    1  LIG1        0.0953
     19 N          -5.6948    3.7061   -0.0447 N.ar    1  LIG1       -0.2111
     20 H          -6.7947    0.1505    0.8975 H       1  LIG1        0.0639
     21 O          -3.5718    2.9857   -0.4379 O.3     1  LIG1       -0.4919
     22 H          -3.5467    3.9440   -0.5929 H       1  LIG1        0.2937
     23 C          -8.7054    1.9601    1.2463 C.1     1  LIG1       -0.0675
     24 C          -9.8188    1.7279    1.6643 C.1     1  LIG1       -0.1138
     25 H         -10.7953    1.5448    2.0507 H       1  LIG1        0.1232
     26 C          -9.1232    4.8679   -0.1494 C.ar    1  LIG1        0.2224
     27 C          -7.8053    4.7368    0.3670 C.ar    1  LIG1        0.0642
     28 C          -7.2066    5.9152    0.8168 C.ar    1  LIG1       -0.0299
     29 C          -7.8787    7.1435    0.8051 C.ar    1  LIG1        0.0516
     30 C          -9.2051    7.1385    0.3078 C.ar    1  LIG1        0.0953
     31 N          -9.7728    6.0288   -0.1715 N.ar    1  LIG1       -0.2111
     32 H          -6.1807    5.8762    1.1629 H       1  LIG1        0.0639
     33 O          -9.8156    3.8640   -0.7261 O.3     1  LIG1       -0.4919
     34 H          -9.5194    3.0043   -0.3896 H       1  LIG1        0.2937
     35 C          -7.1943    8.3284    1.2081 C.1     1  LIG1       -0.0675
     36 C          -6.5661    9.3130    1.5244 C.1     1  LIG1       -0.1138
     37 H          -6.0310   10.1885    1.8104 H       1  LIG1        0.1232
     38 C         -10.2917    9.2213    1.3127 C.ar    1  LIG1        0.2218
     39 C         -10.0393    8.3664    0.2171 C.ar    1  LIG1        0.0641
     40 C         -10.6771    8.6863   -0.9772 C.ar    1  LIG1       -0.0305
     41 C         -11.4678    9.8452   -1.0829 C.ar    1  LIG1        0.0436
     42 C         -11.5915   10.6386    0.0681 C.ar    1  LIG1        0.0468
     43 N         -11.0299   10.3272    1.2372 N.ar    1  LIG1       -0.2197
     44 H         -10.5535    8.0307   -1.8317 H       1  LIG1        0.0638
     45 H         -12.1772   11.5539    0.0379 H       1  LIG1        0.0843
     46 O          -9.8034    8.8998    2.5269 O.3     1  LIG1       -0.4919
     47 H         -10.0845    9.6128    3.1230 H       1  LIG1        0.2937
     48 C         -12.1124   10.2106   -2.3018 C.1     1  LIG1       -0.0681
     49 C         -12.6613   10.5261   -3.3332 C.1     1  LIG1       -0.1139
     50 H         -13.1447   10.8004   -4.2419 H       1  LIG1        0.1232
@<TRIPOS>BOND
     1    13    12    1
     2    50    49    1
     3    12    11    3
     4    49    48    3
     5    11     4    1
     6    48    41    1
     7     7     3    1
     8    44    40    1
     9     4     3   ar
    10     4     5   ar
    11     3     2   ar
    12    41    40   ar
    13    41    42   ar
    14    40    39   ar
    15    33    34    1
    16    33    26    1
    17    22    21    1
    18    21    14    1
    19    31    26   ar
    20    31    30   ar
    21    26    27   ar
    22    14    19   ar
    23    14    15   ar
    24    19    18   ar
    25     2     8    1
    26     2     1   ar
    27     5    15    1
    28     5     6   ar
    29    45    42    1
    30    42    43   ar
    31    15    16   ar
    32    39    30    1
    33    39    38   ar
    34    30    29   ar
    35    18    27    1
    36    18    17   ar
    37    27    28   ar
    38    16    17   ar
    39    16    20    1
    40    17    23    1
    41    29    28   ar
    42    29    35    1
    43    28    32    1
    44     1     6   ar
    45     1     9    1
    46    35    36    3
    47    43    38   ar
    48    23    24    3
    49    38    46    1
    50    36    37    1
    51    24    25    1
    52    10     9    1
    53    46    47    1
