@<TRIPOS>MOLECULE
mol_data/opt/b3lyp/geoms/mol2/6fe6fe6fe-6fe-.out
 50 53 0 0 0
SMALL
GASTEIGER

@<TRIPOS>ATOM
      1 C          -4.4918   -2.2295   -0.2906 C.ar    1  LIG1        0.2129
      2 C          -3.1011   -2.3330   -0.4197 C.ar    1  LIG1        0.0010
      3 C          -2.3864   -1.1498   -0.4712 C.ar    1  LIG1       -0.0392
      4 C          -3.0234    0.1033   -0.3746 C.ar    1  LIG1        0.0510
      5 C          -4.4366    0.1094   -0.1912 C.ar    1  LIG1        0.0952
      6 N          -5.1105   -1.0636   -0.1757 N.ar    1  LIG1       -0.2116
      7 H          -1.3097   -1.1706   -0.6014 H       1  LIG1        0.0632
      8 H          -2.6065   -3.2962   -0.4956 H       1  LIG1        0.0671
      9 O          -5.3171   -3.3003   -0.2701 O.3     1  LIG1       -0.4924
     10 H          -4.7997   -4.1102   -0.3735 H       1  LIG1        0.2937
     11 C          -2.1999    1.2590   -0.5249 C.1     1  LIG1       -0.0675
     12 C          -1.4196    2.1715   -0.6815 C.1     1  LIG1       -0.1138
     13 H          -0.7658    3.0018   -0.8189 H       1  LIG1        0.1232
     14 C          -6.7005    1.2723   -0.2296 C.ar    1  LIG1        0.2224
     15 C          -5.2781    1.3135   -0.0315 C.ar    1  LIG1        0.0642
     16 C          -4.7599    2.5506    0.3598 C.ar    1  LIG1       -0.0299
     17 C          -5.5612    3.6951    0.4557 C.ar    1  LIG1        0.0516
     18 C          -6.9257    3.5555    0.0955 C.ar    1  LIG1        0.0953
     19 N          -7.4589    2.3681   -0.1989 N.ar    1  LIG1       -0.2111
     20 H          -3.7150    2.6410    0.6198 H       1  LIG1        0.0639
     21 O          -7.3652    0.1450   -0.4645 O.3     1  LIG1       -0.4919
     22 H          -6.7097   -0.5997   -0.3682 H       1  LIG1        0.2937
     23 C          -5.0044    4.9052    0.9658 C.1     1  LIG1       -0.0675
     24 C          -4.5045    5.9015    1.4371 C.1     1  LIG1       -0.1138
     25 H          -4.0820    6.7909    1.8430 H       1  LIG1        0.1232
     26 C          -7.6530    5.9180   -0.5705 C.ar    1  LIG1        0.2224
     27 C          -7.8822    4.6922    0.0929 C.ar    1  LIG1        0.0642
     28 C          -9.1213    4.5598    0.7074 C.ar    1  LIG1       -0.0299
     29 C         -10.0510    5.6163    0.7248 C.ar    1  LIG1        0.0516
     30 C          -9.6841    6.8133    0.0662 C.ar    1  LIG1        0.0953
     31 N          -8.5115    6.9296   -0.5727 N.ar    1  LIG1       -0.2111
     32 H          -9.3667    3.6224    1.1932 H       1  LIG1        0.0639
     33 O          -6.5284    6.0784   -1.2947 O.3     1  LIG1       -0.4919
     34 H          -6.5688    6.9825   -1.6470 H       1  LIG1        0.2937
     35 C         -11.2879    5.4552    1.4190 C.1     1  LIG1       -0.0675
     36 C         -12.3232    5.2796    2.0209 C.1     1  LIG1       -0.1138
     37 H         -13.2378    5.1381    2.5485 H       1  LIG1        0.1232
     38 C         -10.1373    9.2915    0.3732 C.ar    1  LIG1        0.2218
     39 C         -10.5809    7.9984    0.0091 C.ar    1  LIG1        0.0641
     40 C         -11.8959    7.8979   -0.4318 C.ar    1  LIG1       -0.0305
     41 C         -12.7176    9.0382   -0.5193 C.ar    1  LIG1        0.0436
     42 C         -12.1492   10.2627   -0.1408 C.ar    1  LIG1        0.0468
     43 N         -10.8952   10.3841    0.2983 N.ar    1  LIG1       -0.2197
     44 H         -12.2931    6.9319   -0.7209 H       1  LIG1        0.0638
     45 H         -12.7363   11.1759   -0.1955 H       1  LIG1        0.0843
     46 O          -8.8899    9.4566    0.8558 O.3     1  LIG1       -0.4919
     47 H          -8.8156   10.4035    1.0589 H       1  LIG1        0.2937
     48 C         -14.0652    8.9610   -0.9801 C.1     1  LIG1       -0.0681
     49 C         -15.2092    8.9003   -1.3703 C.1     1  LIG1       -0.1139
     50 H         -16.2156    8.8455   -1.7151 H       1  LIG1        0.1232
@<TRIPOS>BOND
     1    50    49    1
     2    34    33    1
     3    49    48    3
     4    33    26    1
     5    48    41    1
     6    13    12    1
     7    44    40    1
     8    12    11    3
     9     7     3    1
    10    31    26   ar
    11    31    30   ar
    12    26    27   ar
    13    11     4    1
    14    41    40   ar
    15    41    42   ar
    16     8     2    1
    17     3     2   ar
    18     3     4   ar
    19    21    22    1
    20    21    14    1
    21    40    39   ar
    22     2     1   ar
    23     4     5   ar
    24    10     9    1
    25     1     9    1
    26     1     6   ar
    27    14    19   ar
    28    14    15   ar
    29    19    18   ar
    30    45    42    1
    31     5     6   ar
    32     5    15    1
    33    42    43   ar
    34    15    16   ar
    35    39    30    1
    36    39    38   ar
    37    30    29   ar
    38    27    18    1
    39    27    28   ar
    40    18    17   ar
    41    43    38   ar
    42    16    17   ar
    43    16    20    1
    44    38    46    1
    45    17    23    1
    46    28    29   ar
    47    28    32    1
    48    29    35    1
    49    46    47    1
    50    23    24    3
    51    35    36    3
    52    24    25    1
    53    36    37    1
