@<TRIPOS>MOLECULE
mol_data/opt/b3lyp/geoms/mol2/6fe6fe6fe-6fe.out
 50 53 0 0 0
SMALL
GASTEIGER

@<TRIPOS>ATOM
      1 C          -4.3549   -2.0979   -0.9286 C.ar    1  LIG1        0.2129
      2 C          -2.9763   -2.2171   -0.7123 C.ar    1  LIG1        0.0010
      3 C          -2.3042   -1.0788   -0.3054 C.ar    1  LIG1       -0.0392
      4 C          -2.9771    0.1413   -0.0942 C.ar    1  LIG1        0.0510
      5 C          -4.3884    0.1543   -0.2883 C.ar    1  LIG1        0.0952
      6 N          -5.0123   -0.9671   -0.7161 N.ar    1  LIG1       -0.2116
      7 H          -1.2307   -1.1072   -0.1525 H       1  LIG1        0.0632
      8 H          -2.4537   -3.1544   -0.8743 H       1  LIG1        0.0671
      9 O          -5.1291   -3.1156   -1.3670 O.3     1  LIG1       -0.4924
     10 H          -4.5829   -3.8996   -1.5131 H       1  LIG1        0.2937
     11 C          -2.1741    1.2713    0.2440 C.1     1  LIG1       -0.0675
     12 C          -1.4050    2.1678    0.5100 C.1     1  LIG1       -0.1138
     13 H          -0.7594    2.9834    0.7422 H       1  LIG1        0.1232
     14 C          -6.5943    1.3727   -0.6477 C.ar    1  LIG1        0.2224
     15 C          -5.2744    1.3194   -0.0824 C.ar    1  LIG1        0.0642
     16 C          -4.9092    2.4160    0.7019 C.ar    1  LIG1       -0.0299
     17 C          -5.7386    3.5358    0.8456 C.ar    1  LIG1        0.0516
     18 C          -6.9570    3.5276    0.1214 C.ar    1  LIG1        0.0953
     19 N          -7.3638    2.4583   -0.5652 N.ar    1  LIG1       -0.2111
     20 H          -3.9704    2.4090    1.2368 H       1  LIG1        0.0639
     21 O          -7.1438    0.3521   -1.2979 O.3     1  LIG1       -0.4919
     22 H          -6.5157   -0.4172   -1.2073 H       1  LIG1        0.2937
     23 C          -5.3684    4.5789    1.7452 C.1     1  LIG1       -0.0675
     24 C          -5.0394    5.4264    2.5442 C.1     1  LIG1       -0.1138
     25 H          -4.7616    6.1842    3.2394 H       1  LIG1        0.1232
     26 C          -7.5525    6.0066   -0.1393 C.ar    1  LIG1        0.2224
     27 C          -7.9107    4.6665    0.1328 C.ar    1  LIG1        0.0642
     28 C          -9.2647    4.4403    0.3341 C.ar    1  LIG1       -0.0299
     29 C         -10.1938    5.4986    0.3575 C.ar    1  LIG1        0.0516
     30 C          -9.7043    6.8148    0.1743 C.ar    1  LIG1        0.0953
     31 N          -8.4043    7.0223   -0.0992 N.ar    1  LIG1       -0.2111
     32 H          -9.6101    3.4215    0.4680 H       1  LIG1        0.0639
     33 O          -6.2878    6.2893   -0.4999 O.3     1  LIG1       -0.4919
     34 H          -6.2507    7.2522   -0.6206 H       1  LIG1        0.2937
     35 C         -11.5786    5.2064    0.5346 C.1     1  LIG1       -0.0675
     36 C         -12.7493    4.9508    0.7152 C.1     1  LIG1       -0.1138
     37 H         -13.7850    4.7387    0.8512 H       1  LIG1        0.1232
     38 C         -11.4894    8.3988    1.1915 C.ar    1  LIG1        0.2218
     39 C         -10.5340    8.0522    0.1959 C.ar    1  LIG1        0.0641
     40 C         -10.2699    9.0181   -0.7792 C.ar    1  LIG1       -0.0305
     41 C         -10.9325   10.2516   -0.7778 C.ar    1  LIG1        0.0436
     42 C         -11.8447   10.4722    0.2698 C.ar    1  LIG1        0.0468
     43 N         -12.1080    9.5811    1.2176 N.ar    1  LIG1       -0.2197
     44 H          -9.5285    8.8025   -1.5395 H       1  LIG1        0.0638
     45 H         -12.3786   11.4183    0.3306 H       1  LIG1        0.0843
     46 O         -11.8123    7.6109    2.2371 O.3     1  LIG1       -0.4919
     47 H         -11.6624    6.6767    2.0245 H       1  LIG1        0.2937
     48 C         -10.6931   11.2426   -1.7752 C.1     1  LIG1       -0.0681
     49 C         -10.4948   12.0886   -2.6177 C.1     1  LIG1       -0.1139
     50 H         -10.3219   12.8329   -3.3599 H       1  LIG1        0.1232
@<TRIPOS>BOND
     1    50    49    1
     2    49    48    3
     3    48    41    1
     4    44    40    1
     5    10     9    1
     6     9     1    1
     7    21    22    1
     8    21    14    1
     9     1     6   ar
    10     1     2   ar
    11     8     2    1
    12    40    41   ar
    13    40    39   ar
    14    41    42   ar
    15     6     5   ar
    16     2     3   ar
    17    14    19   ar
    18    14    15   ar
    19    34    33    1
    20    19    18   ar
    21    33    26    1
    22     3     7    1
    23     3     4   ar
    24     5     4   ar
    25     5    15    1
    26    26    31   ar
    27    26    27   ar
    28    31    30   ar
    29     4    11    1
    30    15    16   ar
    31    18    27    1
    32    18    17   ar
    33    27    28   ar
    34    30    39    1
    35    30    29   ar
    36    39    38   ar
    37    11    12    3
    38    42    45    1
    39    42    43   ar
    40    28    29   ar
    41    28    32    1
    42    29    35    1
    43    12    13    1
    44    35    36    3
    45    16    17   ar
    46    16    20    1
    47    36    37    1
    48    17    23    1
    49    38    43   ar
    50    38    46    1
    51    23    24    3
    52    47    46    1
    53    24    25    1
