@<TRIPOS>MOLECULE
mol_data/opt/b3lyp/geoms/mol2/6fe6fe6fe6fe-.out
 50 53 0 0 0
SMALL
GASTEIGER

@<TRIPOS>ATOM
      1 C          -4.4914   -2.2153   -0.3716 C.ar    1  LIG1        0.2129
      2 C          -3.1293   -2.3650   -0.0809 C.ar    1  LIG1        0.0010
      3 C          -2.4274   -1.2186    0.2440 C.ar    1  LIG1       -0.0392
      4 C          -3.0451    0.0482    0.2628 C.ar    1  LIG1        0.0510
      5 C          -4.4230    0.1105   -0.0925 C.ar    1  LIG1        0.0952
      6 N          -5.0891   -1.0326   -0.3790 N.ar    1  LIG1       -0.2116
      7 H          -1.3762   -1.2811    0.5041 H       1  LIG1        0.0632
      8 H          -2.6487   -3.3378   -0.0927 H       1  LIG1        0.0671
      9 O          -5.3075   -3.2499   -0.6682 O.3     1  LIG1       -0.4924
     10 H          -4.8104   -4.0783   -0.6343 H       1  LIG1        0.2937
     11 C          -2.2435    1.1499    0.6860 C.1     1  LIG1       -0.0675
     12 C          -1.4845    2.0108    1.0721 C.1     1  LIG1       -0.1138
     13 H          -0.8460    2.7933    1.4127 H       1  LIG1        0.1232
     14 C          -6.6737    1.2770   -0.2169 C.ar    1  LIG1        0.2224
     15 C          -5.2430    1.3358   -0.1655 C.ar    1  LIG1        0.0642
     16 C          -4.7036    2.6220   -0.2343 C.ar    1  LIG1       -0.0299
     17 C          -5.4891    3.7833   -0.2616 C.ar    1  LIG1        0.0516
     18 C          -6.9028    3.6225   -0.1778 C.ar    1  LIG1        0.0953
     19 N          -7.4205    2.3782   -0.1882 N.ar    1  LIG1       -0.2111
     20 H          -3.6320    2.7490   -0.2866 H       1  LIG1        0.0639
     21 O          -7.3589    0.1451   -0.2899 O.3     1  LIG1       -0.4919
     22 H          -6.6835   -0.5891   -0.3854 H       1  LIG1        0.2937
     23 C          -4.8027    5.0242   -0.4274 C.1     1  LIG1       -0.0675
     24 C          -4.1385    6.0241   -0.5872 C.1     1  LIG1       -0.1138
     25 H          -3.5895    6.9252   -0.7352 H       1  LIG1        0.1232
     26 C          -9.2887    4.4782   -0.3691 C.ar    1  LIG1        0.2224
     27 C          -7.8940    4.7116   -0.1065 C.ar    1  LIG1        0.0642
     28 C          -7.5581    6.0176    0.2616 C.ar    1  LIG1       -0.0299
     29 C          -8.5046    7.0486    0.2830 C.ar    1  LIG1        0.0516
     30 C          -9.8224    6.7202   -0.1278 C.ar    1  LIG1        0.0953
     31 N         -10.1840    5.4673   -0.4070 N.ar    1  LIG1       -0.2111
     32 H          -6.5462    6.2505    0.5607 H       1  LIG1        0.0639
     33 O          -9.7851    3.2699   -0.5986 O.3     1  LIG1       -0.4919
     34 H          -9.0325    2.6214   -0.4654 H       1  LIG1        0.2937
     35 C          -8.1343    8.3369    0.7710 C.1     1  LIG1       -0.0675
     36 C          -7.7908    9.4049    1.2254 C.1     1  LIG1       -0.1138
     37 H          -7.5040   10.3535    1.6153 H       1  LIG1        0.1232
     38 C         -10.8164    8.9436   -0.9064 C.ar    1  LIG1        0.2218
     39 C         -10.9175    7.7232   -0.2023 C.ar    1  LIG1        0.0641
     40 C         -12.1496    7.4469    0.3828 C.ar    1  LIG1       -0.0305
     41 C         -13.1993    8.3816    0.3261 C.ar    1  LIG1        0.0436
     42 C         -12.9475    9.5808   -0.3585 C.ar    1  LIG1        0.0468
     43 N         -11.7925    9.8476   -0.9698 N.ar    1  LIG1       -0.2197
     44 H         -12.2888    6.4984    0.8888 H       1  LIG1        0.0638
     45 H         -13.7182   10.3452   -0.4187 H       1  LIG1        0.0843
     46 O          -9.6941    9.2159   -1.6007 O.3     1  LIG1       -0.4919
     47 H          -9.8345   10.0910   -1.9970 H       1  LIG1        0.2937
     48 C         -14.4636    8.1359    0.9394 C.1     1  LIG1       -0.0681
     49 C         -15.5381    7.9338    1.4581 C.1     1  LIG1       -0.1139
     50 H         -16.4833    7.7512    1.9139 H       1  LIG1        0.1232
@<TRIPOS>BOND
     1    47    46    1
     2    46    38    1
     3    43    38   ar
     4    43    42   ar
     5    38    39   ar
     6    25    24    1
     7     9    10    1
     8     9     1    1
     9    33    34    1
    10    33    26    1
    11    24    23    3
    12    23    17    1
    13    45    42    1
    14    31    26   ar
    15    31    30   ar
    16    22    21    1
    17     6     1   ar
    18     6     5   ar
    19     1     2   ar
    20    26    27   ar
    21    42    41   ar
    22    21    14    1
    23    20    16    1
    24    17    16   ar
    25    17    18   ar
    26    16    15   ar
    27    14    19   ar
    28    14    15   ar
    29    39    30    1
    30    39    40   ar
    31    19    18   ar
    32    18    27    1
    33    15     5    1
    34    30    29   ar
    35    27    28   ar
    36     8     2    1
    37     5     4   ar
    38     2     3   ar
    39     3     4   ar
    40     3     7    1
    41    28    29   ar
    42    28    32    1
    43     4    11    1
    44    29    35    1
    45    41    40   ar
    46    41    48    1
    47    40    44    1
    48    11    12    3
    49    35    36    3
    50    48    49    3
    51    12    13    1
    52    36    37    1
    53    49    50    1
