@<TRIPOS>MOLECULE
mol_data/opt/b3lyp/geoms/mol2/6fe6fe.out
 26 27 0 0 0
SMALL
GASTEIGER

@<TRIPOS>ATOM
      1 C          -4.5141   -2.0846   -0.0002 C.ar    1  LIG1        0.2129
      2 C          -3.1162   -2.1397   -0.0002 C.ar    1  LIG1        0.0010
      3 C          -2.4481   -0.9292   -0.0002 C.ar    1  LIG1       -0.0392
      4 C          -3.1326    0.3032   -0.0002 C.ar    1  LIG1        0.0510
      5 C          -4.5605    0.2660   -0.0002 C.ar    1  LIG1        0.0952
      6 N          -5.1779   -0.9391   -0.0002 N.ar    1  LIG1       -0.2116
      7 H          -1.3636   -0.9095   -0.0002 H       1  LIG1        0.0632
      8 H          -2.5801   -3.0832   -0.0002 H       1  LIG1        0.0671
      9 O          -5.3033   -3.1823   -0.0001 O.3     1  LIG1       -0.4924
     10 H          -4.7535   -3.9773   -0.0001 H       1  LIG1        0.2937
     11 C          -2.3028    1.4649   -0.0001 C.1     1  LIG1       -0.0675
     12 C          -1.4864    2.3597   -0.0000 C.1     1  LIG1       -0.1138
     13 H          -0.8047    3.1789    0.0000 H       1  LIG1        0.1232
     14 C          -6.9115    1.2640    0.0000 C.ar    1  LIG1        0.2218
     15 C          -5.4779    1.4297   -0.0002 C.ar    1  LIG1        0.0641
     16 C          -5.0178    2.7523   -0.0006 C.ar    1  LIG1       -0.0305
     17 C          -5.9028    3.8360   -0.0005 C.ar    1  LIG1        0.0436
     18 C          -7.2772    3.5333   -0.0001 C.ar    1  LIG1        0.0468
     19 N          -7.7602    2.3006    0.0001 N.ar    1  LIG1       -0.2197
     20 H          -3.9585    2.9576   -0.0008 H       1  LIG1        0.0638
     21 H          -8.0065    4.3413   -0.0000 H       1  LIG1        0.0843
     22 O          -7.5052    0.0783    0.0002 O.3     1  LIG1       -0.4919
     23 H          -6.7759   -0.6070   -0.0001 H       1  LIG1        0.2937
     24 C          -5.4414    5.1857   -0.0008 C.1     1  LIG1       -0.0681
     25 C          -5.0608    6.3349   -0.0011 C.1     1  LIG1       -0.1139
     26 H          -4.7292    7.3470   -0.0014 H       1  LIG1        0.1232
@<TRIPOS>BOND
     1    26    25    1
     2    25    24    3
     3    20    16    1
     4    24    17    1
     5    16    17   ar
     6    16    15   ar
     7    17    18   ar
     8    15     5    1
     9    15    14   ar
    10     5     4   ar
    11     5     6   ar
    12     8     2    1
    13     3     7    1
    14     3     2   ar
    15     3     4   ar
    16     2     1   ar
    17     4    11    1
    18     6     1   ar
    19     1     9    1
    20    18    21    1
    21    18    19   ar
    22    11    12    3
    23     9    10    1
    24    23    22    1
    25    12    13    1
    26    14    19   ar
    27    14    22    1
