@<TRIPOS>MOLECULE
mol_data/opt/b3lyp/geoms/mol2/6fe6fe-6fe-6fe.out
 50 53 0 0 0
SMALL
GASTEIGER

@<TRIPOS>ATOM
      1 C          -3.8859   -1.8432   -1.3306 C.ar    1  LIG1        0.2129
      2 C          -2.8229   -2.1453   -0.4632 C.ar    1  LIG1        0.0010
      3 C          -2.5579   -1.2545    0.5615 C.ar    1  LIG1       -0.0392
      4 C          -3.3213   -0.0794    0.7003 C.ar    1  LIG1        0.0510
      5 C          -4.3338    0.1463   -0.2642 C.ar    1  LIG1        0.0952
      6 N          -4.6105   -0.7364   -1.2344 N.ar    1  LIG1       -0.2116
      7 H          -1.7679   -1.4579    1.2767 H       1  LIG1        0.0632
      8 H          -2.2379   -3.0531   -0.5808 H       1  LIG1        0.0671
      9 O          -4.2538   -2.6676   -2.3425 O.3     1  LIG1       -0.4924
     10 H          -3.6808   -3.4459   -2.3439 H       1  LIG1        0.2937
     11 C          -3.0984    0.7807    1.8153 C.1     1  LIG1       -0.0675
     12 C          -2.8970    1.4614    2.7953 C.1     1  LIG1       -0.1138
     13 H          -2.7256    2.0779    3.6471 H       1  LIG1        0.1232
     14 C          -4.7241    2.6743   -0.2220 C.ar    1  LIG1        0.2224
     15 C          -5.2097    1.3480   -0.2413 C.ar    1  LIG1        0.0642
     16 C          -6.5888    1.2095   -0.3228 C.ar    1  LIG1       -0.0299
     17 C          -7.4434    2.3285   -0.3101 C.ar    1  LIG1        0.0516
     18 C          -6.8373    3.6034   -0.2215 C.ar    1  LIG1        0.0953
     19 N          -5.5051    3.7463   -0.1940 N.ar    1  LIG1       -0.2111
     20 H          -7.0133    0.2151   -0.4026 H       1  LIG1        0.0639
     21 O          -3.3959    2.8918   -0.2695 O.3     1  LIG1       -0.4919
     22 H          -3.2838    3.8563   -0.2572 H       1  LIG1        0.2937
     23 C          -8.8549    2.1399   -0.4067 C.1     1  LIG1       -0.0675
     24 C         -10.0451    1.9376   -0.4938 C.1     1  LIG1       -0.1138
     25 H         -11.0939    1.7698   -0.5782 H       1  LIG1        0.1232
     26 C          -7.3818    5.9730   -0.9773 C.ar    1  LIG1        0.2224
     27 C          -7.6324    4.8562   -0.1431 C.ar    1  LIG1        0.0642
     28 C          -8.6536    5.0187    0.7806 C.ar    1  LIG1       -0.0299
     29 C          -9.3819    6.2218    0.8765 C.ar    1  LIG1        0.0516
     30 C          -9.0607    7.2640   -0.0248 C.ar    1  LIG1        0.0953
     31 N          -8.0653    7.1087   -0.9158 N.ar    1  LIG1       -0.2111
     32 H          -8.8915    4.2120    1.4640 H       1  LIG1        0.0639
     33 O          -6.4278    5.8965   -1.9217 O.3     1  LIG1       -0.4919
     34 H          -6.4608    6.7433   -2.3971 H       1  LIG1        0.2937
     35 C         -10.3715    6.3557    1.8949 C.1     1  LIG1       -0.0675
     36 C         -11.2292    6.4477    2.7459 C.1     1  LIG1       -0.1138
     37 H         -11.9747    6.5536    3.5004 H       1  LIG1        0.1232
     38 C         -11.1168    8.8436   -0.0726 C.ar    1  LIG1        0.2218
     39 C          -9.7153    8.6020   -0.0574 C.ar    1  LIG1        0.0641
     40 C          -8.8871    9.7181   -0.2037 C.ar    1  LIG1       -0.0305
     41 C          -9.4212   11.0062   -0.3320 C.ar    1  LIG1        0.0436
     42 C         -10.8243   11.1055   -0.3375 C.ar    1  LIG1        0.0468
     43 N         -11.6376   10.0635   -0.2169 N.ar    1  LIG1       -0.2197
     44 H          -7.8135    9.5723   -0.2271 H       1  LIG1        0.0638
     45 H         -11.2960   12.0799   -0.4459 H       1  LIG1        0.0843
     46 O         -12.0525    7.8743   -0.0136 O.3     1  LIG1       -0.4919
     47 H         -11.6971    7.0775    0.4078 H       1  LIG1        0.2937
     48 C          -8.5944   12.1611   -0.4604 C.1     1  LIG1       -0.0681
     49 C          -7.8997   13.1461   -0.5695 C.1     1  LIG1       -0.1139
     50 H          -7.2889   14.0136   -0.6654 H       1  LIG1        0.1232
@<TRIPOS>BOND
     1    34    33    1
     2    10     9    1
     3     9     1    1
     4    33    26    1
     5     1     6   ar
     6     1     2   ar
     7     6     5   ar
     8    26    31   ar
     9    26    27   ar
    10    31    30   ar
    11    50    49    1
    12     8     2    1
    13    25    24    1
    14    49    48    3
    15    24    23    3
    16     2     3   ar
    17    48    41    1
    18    45    42    1
    19    23    17    1
    20    20    16    1
    21    42    41   ar
    22    42    43   ar
    23    41    40   ar
    24    16    17   ar
    25    16    15   ar
    26    17    18   ar
    27    21    22    1
    28    21    14    1
    29     5    15    1
    30     5     4   ar
    31    15    14   ar
    32    44    40    1
    33    14    19   ar
    34    18    19   ar
    35    18    27    1
    36    43    38   ar
    37    40    39   ar
    38    27    28   ar
    39    38    39   ar
    40    38    46    1
    41    39    30    1
    42    30    29   ar
    43    46    47    1
    44     3     4   ar
    45     3     7    1
    46     4    11    1
    47    28    29   ar
    48    28    32    1
    49    29    35    1
    50    11    12    3
    51    35    36    3
    52    36    37    1
    53    12    13    1
