@<TRIPOS>MOLECULE
mol_data/opt/b3lyp/geoms/mol2/6fe6fe6fe6fe.out
 50 53 0 0 0
SMALL
GASTEIGER

@<TRIPOS>ATOM
      1 C          -4.6285   -2.2581   -0.0005 C.ar    1  LIG1        0.2129
      2 C          -3.2421   -2.4538   -0.0006 C.ar    1  LIG1        0.0010
      3 C          -2.4521   -1.3196   -0.0006 C.ar    1  LIG1       -0.0392
      4 C          -3.0071   -0.0232   -0.0005 C.ar    1  LIG1        0.0510
      5 C          -4.4287    0.0828   -0.0004 C.ar    1  LIG1        0.0952
      6 N          -5.1715   -1.0499   -0.0004 N.ar    1  LIG1       -0.2116
      7 H          -1.3713   -1.4121   -0.0006 H       1  LIG1        0.0632
      8 H          -2.8063   -3.4476   -0.0007 H       1  LIG1        0.0671
      9 O          -5.5252   -3.2672   -0.0004 O.3     1  LIG1       -0.4924
     10 H          -5.0633   -4.1165   -0.0005 H       1  LIG1        0.2937
     11 C          -2.0727    1.0555   -0.0004 C.1     1  LIG1       -0.0675
     12 C          -1.1828    1.8770   -0.0004 C.1     1  LIG1       -0.1138
     13 H          -0.4277    2.6293   -0.0005 H       1  LIG1        0.1232
     14 C          -6.6575    1.3057   -0.0000 C.ar    1  LIG1        0.2224
     15 C          -5.2224    1.3301   -0.0003 C.ar    1  LIG1        0.0642
     16 C          -4.6628    2.6089   -0.0004 C.ar    1  LIG1       -0.0299
     17 C          -5.4192    3.7908   -0.0002 C.ar    1  LIG1        0.0516
     18 C          -6.8387    3.6651    0.0000 C.ar    1  LIG1        0.0953
     19 N          -7.3750    2.4272    0.0001 N.ar    1  LIG1       -0.2111
     20 H          -3.5890    2.7190   -0.0006 H       1  LIG1        0.0639
     21 O          -7.3768    0.1964    0.0001 O.3     1  LIG1       -0.4919
     22 H          -6.7181   -0.5652   -0.0001 H       1  LIG1        0.2937
     23 C          -4.6734    5.0089   -0.0004 C.1     1  LIG1       -0.0675
     24 C          -3.9401    5.9729   -0.0005 C.1     1  LIG1       -0.1138
     25 H          -3.3293    6.8461   -0.0011 H       1  LIG1        0.1232
     26 C          -9.2382    4.4895    0.0005 C.ar    1  LIG1        0.2224
     27 C          -7.8279    4.7584    0.0002 C.ar    1  LIG1        0.0642
     28 C          -7.4943    6.1144    0.0001 C.ar    1  LIG1       -0.0299
     29 C          -8.4407    7.1492    0.0003 C.ar    1  LIG1        0.0516
     30 C          -9.8218    6.7844    0.0006 C.ar    1  LIG1        0.0953
     31 N         -10.1361    5.4736    0.0007 N.ar    1  LIG1       -0.2111
     32 H          -6.4544    6.4044   -0.0001 H       1  LIG1        0.0639
     33 O          -9.7524    3.2737    0.0006 O.3     1  LIG1       -0.4919
     34 H          -8.9641    2.6377    0.0005 H       1  LIG1        0.2937
     35 C          -7.9031    8.4730    0.0002 C.1     1  LIG1       -0.0675
     36 C          -7.3284    9.5394   -0.0000 C.1     1  LIG1       -0.1138
     37 H          -6.8649   10.4988   -0.0006 H       1  LIG1        0.1232
     38 C         -12.3374    7.1935    0.0012 C.ar    1  LIG1        0.2218
     39 C         -10.9838    7.6984    0.0008 C.ar    1  LIG1        0.0641
     40 C         -10.8506    9.0926    0.0006 C.ar    1  LIG1       -0.0305
     41 C         -11.9684    9.9333    0.0009 C.ar    1  LIG1        0.0436
     42 C         -13.2318    9.3110    0.0012 C.ar    1  LIG1        0.0468
     43 N         -13.4097    7.9995    0.0014 N.ar    1  LIG1       -0.2197
     44 H          -9.8694    9.5420    0.0004 H       1  LIG1        0.0638
     45 H         -14.1318    9.9236    0.0014 H       1  LIG1        0.0843
     46 O         -12.6253    5.9028    0.0013 O.3     1  LIG1       -0.4919
     47 H         -11.7432    5.4143    0.0011 H       1  LIG1        0.2937
     48 C         -11.8442   11.3543    0.0007 C.1     1  LIG1       -0.0681
     49 C         -11.7507   12.5613    0.0006 C.1     1  LIG1       -0.1139
     50 H         -11.6714   13.6234    0.0005 H       1  LIG1        0.1232
@<TRIPOS>BOND
     1    25    24    1
     2     8     2    1
     3     7     3    1
     4    37    36    1
     5     2     3   ar
     6     2     1   ar
     7     3     4   ar
     8    20    16    1
     9    24    23    3
    10    13    12    1
    11    10     9    1
    12     1     9    1
    13     1     6   ar
    14     4    11    1
    15     4     5   ar
    16    11    12    3
    17    23    17    1
    18    16    15   ar
    19    16    17   ar
    20     6     5   ar
    21     5    15    1
    22    15    14   ar
    23    17    18   ar
    24    32    28    1
    25    22    21    1
    26    14    21    1
    27    14    19   ar
    28    36    35    3
    29    18    19   ar
    30    18    27    1
    31    28    27   ar
    32    28    29   ar
    33    35    29    1
    34    27    26   ar
    35    29    30   ar
    36    44    40    1
    37    34    33    1
    38    26    33    1
    39    26    31   ar
    40    50    49    1
    41    30    31   ar
    42    30    39    1
    43    49    48    3
    44    40    39   ar
    45    40    41   ar
    46    48    41    1
    47    39    38   ar
    48    41    42   ar
    49    47    46    1
    50    38    46    1
    51    38    43   ar
    52    42    43   ar
    53    42    45    1
