@<TRIPOS>MOLECULE
mol_data/opt/b3lyp/geoms/mol2/6fe6fe-.out
 26 27 0 0 0
SMALL
GASTEIGER

@<TRIPOS>ATOM
      1 C          -4.4001   -2.0069   -0.6339 C.ar    1  LIG1        0.2129
      2 C          -3.0715   -2.0798   -0.1842 C.ar    1  LIG1        0.0010
      3 C          -2.4939   -0.9193    0.2997 C.ar    1  LIG1       -0.0392
      4 C          -3.2192    0.2873    0.3112 C.ar    1  LIG1        0.0510
      5 C          -4.5341    0.2523   -0.2149 C.ar    1  LIG1        0.0952
      6 N          -5.1016   -0.8812   -0.6509 N.ar    1  LIG1       -0.2116
      7 H          -1.4808   -0.9296    0.6876 H       1  LIG1        0.0632
      8 H          -2.5197   -3.0153   -0.1998 H       1  LIG1        0.0671
      9 O          -5.0719   -3.0929   -1.0916 O.3     1  LIG1       -0.4924
     10 H          -4.4946   -3.8666   -1.0453 H       1  LIG1        0.2937
     11 C          -2.6432    1.4520    0.8983 C.1     1  LIG1       -0.0675
     12 C          -2.1263    2.4040    1.4377 C.1     1  LIG1       -0.1138
     13 H          -1.6844    3.2557    1.9003 H       1  LIG1        0.1232
     14 C          -5.0339    2.6663   -0.8848 C.ar    1  LIG1        0.2218
     15 C          -5.4099    1.4541   -0.2657 C.ar    1  LIG1        0.0641
     16 C          -6.7000    1.3972    0.2514 C.ar    1  LIG1       -0.0305
     17 C          -7.5425    2.5233    0.2100 C.ar    1  LIG1        0.0436
     18 C          -7.0254    3.6831   -0.3877 C.ar    1  LIG1        0.0468
     19 N          -5.8092    3.7478   -0.9316 N.ar    1  LIG1       -0.2197
     20 H          -7.0505    0.4712    0.6932 H       1  LIG1        0.0638
     21 H          -7.6277    4.5869   -0.4330 H       1  LIG1        0.0843
     22 O          -3.8410    2.7478   -1.5069 O.3     1  LIG1       -0.4919
     23 H          -3.7840    3.6533   -1.8526 H       1  LIG1        0.2937
     24 C          -8.8610    2.4998    0.7539 C.1     1  LIG1       -0.0681
     25 C          -9.9801    2.4859    1.2140 C.1     1  LIG1       -0.1139
     26 H         -10.9656    2.4710    1.6182 H       1  LIG1        0.1232
@<TRIPOS>BOND
     1    23    22    1
     2    22    14    1
     3     9    10    1
     4     9     1    1
     5    19    14   ar
     6    19    18   ar
     7    14    15   ar
     8     6     1   ar
     9     6     5   ar
    10     1     2   ar
    11    21    18    1
    12    18    17   ar
    13    15     5    1
    14    15    16   ar
    15     5     4   ar
    16     8     2    1
    17     2     3   ar
    18    17    16   ar
    19    17    24    1
    20    16    20    1
    21     3     4   ar
    22     3     7    1
    23     4    11    1
    24    24    25    3
    25    11    12    3
    26    25    26    1
    27    12    13    1
