@<TRIPOS>MOLECULE
mol_data/opt/b3lyp/geoms/mol2/6fe6fe6fe.out
 38 40 0 0 0
SMALL
GASTEIGER

@<TRIPOS>ATOM
      1 C          -4.5394   -2.1553   -0.0004 C.ar    1  LIG1        0.2129
      2 C          -3.1451   -2.2803   -0.0005 C.ar    1  LIG1        0.0010
      3 C          -2.4144   -1.1067   -0.0004 C.ar    1  LIG1       -0.0392
      4 C          -3.0349    0.1593   -0.0003 C.ar    1  LIG1        0.0510
      5 C          -4.4608    0.1930   -0.0003 C.ar    1  LIG1        0.0952
      6 N          -5.1440   -0.9770   -0.0003 N.ar    1  LIG1       -0.2116
      7 H          -1.3303   -1.1434   -0.0004 H       1  LIG1        0.0632
      8 H          -2.6588   -3.2503   -0.0005 H       1  LIG1        0.0671
      9 O          -5.3832   -3.2099   -0.0004 O.3     1  LIG1       -0.4924
     10 H          -4.8772   -4.0336   -0.0005 H       1  LIG1        0.2937
     11 C          -2.1561    1.2837   -0.0002 C.1     1  LIG1       -0.0675
     12 C          -1.3086    2.1490   -0.0001 C.1     1  LIG1       -0.1138
     13 H          -0.5942    2.9399    0.0006 H       1  LIG1        0.1232
     14 C          -6.7478    1.3040   -0.0000 C.ar    1  LIG1        0.2224
     15 C          -5.3166    1.3977   -0.0002 C.ar    1  LIG1        0.0642
     16 C          -4.8226    2.7037   -0.0003 C.ar    1  LIG1       -0.0299
     17 C          -5.6361    3.8463   -0.0003 C.ar    1  LIG1        0.0516
     18 C          -7.0507    3.6523   -0.0001 C.ar    1  LIG1        0.0953
     19 N          -7.5197    2.3883    0.0001 N.ar    1  LIG1       -0.2111
     20 H          -3.7558    2.8677   -0.0005 H       1  LIG1        0.0639
     21 O          -7.4124    0.1596    0.0001 O.3     1  LIG1       -0.4919
     22 H          -6.7185   -0.5682   -0.0001 H       1  LIG1        0.2937
     23 C          -4.9411    5.0946   -0.0004 C.1     1  LIG1       -0.0675
     24 C          -4.2408    6.0830   -0.0005 C.1     1  LIG1       -0.1138
     25 H          -3.6642    6.9790   -0.0012 H       1  LIG1        0.1232
     26 C          -9.4984    4.3623    0.0004 C.ar    1  LIG1        0.2218
     27 C          -8.0938    4.6996    0.0000 C.ar    1  LIG1        0.0641
     28 C          -7.7929    6.0677   -0.0002 C.ar    1  LIG1       -0.0305
     29 C          -8.8009    7.0373   -0.0001 C.ar    1  LIG1        0.0436
     30 C         -10.1302    6.5722    0.0003 C.ar    1  LIG1        0.0468
     31 N         -10.4652    5.2918    0.0005 N.ar    1  LIG1       -0.2197
     32 H          -6.7647    6.3954   -0.0006 H       1  LIG1        0.0638
     33 H         -10.9497    7.2889    0.0004 H       1  LIG1        0.0843
     34 O          -9.9409    3.1156    0.0007 O.3     1  LIG1       -0.4919
     35 H          -9.1261    2.5238    0.0006 H       1  LIG1        0.2937
     36 C          -8.5058    8.4328   -0.0005 C.1     1  LIG1       -0.0681
     37 C          -8.2673    9.6197   -0.0007 C.1     1  LIG1       -0.1139
     38 H          -8.0602   10.6645   -0.0008 H       1  LIG1        0.1232
@<TRIPOS>BOND
     1    25    24    1
     2    38    37    1
     3    37    36    3
     4    32    28    1
     5    24    23    3
     6     8     2    1
     7    20    16    1
     8    10     9    1
     9     2     3   ar
    10     2     1   ar
    11    36    29    1
    12     7     3    1
    13     9     1    1
    14     3     4   ar
    15     1     6   ar
    16    23    17    1
    17    16    17   ar
    18    16    15   ar
    19     6     5   ar
    20     4     5   ar
    21     4    11    1
    22     5    15    1
    23    17    18   ar
    24    28    29   ar
    25    28    27   ar
    26    11    12    3
    27    15    14   ar
    28    29    30   ar
    29    12    13    1
    30    18    27    1
    31    18    19   ar
    32    22    21    1
    33    14    19   ar
    34    14    21    1
    35    27    26   ar
    36    30    33    1
    37    30    31   ar
    38    26    31   ar
    39    26    34    1
    40    35    34    1
