@<TRIPOS>MOLECULE
mol_data/opt/b3lyp/geoms/mol2/6fe6fe-6fe-6fe-.out
 50 53 0 0 0
SMALL
GASTEIGER

@<TRIPOS>ATOM
      1 C          -4.0105   -1.9548   -1.2042 C.ar    1  LIG1        0.2129
      2 C          -2.9166   -2.2312   -0.3674 C.ar    1  LIG1        0.0010
      3 C          -2.5896   -1.2900    0.5924 C.ar    1  LIG1       -0.0392
      4 C          -3.3228   -0.0925    0.6961 C.ar    1  LIG1        0.0510
      5 C          -4.3721    0.1017   -0.2359 C.ar    1  LIG1        0.0952
      6 N          -4.7079   -0.8284   -1.1413 N.ar    1  LIG1       -0.2116
      7 H          -1.7735   -1.4703    1.2841 H       1  LIG1        0.0632
      8 H          -2.3554   -3.1570   -0.4575 H       1  LIG1        0.0671
      9 O          -4.4386   -2.8272   -2.1506 O.3     1  LIG1       -0.4924
     10 H          -3.8817   -3.6168   -2.1302 H       1  LIG1        0.2937
     11 C          -3.0348    0.8228    1.7506 C.1     1  LIG1       -0.0675
     12 C          -2.7779    1.5519    2.6816 C.1     1  LIG1       -0.1138
     13 H          -2.5592    2.2118    3.4888 H       1  LIG1        0.1232
     14 C          -4.7111    2.6362   -0.3114 C.ar    1  LIG1        0.2224
     15 C          -5.2222    1.3215   -0.2424 C.ar    1  LIG1        0.0642
     16 C          -6.6064    1.2097   -0.2581 C.ar    1  LIG1       -0.0299
     17 C          -7.4370    2.3463   -0.2647 C.ar    1  LIG1        0.0516
     18 C          -6.8036    3.6116   -0.2640 C.ar    1  LIG1        0.0953
     19 N          -5.4687    3.7249   -0.3024 N.ar    1  LIG1       -0.2111
     20 H          -7.0537    0.2222   -0.2689 H       1  LIG1        0.0639
     21 O          -3.3821    2.8236   -0.4289 O.3     1  LIG1       -0.4919
     22 H          -3.2537    3.7855   -0.4670 H       1  LIG1        0.2937
     23 C          -8.8548    2.1826   -0.2914 C.1     1  LIG1       -0.0675
     24 C         -10.0510    1.9997   -0.3174 C.1     1  LIG1       -0.1138
     25 H         -11.1058    1.8524   -0.3449 H       1  LIG1        0.1232
     26 C          -7.3316    5.9524   -1.1070 C.ar    1  LIG1        0.2224
     27 C          -7.5682    4.8844   -0.2091 C.ar    1  LIG1        0.0642
     28 C          -8.5439    5.1095    0.7530 C.ar    1  LIG1       -0.0299
     29 C          -9.2352    6.3345    0.8322 C.ar    1  LIG1        0.0516
     30 C          -8.9047    7.3273   -0.1179 C.ar    1  LIG1        0.0953
     31 N          -7.9747    7.1120   -1.0593 N.ar    1  LIG1       -0.2111
     32 H          -8.7728    4.3346    1.4750 H       1  LIG1        0.0639
     33 O          -6.4364    5.8029   -2.1017 O.3     1  LIG1       -0.4919
     34 H          -6.4570    6.6401   -2.5942 H       1  LIG1        0.2937
     35 C         -10.1961    6.5336    1.8687 C.1     1  LIG1       -0.0675
     36 C         -11.0006    6.6622    2.7639 C.1     1  LIG1       -0.1138
     37 H         -11.7091    6.7925    3.5487 H       1  LIG1        0.1232
     38 C          -8.8453    9.8640   -0.1816 C.ar    1  LIG1        0.2218
     39 C          -9.5768    8.6532   -0.1517 C.ar    1  LIG1        0.0641
     40 C         -10.9625    8.7675   -0.1831 C.ar    1  LIG1       -0.0305
     41 C         -11.5817   10.0297   -0.2588 C.ar    1  LIG1        0.0436
     42 C         -10.7395   11.1502   -0.2982 C.ar    1  LIG1        0.0468
     43 N          -9.4085   11.0685   -0.2550 N.ar    1  LIG1       -0.2197
     44 H         -11.5757    7.8742   -0.1585 H       1  LIG1        0.0638
     45 H         -11.1640   12.1486   -0.3653 H       1  LIG1        0.0843
     46 O          -7.5007    9.8318   -0.1023 O.3     1  LIG1       -0.4919
     47 H          -7.2187   10.7611   -0.1155 H       1  LIG1        0.2937
     48 C         -13.0003   10.1707   -0.3038 C.1     1  LIG1       -0.0681
     49 C         -14.2034   10.2957   -0.3418 C.1     1  LIG1       -0.1139
     50 H         -15.2625   10.4053   -0.3767 H       1  LIG1        0.1232
@<TRIPOS>BOND
     1    34    33    1
     2     9    10    1
     3     9     1    1
     4    33    26    1
     5     1     6   ar
     6     1     2   ar
     7     6     5   ar
     8    26    31   ar
     9    26    27   ar
    10    31    30   ar
    11    22    21    1
    12     8     2    1
    13    21    14    1
    14    50    49    1
    15     2     3   ar
    16    45    42    1
    17    25    24    1
    18    49    48    3
    19    24    23    3
    20    14    19   ar
    21    14    15   ar
    22    48    41    1
    23    19    18   ar
    24    42    41   ar
    25    42    43   ar
    26    23    17    1
    27    20    16    1
    28    17    18   ar
    29    17    16   ar
    30    18    27    1
    31    41    40   ar
    32    16    15   ar
    33    43    38   ar
    34    15     5    1
    35     5     4   ar
    36    27    28   ar
    37    40    44    1
    38    40    39   ar
    39    38    39   ar
    40    38    46    1
    41    39    30    1
    42    30    29   ar
    43    47    46    1
    44     3     4   ar
    45     3     7    1
    46     4    11    1
    47    28    29   ar
    48    28    32    1
    49    29    35    1
    50    11    12    3
    51    35    36    3
    52    12    13    1
    53    36    37    1
