@<TRIPOS>MOLECULE
mol_data/opt/b3lyp/geoms/mol2/6fe6fe-6fe.out
 38 40 0 0 0
SMALL
GASTEIGER

@<TRIPOS>ATOM
      1 C          -4.1169   -1.8035   -1.2907 C.ar    1  LIG1        0.2129
      2 C          -2.9227   -2.0614   -0.5968 C.ar    1  LIG1        0.0010
      3 C          -2.5073   -1.1275    0.3354 C.ar    1  LIG1       -0.0392
      4 C          -3.2541    0.0468    0.5505 C.ar    1  LIG1        0.0510
      5 C          -4.4117    0.2253   -0.2456 C.ar    1  LIG1        0.0952
      6 N          -4.8309   -0.6983   -1.1222 N.ar    1  LIG1       -0.2116
      7 H          -1.6093   -1.2960    0.9203 H       1  LIG1        0.0632
      8 H          -2.3521   -2.9688   -0.7723 H       1  LIG1        0.0671
      9 O          -4.6333   -2.6716   -2.1951 O.3     1  LIG1       -0.4924
     10 H          -4.0589   -3.4463   -2.2580 H       1  LIG1        0.2937
     11 C          -2.8677    0.9533    1.5807 C.1     1  LIG1       -0.0675
     12 C          -2.5242    1.6764    2.4882 C.1     1  LIG1       -0.1138
     13 H          -2.2314    2.3283    3.2784 H       1  LIG1        0.1232
     14 C          -4.8238    2.7522   -0.2290 C.ar    1  LIG1        0.2224
     15 C          -5.2875    1.4210   -0.1281 C.ar    1  LIG1        0.0642
     16 C          -6.6602    1.2756    0.0048 C.ar    1  LIG1       -0.0299
     17 C          -7.5121    2.3917    0.1215 C.ar    1  LIG1        0.0516
     18 C          -6.9232    3.6794    0.1072 C.ar    1  LIG1        0.0953
     19 N          -5.6015    3.8180   -0.0980 N.ar    1  LIG1       -0.2111
     20 H          -7.0851    0.2782    0.0113 H       1  LIG1        0.0639
     21 O          -3.5266    2.9759   -0.5071 O.3     1  LIG1       -0.4919
     22 H          -3.4137    3.9404   -0.5125 H       1  LIG1        0.2937
     23 C          -8.9202    2.1866    0.2191 C.1     1  LIG1       -0.0675
     24 C         -10.1126    2.0014    0.3307 C.1     1  LIG1       -0.1138
     25 H         -11.1656    1.8555    0.4085 H       1  LIG1        0.1232
     26 C          -8.6289    5.2672    1.2455 C.ar    1  LIG1        0.2218
     27 C          -7.6633    4.9648    0.2454 C.ar    1  LIG1        0.0641
     28 C          -7.2951    6.0118   -0.6042 C.ar    1  LIG1       -0.0305
     29 C          -7.8690    7.2830   -0.4810 C.ar    1  LIG1        0.0436
     30 C          -8.8029    7.4514    0.5573 C.ar    1  LIG1        0.0468
     31 N          -9.1638    6.4814    1.3883 N.ar    1  LIG1       -0.2197
     32 H          -6.5423    5.8287   -1.3619 H       1  LIG1        0.0638
     33 H          -9.2713    8.4214    0.7100 H       1  LIG1        0.0843
     34 O          -9.0456    4.3932    2.1841 O.3     1  LIG1       -0.4919
     35 H          -8.9495    3.4801    1.8725 H       1  LIG1        0.2937
     36 C          -7.5228    8.3591   -1.3505 C.1     1  LIG1       -0.0681
     37 C          -7.2339    9.2773   -2.0841 C.1     1  LIG1       -0.1139
     38 H          -6.9811   10.0857   -2.7302 H       1  LIG1        0.1232
@<TRIPOS>BOND
     1    38    37    1
     2    10     9    1
     3     9     1    1
     4    37    36    3
     5    32    28    1
     6    36    29    1
     7     1     6   ar
     8     1     2   ar
     9     6     5   ar
    10     8     2    1
    11    28    29   ar
    12    28    27   ar
    13     2     3   ar
    14    22    21    1
    15    21    14    1
    16    29    30   ar
    17     5    15    1
    18     5     4   ar
    19    14    15   ar
    20    14    19   ar
    21    15    16   ar
    22    19    18   ar
    23    16    20    1
    24    16    17   ar
    25    18    17   ar
    26    18    27    1
    27    17    23    1
    28    23    24    3
    29    27    26   ar
    30    24    25    1
    31     3     4   ar
    32     3     7    1
    33     4    11    1
    34    30    33    1
    35    30    31   ar
    36    26    31   ar
    37    26    34    1
    38    11    12    3
    39    35    34    1
    40    12    13    1
