@<TRIPOS>MOLECULE
mol_data/opt/b3lyp/geoms/mol2/6ff.out
 13 13 0 0 0
SMALL
GASTEIGER

@<TRIPOS>ATOM
      1 C          -4.5718   -2.0338    0.0001 C.ar    1  LIG1        0.2124
      2 C          -3.1667   -2.0183    0.0000 C.ar    1  LIG1        0.0033
      3 C          -2.5157   -0.7925   -0.0002 C.ar    1  LIG1       -0.0136
      4 C          -3.2808    0.3775   -0.0003 C.ar    1  LIG1        0.1351
      5 C          -4.6704    0.2473   -0.0002 C.ar    1  LIG1        0.0728
      6 N          -5.3051   -0.9288    0.0000 N.ar    1  LIG1       -0.2178
      7 H          -1.4327   -0.7263   -0.0002 H       1  LIG1        0.0656
      8 H          -2.5958   -2.9439    0.0001 H       1  LIG1        0.0672
      9 H          -5.3024    1.1367   -0.0002 H       1  LIG1        0.0868
     10 O          -5.2895   -3.1941    0.0003 O.3     1  LIG1       -0.4924
     11 H          -4.6774   -3.9412    0.0003 H       1  LIG1        0.2937
     12 O          -2.6329    1.5829   -0.0005 O.3     1  LIG1       -0.5052
     13 H          -3.2891    2.2926   -0.0005 H       1  LIG1        0.2922
@<TRIPOS>BOND
     1    13    12    1
     2    12     4    1
     3     4     5   ar
     4     4     3   ar
     5     9     5    1
     6     7     3    1
     7     5     6   ar
     8     3     2   ar
     9     6     1   ar
    10     2     8    1
    11     2     1   ar
    12     1    10    1
    13    10    11    1
