@<TRIPOS>MOLECULE
mol_data/opt/b3lyp/geoms/mol2/6ff6ff-6ff6ff-.out
 46 49 0 0 0
SMALL
GASTEIGER

@<TRIPOS>ATOM
      1 C          -4.4629   -2.2600   -0.0003 C.ar    1  LIG1        0.2130
      2 C          -3.0695   -2.4483   -0.0005 C.ar    1  LIG1        0.0033
      3 C          -2.2869   -1.3140   -0.0005 C.ar    1  LIG1       -0.0130
      4 C          -2.8565   -0.0249   -0.0004 C.ar    1  LIG1        0.1431
      5 C          -4.2715    0.0681   -0.0003 C.ar    1  LIG1        0.1212
      6 N          -5.0108   -1.0683   -0.0003 N.ar    1  LIG1       -0.2092
      7 H          -1.2038   -1.3748   -0.0006 H       1  LIG1        0.0656
      8 H          -2.6239   -3.4391   -0.0005 H       1  LIG1        0.0672
      9 O          -5.3460   -3.3021   -0.0003 O.3     1  LIG1       -0.4924
     10 H          -4.8508   -4.1314   -0.0004 H       1  LIG1        0.2937
     11 O          -1.9523    0.9767   -0.0005 O.3     1  LIG1       -0.5046
     12 H          -2.3893    1.8507   -0.0004 H       1  LIG1        0.2922
     13 C          -4.7887    2.6671    0.0000 C.ar    1  LIG1        0.2226
     14 C          -5.1322    1.2966   -0.0002 C.ar    1  LIG1        0.0689
     15 C          -6.5205    1.1108   -0.0003 C.ar    1  LIG1       -0.0036
     16 C          -7.4348    2.1556   -0.0003 C.ar    1  LIG1        0.1438
     17 C          -6.9901    3.4951   -0.0001 C.ar    1  LIG1        0.1213
     18 N          -5.6489    3.6596    0.0001 N.ar    1  LIG1       -0.2086
     19 H          -6.8740    0.0843   -0.0005 H       1  LIG1        0.0663
     20 O          -3.4762    3.0689    0.0003 O.3     1  LIG1       -0.4919
     21 H          -3.4843    4.0392    0.0004 H       1  LIG1        0.2937
     22 O          -8.7784    1.8490   -0.0006 O.3     1  LIG1       -0.5046
     23 H          -8.9049    0.8917   -0.0006 H       1  LIG1        0.2922
     24 C          -9.1898    4.9940    0.0004 C.ar    1  LIG1        0.2226
     25 C          -7.7719    4.7730    0.0001 C.ar    1  LIG1        0.0689
     26 C          -7.0217    5.9531   -0.0001 C.ar    1  LIG1       -0.0036
     27 C          -7.5628    7.2405    0.0001 C.ar    1  LIG1        0.1438
     28 C          -8.9751    7.3478    0.0004 C.ar    1  LIG1        0.1213
     29 N          -9.6967    6.2124    0.0005 N.ar    1  LIG1       -0.2086
     30 H          -5.9433    5.8864   -0.0003 H       1  LIG1        0.0663
     31 O         -10.1457    4.0455    0.0007 O.3     1  LIG1       -0.4919
     32 H          -9.7547    3.1529    0.0005 H       1  LIG1        0.2937
     33 O          -6.6410    8.2319   -0.0001 O.3     1  LIG1       -0.5046
     34 H          -7.0717    9.1080   -0.0000 H       1  LIG1        0.2922
     35 C          -9.4740    9.9411    0.0005 C.ar    1  LIG1        0.2220
     36 C          -9.8422    8.5768    0.0005 C.ar    1  LIG1        0.0688
     37 C         -11.2339    8.3671    0.0008 C.ar    1  LIG1       -0.0043
     38 C         -12.1388    9.4229    0.0010 C.ar    1  LIG1        0.1357
     39 C         -11.6367   10.7239    0.0009 C.ar    1  LIG1        0.0728
     40 N         -10.3233   10.9583    0.0007 N.ar    1  LIG1       -0.2172
     41 H         -11.5724    7.3361    0.0008 H       1  LIG1        0.0663
     42 H         -12.3055   11.5798    0.0010 H       1  LIG1        0.0868
     43 O          -8.1564   10.3314    0.0003 O.3     1  LIG1       -0.4919
     44 H          -8.1660   11.3017    0.0003 H       1  LIG1        0.2937
     45 O         -13.4942    9.2531    0.0012 O.3     1  LIG1       -0.5052
     46 H         -13.6906    8.3068    0.0013 H       1  LIG1        0.2922
@<TRIPOS>BOND
     1    23    22    1
     2     7     3    1
     3    22    16    1
     4    11     4    1
     5    11    12    1
     6    19    15    1
     7     8     2    1
     8     3     2   ar
     9     3     4   ar
    10     2     1   ar
    11     4     5   ar
    12    10     9    1
    13    15    16   ar
    14    15    14   ar
    15     1     9    1
    16     1     6   ar
    17    16    17   ar
    18    30    26    1
    19     5     6   ar
    20     5    14    1
    21    14    13   ar
    22    33    34    1
    23    33    27    1
    24    17    18   ar
    25    17    25    1
    26    26    27   ar
    27    26    25   ar
    28    13    18   ar
    29    13    20    1
    30    27    28   ar
    31    25    24   ar
    32    20    21    1
    33    44    43    1
    34    43    35    1
    35    28    29   ar
    36    28    36    1
    37    24    29   ar
    38    24    31    1
    39    32    31    1
    40    35    36   ar
    41    35    40   ar
    42    36    37   ar
    43    40    39   ar
    44    37    41    1
    45    37    38   ar
    46    39    38   ar
    47    39    42    1
    48    38    45    1
    49    45    46    1
