@<TRIPOS>MOLECULE
mol_data/opt/b3lyp/geoms/mol2/6ff6ff6ff.out
 35 37 0 0 0
SMALL
GASTEIGER

@<TRIPOS>ATOM
      1 C          -4.4236   -2.1437   -0.5069 C.ar    1  LIG1        0.2130
      2 C          -3.0627   -2.2318   -0.1800 C.ar    1  LIG1        0.0033
      3 C          -2.4386   -1.0853    0.2858 C.ar    1  LIG1       -0.0130
      4 C          -3.1451    0.1171    0.3788 C.ar    1  LIG1        0.1431
      5 C          -4.4888    0.1451   -0.0520 C.ar    1  LIG1        0.1212
      6 N          -5.0919   -1.0032   -0.4438 N.ar    1  LIG1       -0.2092
      7 H          -1.4005   -1.0976    0.6011 H       1  LIG1        0.0656
      8 H          -2.5224   -3.1703   -0.2585 H       1  LIG1        0.0672
      9 O          -5.1633   -3.2081   -0.9106 O.3     1  LIG1       -0.4924
     10 H          -4.6134   -4.0024   -0.9049 H       1  LIG1        0.2937
     11 O          -2.4691    1.1883    0.8944 O.3     1  LIG1       -0.5046
     12 H          -3.1024    1.8252    1.2543 H       1  LIG1        0.2922
     13 C          -6.7627    1.2582    0.0080 C.ar    1  LIG1        0.2226
     14 C          -5.3375    1.3553   -0.0658 C.ar    1  LIG1        0.0689
     15 C          -4.8197    2.6549   -0.1397 C.ar    1  LIG1       -0.0036
     16 C          -5.6425    3.7785   -0.0997 C.ar    1  LIG1        0.1438
     17 C          -7.0380    3.5915   -0.0143 C.ar    1  LIG1        0.1213
     18 N          -7.5350    2.3370    0.0572 N.ar    1  LIG1       -0.2086
     19 H          -3.7575    2.8319   -0.2656 H       1  LIG1        0.0663
     20 O          -7.4099    0.0918    0.0344 O.3     1  LIG1       -0.4919
     21 H          -6.7440   -0.6099   -0.1988 H       1  LIG1        0.2937
     22 O          -5.0158    4.9953   -0.1355 O.3     1  LIG1       -0.5046
     23 H          -5.6106    5.6682    0.2251 H       1  LIG1        0.2922
     24 C          -9.3030    4.5043    0.6634 C.ar    1  LIG1        0.2220
     25 C          -8.0263    4.6897    0.0370 C.ar    1  LIG1        0.0688
     26 C          -7.7789    5.9516   -0.5279 C.ar    1  LIG1       -0.0043
     27 C          -8.7110    6.9775   -0.3908 C.ar    1  LIG1        0.1357
     28 C          -9.8770    6.7056    0.3264 C.ar    1  LIG1        0.0728
     29 N         -10.1694    5.5041    0.8220 N.ar    1  LIG1       -0.2172
     30 H          -6.8949    6.1408   -1.1273 H       1  LIG1        0.0663
     31 H         -10.6176    7.4914    0.4889 H       1  LIG1        0.0868
     32 O          -9.7053    3.3185    1.1306 O.3     1  LIG1       -0.4919
     33 H          -9.0665    2.6401    0.7856 H       1  LIG1        0.2937
     34 O          -8.4328    8.1921   -0.9586 O.3     1  LIG1       -0.5052
     35 H          -9.1838    8.7840   -0.8183 H       1  LIG1        0.2922
@<TRIPOS>BOND
     1    30    26    1
     2    34    35    1
     3    34    27    1
     4     9    10    1
     5     9     1    1
     6    26    27   ar
     7    26    25   ar
     8     1     6   ar
     9     1     2   ar
    10     6     5   ar
    11    27    28   ar
    12    19    15    1
    13     8     2    1
    14    21    20    1
    15     2     3   ar
    16    15    16   ar
    17    15    14   ar
    18    22    16    1
    19    22    23    1
    20    16    17   ar
    21    14     5    1
    22    14    13   ar
    23     5     4   ar
    24    17    25    1
    25    17    18   ar
    26    13    20    1
    27    13    18   ar
    28    25    24   ar
    29     3     4   ar
    30     3     7    1
    31    28    31    1
    32    28    29   ar
    33     4    11    1
    34    24    29   ar
    35    24    32    1
    36    33    32    1
    37    11    12    1
