@<TRIPOS>MOLECULE
mol_data/opt/b3lyp/geoms/mol2/6ff6ff6ff-6ff.out
 46 49 0 0 0
SMALL
GASTEIGER

@<TRIPOS>ATOM
      1 C          -4.4695   -2.2739    0.1979 C.ar    1  LIG1        0.2130
      2 C          -3.0699   -2.3593    0.1800 C.ar    1  LIG1        0.0033
      3 C          -2.3531   -1.1743    0.1212 C.ar    1  LIG1       -0.0130
      4 C          -3.0203    0.0516    0.0433 C.ar    1  LIG1        0.1431
      5 C          -4.4310    0.0489   -0.0106 C.ar    1  LIG1        0.1212
      6 N          -5.1077   -1.1187    0.1043 N.ar    1  LIG1       -0.2092
      7 H          -1.2686   -1.1701    0.1481 H       1  LIG1        0.0656
      8 H          -2.5618   -3.3171    0.2378 H       1  LIG1        0.0672
      9 O          -5.2798   -3.3588    0.3120 O.3     1  LIG1       -0.4924
     10 H          -4.7386   -4.1543    0.3980 H       1  LIG1        0.2937
     11 O          -2.2441    1.1748    0.0377 O.3     1  LIG1       -0.5046
     12 H          -2.7882    1.9410    0.2704 H       1  LIG1        0.2922
     13 C          -6.5990    1.3177    0.3655 C.ar    1  LIG1        0.2226
     14 C          -5.2563    1.2695   -0.1331 C.ar    1  LIG1        0.0689
     15 C          -4.7974    2.4393   -0.7457 C.ar    1  LIG1       -0.0036
     16 C          -5.5678    3.6065   -0.7951 C.ar    1  LIG1        0.1438
     17 C          -6.8350    3.5775   -0.1713 C.ar    1  LIG1        0.1213
     18 N          -7.3079    2.4331    0.3612 N.ar    1  LIG1       -0.2086
     19 H          -3.8460    2.4685   -1.2664 H       1  LIG1        0.0663
     20 O          -7.2191    0.2402    0.8647 O.3     1  LIG1       -0.4919
     21 H          -6.6490   -0.5434    0.6520 H       1  LIG1        0.2937
     22 O          -5.0483    4.6408   -1.5055 O.3     1  LIG1       -0.5046
     23 H          -5.3696    5.4858   -1.1354 H       1  LIG1        0.2922
     24 C          -7.5174    6.0832   -0.0775 C.ar    1  LIG1        0.2226
     25 C          -7.8033    4.7045   -0.1186 C.ar    1  LIG1        0.0689
     26 C          -9.1695    4.4081   -0.0446 C.ar    1  LIG1       -0.0036
     27 C         -10.1288    5.4099    0.0137 C.ar    1  LIG1        0.1438
     28 C          -9.7389    6.7618   -0.0211 C.ar    1  LIG1        0.1213
     29 N          -8.4206    7.0424   -0.0445 N.ar    1  LIG1       -0.2086
     30 H          -9.4523    3.3600   -0.0079 H       1  LIG1        0.0663
     31 O          -6.2108    6.5086   -0.0399 O.3     1  LIG1       -0.4919
     32 H          -6.2491    7.4794   -0.0435 H       1  LIG1        0.2937
     33 O         -11.4705    5.1086    0.1292 O.3     1  LIG1       -0.5046
     34 H         -11.5889    4.1489    0.1405 H       1  LIG1        0.2922
     35 C         -11.8897    8.0463   -0.6689 C.ar    1  LIG1        0.2220
     36 C         -10.6489    7.9351    0.0222 C.ar    1  LIG1        0.0688
     37 C         -10.2047    9.0663    0.7186 C.ar    1  LIG1       -0.0043
     38 C         -10.9608   10.2328    0.7207 C.ar    1  LIG1        0.1357
     39 C         -12.1525   10.2329   -0.0065 C.ar    1  LIG1        0.0728
     40 N         -12.5997    9.1722   -0.6760 N.ar    1  LIG1       -0.2172
     41 H          -9.2592    9.0358    1.2468 H       1  LIG1        0.0663
     42 H         -12.7735   11.1302   -0.0462 H       1  LIG1        0.0868
     43 O         -12.4129    7.0587   -1.4307 O.3     1  LIG1       -0.4919
     44 H         -12.1808    6.1958   -1.0429 H       1  LIG1        0.2937
     45 O         -10.5017   11.3146    1.4230 O.3     1  LIG1       -0.5052
     46 H         -11.1330   12.0401    1.3280 H       1  LIG1        0.2922
@<TRIPOS>BOND
     1    22    23    1
     2    22    16    1
     3    43    44    1
     4    43    35    1
     5    19    15    1
     6    16    15   ar
     7    16    17   ar
     8    15    14   ar
     9    40    35   ar
    10    40    39   ar
    11    35    36   ar
    12    17    25    1
    13    17    18   ar
    14    14     5    1
    15    14    13   ar
    16    25    24   ar
    17    25    26   ar
    18    24    29   ar
    19    24    31    1
    20    42    39    1
    21    26    30    1
    22    26    27   ar
    23    29    28   ar
    24    32    31    1
    25    28    27   ar
    26    28    36    1
    27     5     4   ar
    28     5     6   ar
    29    39    38   ar
    30    27    33    1
    31    36    37   ar
    32    11     4    1
    33    11    12    1
    34     4     3   ar
    35     6     1   ar
    36     3     7    1
    37     3     2   ar
    38    33    34    1
    39     2     1   ar
    40     2     8    1
    41     1     9    1
    42     9    10    1
    43    18    13   ar
    44    13    20    1
    45    21    20    1
    46    37    38   ar
    47    37    41    1
    48    38    45    1
    49    46    45    1
