@<TRIPOS>MOLECULE
mol_data/opt/b3lyp/geoms/mol2/6ff6ff-6ff-6ff-.out
 46 49 0 0 0
SMALL
GASTEIGER

@<TRIPOS>ATOM
      1 C          -4.1162   -2.0255    0.8777 C.ar    1  LIG1        0.2130
      2 C          -3.1375   -2.4270   -0.0476 C.ar    1  LIG1        0.0033
      3 C          -2.7878   -1.5272   -1.0376 C.ar    1  LIG1       -0.0130
      4 C          -3.3965   -0.2641   -1.1052 C.ar    1  LIG1        0.1431
      5 C          -4.3590    0.0525   -0.1193 C.ar    1  LIG1        0.1212
      6 N          -4.6931   -0.8416    0.8375 N.ar    1  LIG1       -0.2092
      7 H          -2.0476   -1.7745   -1.7913 H       1  LIG1        0.0656
      8 H          -2.6713   -3.4070    0.0078 H       1  LIG1        0.0672
      9 O          -4.5464   -2.8394    1.8863 O.3     1  LIG1       -0.4924
     10 H          -4.0630   -3.6743    1.8405 H       1  LIG1        0.2937
     11 O          -3.0543    0.5160   -2.1611 O.3     1  LIG1       -0.5046
     12 H          -3.1331    1.4588   -1.9136 H       1  LIG1        0.2922
     13 C          -4.7444    2.5971   -0.4586 C.ar    1  LIG1        0.2226
     14 C          -5.1548    1.3089   -0.0669 C.ar    1  LIG1        0.0689
     15 C          -6.4497    1.2601    0.4641 C.ar    1  LIG1       -0.0036
     16 C          -7.2510    2.3938    0.5504 C.ar    1  LIG1        0.1438
     17 C          -6.7439    3.6272    0.0875 C.ar    1  LIG1        0.1213
     18 N          -5.4943    3.6788   -0.4024 N.ar    1  LIG1       -0.2086
     19 H          -6.8074    0.3018    0.8294 H       1  LIG1        0.0663
     20 O          -3.4605    2.8004   -0.9115 O.3     1  LIG1       -0.4919
     21 H          -3.4042    3.7497   -1.1115 H       1  LIG1        0.2937
     22 O          -8.5186    2.3418    1.0692 O.3     1  LIG1       -0.5046
     23 H          -8.6634    1.4617    1.4421 H       1  LIG1        0.2922
     24 C          -6.9482    6.1414    0.4240 C.ar    1  LIG1        0.2226
     25 C          -7.5229    4.8849    0.1135 C.ar    1  LIG1        0.0689
     26 C          -8.8870    4.9111   -0.1894 C.ar    1  LIG1       -0.0036
     27 C          -9.6099    6.1023   -0.1889 C.ar    1  LIG1        0.1438
     28 C          -8.9405    7.2994    0.1253 C.ar    1  LIG1        0.1213
     29 N          -7.6300    7.2759    0.4196 N.ar    1  LIG1       -0.2086
     30 H          -9.3938    3.9798   -0.4214 H       1  LIG1        0.0663
     31 O          -5.6448    6.2304    0.7805 O.3     1  LIG1       -0.4919
     32 H          -5.5167    7.1665    1.0060 H       1  LIG1        0.2937
     33 O         -10.9499    6.1371   -0.4886 O.3     1  LIG1       -0.5046
     34 H         -11.2745    5.2296   -0.5571 H       1  LIG1        0.2922
     35 C          -9.3878    9.5793    1.1539 C.ar    1  LIG1        0.2220
     36 C          -9.6202    8.6176    0.1425 C.ar    1  LIG1        0.0688
     37 C         -10.5201    8.9852   -0.8629 C.ar    1  LIG1       -0.0043
     38 C         -11.1239   10.2429   -0.8518 C.ar    1  LIG1        0.1357
     39 C         -10.8044   11.1147    0.1877 C.ar    1  LIG1        0.0728
     40 N          -9.9589   10.7800    1.1674 N.ar    1  LIG1       -0.2172
     41 H         -10.7460    8.2785   -1.6555 H       1  LIG1        0.0663
     42 H         -11.2513   12.1050    0.2246 H       1  LIG1        0.0868
     43 O          -8.5756    9.2889    2.1986 O.3     1  LIG1       -0.4919
     44 H          -8.6082   10.0767    2.7648 H       1  LIG1        0.2937
     45 O         -12.0058   10.6710   -1.8082 O.3     1  LIG1       -0.5052
     46 H         -12.1488    9.9599   -2.4460 H       1  LIG1        0.2922
@<TRIPOS>BOND
     1    46    45    1
     2    11    12    1
     3    11     4    1
     4    45    38    1
     5     7     3    1
     6    41    37    1
     7    21    20    1
     8     4     3   ar
     9     4     5   ar
    10     3     2   ar
    11    20    13    1
    12    37    38   ar
    13    37    36   ar
    14    38    39   ar
    15    34    33    1
    16    33    27    1
    17    13    18   ar
    18    13    14   ar
    19    30    26    1
    20    18    17   ar
    21    26    27   ar
    22    26    25   ar
    23    27    28   ar
    24     5    14    1
    25     5     6   ar
    26    14    15   ar
    27     2     8    1
    28     2     1   ar
    29    17    25    1
    30    17    16   ar
    31    25    24   ar
    32    28    36    1
    33    28    29   ar
    34    36    35   ar
    35    39    42    1
    36    39    40   ar
    37    29    24   ar
    38    24    31    1
    39    15    16   ar
    40    15    19    1
    41    16    22    1
    42    31    32    1
    43     6     1   ar
    44     1     9    1
    45    22    23    1
    46    35    40   ar
    47    35    43    1
    48    10     9    1
    49    43    44    1
