@<TRIPOS>MOLECULE
mol_data/opt/b3lyp/geoms/mol2/6ff6ff6ff-6ff-.out
 46 49 0 0 0
SMALL
GASTEIGER

@<TRIPOS>ATOM
      1 C          -4.5160   -2.2883    0.2034 C.ar    1  LIG1        0.2130
      2 C          -3.1203   -2.3945    0.1240 C.ar    1  LIG1        0.0033
      3 C          -2.3909   -1.2207    0.0121 C.ar    1  LIG1       -0.0130
      4 C          -3.0442    0.0129   -0.0572 C.ar    1  LIG1        0.1431
      5 C          -4.4561    0.0299   -0.0470 C.ar    1  LIG1        0.1212
      6 N          -5.1425   -1.1259    0.1185 N.ar    1  LIG1       -0.2092
      7 H          -1.3062   -1.2316   -0.0098 H       1  LIG1        0.0656
      8 H          -2.6232   -3.3584    0.1756 H       1  LIG1        0.0672
      9 O          -5.3351   -3.3601    0.3723 O.3     1  LIG1       -0.4924
     10 H          -4.8002   -4.1608    0.4498 H       1  LIG1        0.2937
     11 O          -2.2543    1.1249   -0.1172 O.3     1  LIG1       -0.5046
     12 H          -2.7794    1.9030    0.1200 H       1  LIG1        0.2922
     13 C          -6.5828    1.3403    0.4112 C.ar    1  LIG1        0.2226
     14 C          -5.2679    1.2607   -0.1515 C.ar    1  LIG1        0.0689
     15 C          -4.8214    2.4129   -0.8069 C.ar    1  LIG1       -0.0036
     16 C          -5.5747    3.5911   -0.8386 C.ar    1  LIG1        0.1438
     17 C          -6.8098    3.5946   -0.1512 C.ar    1  LIG1        0.1213
     18 N          -7.2736    2.4672    0.4231 N.ar    1  LIG1       -0.2086
     19 H          -3.8972    2.4172   -1.3754 H       1  LIG1        0.0663
     20 O          -7.1951    0.2809    0.9589 O.3     1  LIG1       -0.4919
     21 H          -6.6492   -0.5150    0.7318 H       1  LIG1        0.2937
     22 O          -5.0774    4.6049   -1.5936 O.3     1  LIG1       -0.5046
     23 H          -5.3574    5.4616   -1.2148 H       1  LIG1        0.2922
     24 C          -7.4319    6.1121   -0.0661 C.ar    1  LIG1        0.2226
     25 C          -7.7525    4.7413   -0.0716 C.ar    1  LIG1        0.0689
     26 C          -9.1217    4.4739    0.0577 C.ar    1  LIG1       -0.0036
     27 C         -10.0623    5.4945    0.1464 C.ar    1  LIG1        0.1438
     28 C          -9.6231    6.8348    0.1036 C.ar    1  LIG1        0.1213
     29 N          -8.3094    7.0929   -0.0001 N.ar    1  LIG1       -0.2086
     30 H          -9.4257    3.4323    0.1060 H       1  LIG1        0.0663
     31 O          -6.1145    6.5105   -0.0975 O.3     1  LIG1       -0.4919
     32 H          -6.1386    7.4818   -0.0810 H       1  LIG1        0.2937
     33 O         -11.4013    5.2331    0.2713 O.3     1  LIG1       -0.5046
     34 H         -11.5201    4.2811    0.3902 H       1  LIG1        0.2922
     35 C         -10.2623    9.1543    0.9187 C.ar    1  LIG1        0.2220
     36 C         -10.5483    7.9903    0.1664 C.ar    1  LIG1        0.0688
     37 C         -11.7578    7.9921   -0.5372 C.ar    1  LIG1       -0.0043
     38 C         -12.6043    9.0997   -0.4927 C.ar    1  LIG1        0.1357
     39 C         -12.2100   10.1967    0.2722 C.ar    1  LIG1        0.0728
     40 N         -11.0660   10.2125    0.9628 N.ar    1  LIG1       -0.2172
     41 H         -12.0332    7.1182   -1.1190 H       1  LIG1        0.0663
     42 H         -12.8431   11.0786    0.3261 H       1  LIG1        0.0868
     43 O          -9.1392    9.2223    1.6736 O.3     1  LIG1       -0.4919
     44 H          -9.1930   10.0825    2.1205 H       1  LIG1        0.2937
     45 O         -13.7957    9.1736   -1.1627 O.3     1  LIG1       -0.5052
     46 H         -13.9533    8.3381   -1.6209 H       1  LIG1        0.2922
@<TRIPOS>BOND
     1    46    45    1
     2    22    23    1
     3    22    16    1
     4    19    15    1
     5    45    38    1
     6    41    37    1
     7    16    15   ar
     8    16    17   ar
     9    15    14   ar
    10    37    38   ar
    11    37    36   ar
    12    38    39   ar
    13    14     5    1
    14    14    13   ar
    15    17    25    1
    16    17    18   ar
    17    11     4    1
    18    11    12    1
    19    31    32    1
    20    31    24    1
    21    25    24   ar
    22    25    26   ar
    23    24    29   ar
    24     4     5   ar
    25     4     3   ar
    26     5     6   ar
    27     7     3    1
    28    29    28   ar
    29     3     2   ar
    30    26    30    1
    31    26    27   ar
    32    28    27   ar
    33    28    36    1
    34     6     1   ar
    35     2     8    1
    36     2     1   ar
    37    27    33    1
    38    36    35   ar
    39     1     9    1
    40    33    34    1
    41    39    42    1
    42    39    40   ar
    43     9    10    1
    44    13    18   ar
    45    13    20    1
    46    21    20    1
    47    35    40   ar
    48    35    43    1
    49    43    44    1
