@<TRIPOS>MOLECULE
mol_data/opt/b3lyp/geoms/mol2/6ff6ff-.out
 24 25 0 0 0
SMALL
GASTEIGER

@<TRIPOS>ATOM
      1 C          -4.5301   -2.0210   -0.3644 C.ar    1  LIG1        0.2130
      2 C          -3.1840   -2.1573    0.0151 C.ar    1  LIG1        0.0033
      3 C          -2.5033   -1.0095    0.3777 C.ar    1  LIG1       -0.0130
      4 C          -3.1463    0.2379    0.3642 C.ar    1  LIG1        0.1431
      5 C          -4.4984    0.2733   -0.0446 C.ar    1  LIG1        0.1212
      6 N          -5.1501   -0.8581   -0.3908 N.ar    1  LIG1       -0.2092
      7 H          -1.4651   -1.0423    0.6911 H       1  LIG1        0.0656
      8 H          -2.6924   -3.1264    0.0259 H       1  LIG1        0.0672
      9 O          -5.2989   -3.0889   -0.7291 O.3     1  LIG1       -0.4924
     10 H          -4.7605   -3.8896   -0.6856 H       1  LIG1        0.2937
     11 O          -2.4267    1.2966    0.8159 O.3     1  LIG1       -0.5046
     12 H          -2.7226    2.1098    0.3613 H       1  LIG1        0.2922
     13 C          -4.9609    2.8037   -0.3516 C.ar    1  LIG1        0.2220
     14 C          -5.3616    1.4883   -0.0528 C.ar    1  LIG1        0.0688
     15 C          -6.7282    1.3335    0.2200 C.ar    1  LIG1       -0.0043
     16 C          -7.5870    2.4301    0.2231 C.ar    1  LIG1        0.1357
     17 C          -7.0530    3.6905   -0.0556 C.ar    1  LIG1        0.0728
     18 N          -5.7600    3.8595   -0.3439 N.ar    1  LIG1       -0.2172
     19 H          -7.0942    0.3301    0.4155 H       1  LIG1        0.0663
     20 H          -7.6901    4.5703   -0.0514 H       1  LIG1        0.0868
     21 O          -3.6578    3.0576   -0.7178 O.3     1  LIG1       -0.4919
     22 H          -3.6098    4.0171   -0.8611 H       1  LIG1        0.2937
     23 O          -8.9233    2.3459    0.4919 O.3     1  LIG1       -0.5052
     24 H          -9.1588    1.4208    0.6413 H       1  LIG1        0.2922
@<TRIPOS>BOND
     1    22    21    1
     2     9    10    1
     3     9     1    1
     4    21    13    1
     5     6     1   ar
     6     6     5   ar
     7     1     2   ar
     8    13    18   ar
     9    13    14   ar
    10    18    17   ar
    11    17    20    1
    12    17    16   ar
    13    14     5    1
    14    14    15   ar
    15     5     4   ar
    16     2     8    1
    17     2     3   ar
    18    15    16   ar
    19    15    19    1
    20    16    23    1
    21    12    11    1
    22     4     3   ar
    23     4    11    1
    24     3     7    1
    25    23    24    1
