@<TRIPOS>MOLECULE
mol_data/opt/b3lyp/geoms/mol2/6ff6ff-6ff.out
 35 37 0 0 0
SMALL
GASTEIGER

@<TRIPOS>ATOM
      1 C          -4.4832   -2.1210   -0.0007 C.ar    1  LIG1        0.2130
      2 C          -3.0872   -2.2888   -0.0000 C.ar    1  LIG1        0.0033
      3 C          -2.3214   -1.1429    0.0006 C.ar    1  LIG1       -0.0130
      4 C          -2.9100    0.1373    0.0006 C.ar    1  LIG1        0.1431
      5 C          -4.3260    0.2095    0.0000 C.ar    1  LIG1        0.1212
      6 N          -5.0484   -0.9374   -0.0007 N.ar    1  LIG1       -0.2092
      7 H          -1.2375   -1.1879    0.0011 H       1  LIG1        0.0656
      8 H          -2.6269   -3.2728   -0.0000 H       1  LIG1        0.0672
      9 O          -5.3511   -3.1756   -0.0015 O.3     1  LIG1       -0.4924
     10 H          -4.8442   -3.9978   -0.0015 H       1  LIG1        0.2937
     11 O          -2.0209    1.1528    0.0011 O.3     1  LIG1       -0.5046
     12 H          -2.4718    2.0196    0.0016 H       1  LIG1        0.2922
     13 C          -4.8824    2.8004    0.0013 C.ar    1  LIG1        0.2226
     14 C          -5.2043    1.4254   -0.0002 C.ar    1  LIG1        0.0689
     15 C          -6.5897    1.2197   -0.0023 C.ar    1  LIG1       -0.0036
     16 C          -7.5201    2.2500   -0.0028 C.ar    1  LIG1        0.1438
     17 C          -7.0974    3.5972   -0.0006 C.ar    1  LIG1        0.1213
     18 N          -5.7585    3.7792    0.0010 N.ar    1  LIG1       -0.2086
     19 H          -6.9279    0.1880   -0.0039 H       1  LIG1        0.0663
     20 O          -3.5759    3.2226    0.0034 O.3     1  LIG1       -0.4919
     21 H          -3.5985    4.1924    0.0042 H       1  LIG1        0.2937
     22 O          -8.8577    1.9188   -0.0066 O.3     1  LIG1       -0.5046
     23 H          -8.9685    0.9596   -0.0068 H       1  LIG1        0.2922
     24 C          -9.3195    5.0573    0.0042 C.ar    1  LIG1        0.2220
     25 C          -7.8962    4.8693    0.0002 C.ar    1  LIG1        0.0688
     26 C          -7.1354    6.0551   -0.0028 C.ar    1  LIG1       -0.0043
     27 C          -7.7259    7.3082   -0.0024 C.ar    1  LIG1        0.1357
     28 C          -9.1193    7.3613    0.0012 C.ar    1  LIG1        0.0728
     29 N          -9.8761    6.2719    0.0045 N.ar    1  LIG1       -0.2172
     30 H          -6.0573    5.9857   -0.0058 H       1  LIG1        0.0663
     31 H          -9.6423    8.3200    0.0016 H       1  LIG1        0.0868
     32 O         -10.2493    4.0891    0.0092 O.3     1  LIG1       -0.4919
     33 H          -9.8433    3.2032    0.0073 H       1  LIG1        0.2937
     34 O          -6.9199    8.4171   -0.0057 O.3     1  LIG1       -0.5052
     35 H          -7.4767    9.2068   -0.0050 H       1  LIG1        0.2922
@<TRIPOS>BOND
     1    23    22    1
     2    22    16    1
     3    30    26    1
     4    34    35    1
     5    34    27    1
     6    19    15    1
     7    26    27   ar
     8    26    25   ar
     9    16    15   ar
    10    16    17   ar
    11    27    28   ar
    12    15    14   ar
    13     9    10    1
    14     9     1    1
    15     1     6   ar
    16     1     2   ar
    17     6     5   ar
    18    17    25    1
    19    17    18   ar
    20    14     5    1
    21    14    13   ar
    22     8     2    1
    23     2     3   ar
    24     5     4   ar
    25    25    24   ar
    26     3     4   ar
    27     3     7    1
    28     4    11    1
    29    18    13   ar
    30    11    12    1
    31    28    31    1
    32    28    29   ar
    33    13    20    1
    34    20    21    1
    35    24    29   ar
    36    24    32    1
    37    33    32    1
