@<TRIPOS>MOLECULE
mol_data/opt/b3lyp/geoms/mol2/6ff6ff6ff6ff.out
 46 49 0 0 0
SMALL
GASTEIGER

@<TRIPOS>ATOM
      1 C          -4.3576   -2.2015   -0.6968 C.ar    1  LIG1        0.2130
      2 C          -3.0579   -2.3626   -0.1943 C.ar    1  LIG1        0.0033
      3 C          -2.4804   -1.2814    0.4519 C.ar    1  LIG1       -0.0130
      4 C          -3.1663   -0.0674    0.5522 C.ar    1  LIG1        0.1431
      5 C          -4.4350    0.0424   -0.0555 C.ar    1  LIG1        0.1212
      6 N          -5.0025   -1.0481   -0.6261 N.ar    1  LIG1       -0.2092
      7 H          -1.4973   -1.3552    0.9047 H       1  LIG1        0.0656
      8 H          -2.5329   -3.3089   -0.2796 H       1  LIG1        0.0672
      9 O          -5.0566   -3.2015   -1.2902 O.3     1  LIG1       -0.4924
     10 H          -4.5315   -4.0124   -1.2800 H       1  LIG1        0.2937
     11 O          -2.5449    0.9332    1.2471 O.3     1  LIG1       -0.5046
     12 H          -3.2087    1.5502    1.5857 H       1  LIG1        0.2922
     13 C          -6.6706    1.2196   -0.2285 C.ar    1  LIG1        0.2226
     14 C          -5.2478    1.2769   -0.0829 C.ar    1  LIG1        0.0689
     15 C          -4.7022    2.5607    0.0395 C.ar    1  LIG1       -0.0036
     16 C          -5.4996    3.7032    0.0584 C.ar    1  LIG1        0.1438
     17 C          -6.8945    3.5568   -0.0863 C.ar    1  LIG1        0.1213
     18 N          -7.4196    2.3151   -0.1989 N.ar    1  LIG1       -0.2086
     19 H          -3.6303    2.7154    0.0917 H       1  LIG1        0.0663
     20 O          -7.3368    0.0784   -0.4005 O.3     1  LIG1       -0.4919
     21 H          -6.6564   -0.6238   -0.5928 H       1  LIG1        0.2937
     22 O          -4.8484    4.8978    0.2246 O.3     1  LIG1       -0.5046
     23 H          -5.4521    5.5366    0.6283 H       1  LIG1        0.2922
     24 C          -9.2381    4.4482    0.2437 C.ar    1  LIG1        0.2226
     25 C          -7.8650    4.6688   -0.0984 C.ar    1  LIG1        0.0689
     26 C          -7.5245    5.9891   -0.4232 C.ar    1  LIG1       -0.0036
     27 C          -8.4549    7.0239   -0.3690 C.ar    1  LIG1        0.1438
     28 C          -9.7839    6.7204   -0.0060 C.ar    1  LIG1        0.1213
     29 N         -10.1116    5.4470    0.3047 N.ar    1  LIG1       -0.2086
     30 H          -6.5301    6.2470   -0.7689 H       1  LIG1        0.0663
     31 O          -9.7295    3.2424    0.5236 O.3     1  LIG1       -0.4919
     32 H          -9.0298    2.5808    0.2585 H       1  LIG1        0.2937
     33 O          -7.9918    8.2776   -0.6683 O.3     1  LIG1       -0.5046
     34 H          -8.5892    8.9351   -0.2842 H       1  LIG1        0.2922
     35 C         -11.9905    7.5003    0.9650 C.ar    1  LIG1        0.2220
     36 C         -10.8702    7.7172    0.0956 C.ar    1  LIG1        0.0688
     37 C         -10.8727    8.9070   -0.6507 C.ar    1  LIG1       -0.0043
     38 C         -11.8810    9.8499   -0.4658 C.ar    1  LIG1        0.1357
     39 C         -12.8665    9.5712    0.4826 C.ar    1  LIG1        0.0728
     40 N         -12.9273    8.4272    1.1624 N.ar    1  LIG1       -0.2172
     41 H         -10.1327    9.0938   -1.4214 H       1  LIG1        0.0663
     42 H         -13.6545   10.2994    0.6856 H       1  LIG1        0.0868
     43 O         -12.1652    6.3573    1.6345 O.3     1  LIG1       -0.4919
     44 H         -11.5195    5.7010    1.2593 H       1  LIG1        0.2937
     45 O         -11.8488   10.9956   -1.2151 O.3     1  LIG1       -0.5052
     46 H         -12.6307   11.5259   -1.0120 H       1  LIG1        0.2922
@<TRIPOS>BOND
     1    41    37    1
     2     9    10    1
     3     9     1    1
     4    45    46    1
     5    45    38    1
     6    30    26    1
     7     1     6   ar
     8     1     2   ar
     9    33    27    1
    10    33    34    1
    11    37    38   ar
    12    37    36   ar
    13     6     5   ar
    14    21    20    1
    15    38    39   ar
    16    26    27   ar
    17    26    25   ar
    18    20    13    1
    19    27    28   ar
    20     8     2    1
    21    13    18   ar
    22    13    14   ar
    23    18    17   ar
    24     2     3   ar
    25    25    17    1
    26    25    24   ar
    27    17    16   ar
    28    14     5    1
    29    14    15   ar
    30     5     4   ar
    31    28    36    1
    32    28    29   ar
    33    15    16   ar
    34    15    19    1
    35    16    22    1
    36    36    35   ar
    37    22    23    1
    38    24    29   ar
    39    24    31    1
    40    32    31    1
    41     3     4   ar
    42     3     7    1
    43    39    42    1
    44    39    40   ar
    45     4    11    1
    46    35    40   ar
    47    35    43    1
    48    11    12    1
    49    44    43    1
