@<TRIPOS>MOLECULE
mol_data/opt/b3lyp/geoms/mol2/6ff6ff6ff6ff-.out
 46 49 0 0 0
SMALL
GASTEIGER

@<TRIPOS>ATOM
      1 C          -4.4142   -2.2462   -0.4456 C.ar    1  LIG1        0.2130
      2 C          -3.0855   -2.3687   -0.0138 C.ar    1  LIG1        0.0033
      3 C          -2.4688   -1.2369    0.4960 C.ar    1  LIG1       -0.0130
      4 C          -3.1482   -0.0159    0.5310 C.ar    1  LIG1        0.1431
      5 C          -4.4533    0.0456   -0.0030 C.ar    1  LIG1        0.1212
      6 N          -5.0547   -1.0883   -0.4377 N.ar    1  LIG1       -0.2092
      7 H          -1.4589   -1.2750    0.8905 H       1  LIG1        0.0656
      8 H          -2.5661   -3.3214   -0.0480 H       1  LIG1        0.0672
      9 O          -5.1481   -3.2927   -0.9030 O.3     1  LIG1       -0.4924
     10 H          -4.6209   -4.1007   -0.8538 H       1  LIG1        0.2937
     11 O          -2.4860    1.0391    1.0949 O.3     1  LIG1       -0.5046
     12 H          -3.1276    1.6971    1.3976 H       1  LIG1        0.2922
     13 C          -6.6943    1.2192   -0.1253 C.ar    1  LIG1        0.2226
     14 C          -5.2653    1.2779   -0.0864 C.ar    1  LIG1        0.0689
     15 C          -4.7084    2.5630   -0.1226 C.ar    1  LIG1       -0.0036
     16 C          -5.5008    3.7085   -0.1493 C.ar    1  LIG1        0.1438
     17 C          -6.9036    3.5592   -0.1726 C.ar    1  LIG1        0.1213
     18 N          -7.4386    2.3180   -0.1396 N.ar    1  LIG1       -0.2086
     19 H          -3.6352    2.7113   -0.1668 H       1  LIG1        0.0663
     20 O          -7.3724    0.0701   -0.1482 O.3     1  LIG1       -0.4919
     21 H          -6.7087   -0.6495   -0.3268 H       1  LIG1        0.2937
     22 O          -4.8412    4.9069   -0.1377 O.3     1  LIG1       -0.5046
     23 H          -5.4482    5.6005    0.1577 H       1  LIG1        0.2922
     24 C          -9.1968    4.5320    0.3023 C.ar    1  LIG1        0.2226
     25 C          -7.8620    4.6811   -0.1993 C.ar    1  LIG1        0.0689
     26 C          -7.5496    5.9433   -0.7171 C.ar    1  LIG1       -0.0036
     27 C          -8.4512    7.0106   -0.6707 C.ar    1  LIG1        0.1438
     28 C          -9.7002    6.7839   -0.0494 C.ar    1  LIG1        0.1213
     29 N         -10.0310    5.5550    0.3904 N.ar    1  LIG1       -0.2086
     30 H          -6.6184    6.1248   -1.2433 H       1  LIG1        0.0663
     31 O          -9.6822    3.3536    0.7107 O.3     1  LIG1       -0.4919
     32 H          -9.0266    2.6606    0.4309 H       1  LIG1        0.2937
     33 O          -8.0685    8.1540   -1.2980 O.3     1  LIG1       -0.5046
     34 H          -8.4655    8.9216   -0.8413 H       1  LIG1        0.2922
     35 C         -10.6484    9.1757    0.2550 C.ar    1  LIG1        0.2220
     36 C         -10.7936    7.7860    0.0843 C.ar    1  LIG1        0.0688
     37 C         -12.1182    7.3242    0.0850 C.ar    1  LIG1       -0.0043
     38 C         -13.1852    8.2101    0.2092 C.ar    1  LIG1        0.1357
     39 C         -12.9037    9.5728    0.3366 C.ar    1  LIG1        0.0728
     40 N         -11.6507   10.0338    0.3652 N.ar    1  LIG1       -0.2172
     41 H         -12.2774    6.2538   -0.0034 H       1  LIG1        0.0663
     42 H         -13.7108   10.2946    0.4239 H       1  LIG1        0.0868
     43 O          -9.3913    9.7295    0.3553 O.3     1  LIG1       -0.4919
     44 H          -9.5361   10.6852    0.4511 H       1  LIG1        0.2937
     45 O         -14.4948    7.8248    0.2048 O.3     1  LIG1       -0.5052
     46 H         -14.5417    6.8621    0.1347 H       1  LIG1        0.2922
@<TRIPOS>BOND
     1    33    34    1
     2    33    27    1
     3    30    26    1
     4     9    10    1
     5     9     1    1
     6    26    27   ar
     7    26    25   ar
     8    27    28   ar
     9     1     6   ar
    10     1     2   ar
    11     6     5   ar
    12    21    20    1
    13    25    17    1
    14    25    24   ar
    15    17    16   ar
    16    17    18   ar
    17    19    15    1
    18    16    22    1
    19    16    15   ar
    20    20    13    1
    21    18    13   ar
    22    22    23    1
    23    13    14   ar
    24    15    14   ar
    25    14     5    1
    26    28    36    1
    27    28    29   ar
    28     8     2    1
    29     2     3   ar
    30    41    37    1
    31     5     4   ar
    32    36    37   ar
    33    36    35   ar
    34    37    38   ar
    35    46    45    1
    36    45    38    1
    37    38    39   ar
    38    35    43    1
    39    35    40   ar
    40    24    29   ar
    41    24    31    1
    42    39    40   ar
    43    39    42    1
    44    43    44    1
    45    32    31    1
    46     3     4   ar
    47     3     7    1
    48     4    11    1
    49    11    12    1
