@<TRIPOS>MOLECULE
mol_data/opt/b3lyp/geoms/mol2/6ff6ff-6ff-6ff.out
 46 49 0 0 0
SMALL
GASTEIGER

@<TRIPOS>ATOM
      1 C          -4.3160   -2.1163    0.7553 C.ar    1  LIG1        0.2130
      2 C          -3.1100   -2.4026    0.0925 C.ar    1  LIG1        0.0033
      3 C          -2.5262   -1.3850   -0.6390 C.ar    1  LIG1       -0.0130
      4 C          -3.1265   -0.1177   -0.7094 C.ar    1  LIG1        0.1431
      5 C          -4.3313    0.0760    0.0038 C.ar    1  LIG1        0.1212
      6 N          -4.8916   -0.9321    0.7085 N.ar    1  LIG1       -0.2092
      7 H          -1.6010   -1.5389   -1.1844 H       1  LIG1        0.0656
      8 H          -2.6508   -3.3858    0.1484 H       1  LIG1        0.0672
      9 O          -4.9845   -3.0500    1.4935 O.3     1  LIG1       -0.4924
     10 H          -4.4853   -3.8768    1.4775 H       1  LIG1        0.2937
     11 O          -2.5273    0.7903   -1.5197 O.3     1  LIG1       -0.5046
     12 H          -2.6988    1.6935   -1.1869 H       1  LIG1        0.2922
     13 C          -4.6804    2.6472   -0.0959 C.ar    1  LIG1        0.2226
     14 C          -5.1461    1.3213   -0.0047 C.ar    1  LIG1        0.0689
     15 C          -6.5348    1.2126    0.1361 C.ar    1  LIG1       -0.0036
     16 C          -7.3613    2.3316    0.1453 C.ar    1  LIG1        0.1438
     17 C          -6.7815    3.6107    0.0095 C.ar    1  LIG1        0.1213
     18 N          -5.4475    3.7182   -0.1055 N.ar    1  LIG1       -0.2086
     19 H          -6.9512    0.2171    0.2590 H       1  LIG1        0.0663
     20 O          -3.3283    2.8960   -0.1482 O.3     1  LIG1       -0.4919
     21 H          -3.2429    3.8626   -0.1997 H       1  LIG1        0.2937
     22 O          -8.7209    2.2221    0.2795 O.3     1  LIG1       -0.5046
     23 H          -8.9389    1.3024    0.4824 H       1  LIG1        0.2922
     24 C          -7.1510    6.0618    0.6038 C.ar    1  LIG1        0.2226
     25 C          -7.5764    4.8582   -0.0120 C.ar    1  LIG1        0.0689
     26 C          -8.8075    4.9345   -0.6654 C.ar    1  LIG1       -0.0036
     27 C          -9.5381    6.1181   -0.6967 C.ar    1  LIG1        0.1438
     28 C          -9.0491    7.2584   -0.0400 C.ar    1  LIG1        0.1213
     29 N          -7.8551    7.1825    0.5828 N.ar    1  LIG1       -0.2086
     30 H          -9.1957    4.0541   -1.1672 H       1  LIG1        0.0663
     31 O          -5.9889    6.0989    1.2938 O.3     1  LIG1       -0.4919
     32 H          -5.9476    6.9945    1.6674 H       1  LIG1        0.2937
     33 O         -10.7266    6.2057   -1.4002 O.3     1  LIG1       -0.5046
     34 H         -10.9621    5.3358   -1.7498 H       1  LIG1        0.2922
     35 C         -11.1078    8.8157    0.1757 C.ar    1  LIG1        0.2220
     36 C          -9.7121    8.5889    0.0032 C.ar    1  LIG1        0.0688
     37 C          -8.8835    9.7173   -0.0250 C.ar    1  LIG1       -0.0043
     38 C          -9.4250   10.9912    0.1071 C.ar    1  LIG1        0.1357
     39 C         -10.8053   11.0925    0.2874 C.ar    1  LIG1        0.0728
     40 N         -11.6173   10.0370    0.3181 N.ar    1  LIG1       -0.2172
     41 H          -7.8125    9.5943   -0.1338 H       1  LIG1        0.0663
     42 H         -11.2745   12.0709    0.4099 H       1  LIG1        0.0868
     43 O         -12.0189    7.8211    0.2838 O.3     1  LIG1       -0.4919
     44 H         -11.7358    7.0689   -0.2669 H       1  LIG1        0.2937
     45 O          -8.5859   12.0725    0.0606 O.3     1  LIG1       -0.5052
     46 H          -9.1086   12.8780    0.1704 H       1  LIG1        0.2922
@<TRIPOS>BOND
     1    34    33    1
     2    11    12    1
     3    11     4    1
     4    33    27    1
     5     7     3    1
     6    30    26    1
     7     4     3   ar
     8     4     5   ar
     9    27    26   ar
    10    27    28   ar
    11    26    25   ar
    12     3     2   ar
    13    44    43    1
    14    21    20    1
    15    20    13    1
    16    41    37    1
    17    18    13   ar
    18    18    17   ar
    19    13    14   ar
    20    28    36    1
    21    28    29   ar
    22    37    36   ar
    23    37    38   ar
    24    25    17    1
    25    25    24   ar
    26    14     5    1
    27    14    15   ar
    28    36    35   ar
    29     5     6   ar
    30    17    16   ar
    31    45    38    1
    32    45    46    1
    33     2     8    1
    34     2     1   ar
    35    38    39   ar
    36    15    16   ar
    37    15    19    1
    38    16    22    1
    39    35    43    1
    40    35    40   ar
    41    22    23    1
    42    39    40   ar
    43    39    42    1
    44    29    24   ar
    45    24    31    1
    46     6     1   ar
    47     1     9    1
    48    31    32    1
    49    10     9    1
