@<TRIPOS>MOLECULE
mol_data/opt/b3lyp/geoms/mol2/6ff6ff.out
 24 25 0 0 0
SMALL
GASTEIGER

@<TRIPOS>ATOM
      1 C          -4.4884   -2.0882   -0.2694 C.ar    1  LIG1        0.2130
      2 C          -3.0941   -2.1137   -0.1248 C.ar    1  LIG1        0.0033
      3 C          -2.4529   -0.9135    0.1412 C.ar    1  LIG1       -0.0130
      4 C          -3.1839    0.2750    0.2188 C.ar    1  LIG1        0.1431
      5 C          -4.5750    0.2284   -0.0164 C.ar    1  LIG1        0.1212
      6 N          -5.1841   -0.9636   -0.2178 N.ar    1  LIG1       -0.2092
      7 H          -1.3817   -0.8721    0.3082 H       1  LIG1        0.0656
      8 H          -2.5362   -3.0429   -0.1900 H       1  LIG1        0.0672
      9 O          -5.2356   -3.2053   -0.4724 O.3     1  LIG1       -0.4924
     10 H          -4.6581   -3.9796   -0.4722 H       1  LIG1        0.2937
     11 O          -2.4862    1.4073    0.5327 O.3     1  LIG1       -0.5046
     12 H          -3.1029    2.0841    0.8474 H       1  LIG1        0.2922
     13 C          -6.8407    1.3130    0.3447 C.ar    1  LIG1        0.2220
     14 C          -5.4554    1.4187   -0.0052 C.ar    1  LIG1        0.0688
     15 C          -4.9866    2.6974   -0.3449 C.ar    1  LIG1       -0.0043
     16 C          -5.8309    3.8023   -0.2538 C.ar    1  LIG1        0.1357
     17 C          -7.1362    3.5881    0.1903 C.ar    1  LIG1        0.0728
     18 N          -7.6280    2.3803    0.4646 N.ar    1  LIG1       -0.2172
     19 H          -3.9837    2.8484   -0.7301 H       1  LIG1        0.0663
     20 H          -7.8208    4.4301    0.3107 H       1  LIG1        0.0868
     21 O          -7.4334    0.1353    0.5761 O.3     1  LIG1       -0.4919
     22 H          -6.8055   -0.5689    0.2732 H       1  LIG1        0.2937
     23 O          -5.3353    5.0316   -0.5965 O.3     1  LIG1       -0.5052
     24 H          -6.0410    5.6876   -0.5201 H       1  LIG1        0.2922
@<TRIPOS>BOND
     1    19    15    1
     2    23    24    1
     3    23    16    1
     4     9    10    1
     5     9     1    1
     6    15    16   ar
     7    15    14   ar
     8     1     6   ar
     9     1     2   ar
    10    16    17   ar
    11     6     5   ar
    12     8     2    1
    13     2     3   ar
    14     5    14    1
    15     5     4   ar
    16    14    13   ar
    17     3     4   ar
    18     3     7    1
    19    17    20    1
    20    17    18   ar
    21     4    11    1
    22    22    21    1
    23    13    18   ar
    24    13    21    1
    25    11    12    1
