@<TRIPOS>MOLECULE
mol_data/opt/b3lyp/geoms/mol2/6ff6ff-4ff6ff.out
 47 50 0 0 0
SMALL
GASTEIGER

@<TRIPOS>ATOM
      1 C          -4.2522   -2.1071    0.7297 C.ar    1  LIG1        0.2130
      2 C          -3.0566   -2.3754    0.0415 C.ar    1  LIG1        0.0033
      3 C          -2.5001   -1.3468   -0.6964 C.ar    1  LIG1       -0.0130
      4 C          -3.1174   -0.0871   -0.7481 C.ar    1  LIG1        0.1431
      5 C          -4.3100    0.0884   -0.0101 C.ar    1  LIG1        0.1212
      6 N          -4.8433   -0.9298    0.7008 N.ar    1  LIG1       -0.2092
      7 H          -1.5842   -1.4865   -1.2609 H       1  LIG1        0.0656
      8 H          -2.5843   -3.3532    0.0832 H       1  LIG1        0.0672
      9 O          -4.8941   -3.0529    1.4767 O.3     1  LIG1       -0.4924
     10 H          -4.3858   -3.8735    1.4445 H       1  LIG1        0.2937
     11 O          -2.5462    0.8332   -1.5654 O.3     1  LIG1       -0.5046
     12 H          -2.7212    1.7318   -1.2219 H       1  LIG1        0.2922
     13 C          -4.6892    2.6549   -0.0863 C.ar    1  LIG1        0.2226
     14 C          -5.1391    1.3245    0.0037 C.ar    1  LIG1        0.0689
     15 C          -6.5244    1.1992    0.1657 C.ar    1  LIG1       -0.0036
     16 C          -7.3621    2.3097    0.1964 C.ar    1  LIG1        0.1437
     17 C          -6.7976    3.5949    0.0598 C.ar    1  LIG1        0.1197
     18 N          -5.4673    3.7189   -0.0757 N.ar    1  LIG1       -0.2087
     19 H          -6.9281    0.1984    0.2884 H       1  LIG1        0.0663
     20 O          -3.3398    2.9190   -0.1608 O.3     1  LIG1       -0.4919
     21 H          -3.2683    3.8865   -0.2137 H       1  LIG1        0.2937
     22 O          -8.7177    2.1885    0.3524 O.3     1  LIG1       -0.5046
     23 H          -8.9254    1.2638    0.5427 H       1  LIG1        0.2922
     24 C          -7.2305    5.9860    0.7787 C.ar    1  LIG1        0.1269
     25 C          -8.0184    7.1358    0.7197 C.ar    1  LIG1       -0.0082
     26 C          -7.6107    4.8353    0.0556 C.ar    1  LIG1        0.0489
     27 C          -9.2008    7.2160   -0.0330 C.ar    1  LIG1        0.0322
     28 H          -7.7235    8.0021    1.3067 H       1  LIG1        0.0661
     29 C          -8.7966    4.9050   -0.6863 C.ar    1  LIG1       -0.0068
     30 C          -9.5716    6.0574   -0.7358 C.ar    1  LIG1        0.1256
     31 H          -9.1155    4.0283   -1.2415 H       1  LIG1        0.0662
     32 O          -6.1125    5.9363    1.5606 O.3     1  LIG1       -0.5061
     33 H          -6.0439    6.7662    2.0509 H       1  LIG1        0.2922
     34 O         -10.7295    6.1038   -1.4965 O.3     1  LIG1       -0.5061
     35 H         -10.8836    5.2382   -1.8977 H       1  LIG1        0.2922
     36 C         -11.3619    8.6097    0.1339 C.ar    1  LIG1        0.2205
     37 C          -9.9552    8.4982   -0.0606 C.ar    1  LIG1        0.0505
     38 C          -9.2405    9.6940   -0.1915 C.ar    1  LIG1       -0.0058
     39 C          -9.8936   10.9212   -0.0952 C.ar    1  LIG1        0.1357
     40 C         -11.2673   10.9068    0.1428 C.ar    1  LIG1        0.0728
     41 N         -11.9779    9.7826    0.2434 N.ar    1  LIG1       -0.2173
     42 H          -8.1711    9.6783   -0.3741 H       1  LIG1        0.0662
     43 H         -11.8191   11.8431    0.2463 H       1  LIG1        0.0868
     44 O         -12.1690    7.5322    0.2809 O.3     1  LIG1       -0.4920
     45 H         -11.8341    6.8159   -0.2886 H       1  LIG1        0.2937
     46 O          -9.1581   12.0680   -0.2334 O.3     1  LIG1       -0.5052
     47 H          -9.7496   12.8288   -0.1592 H       1  LIG1        0.2922
@<TRIPOS>BOND
     1    35    34    1
     2    11    12    1
     3    11     4    1
     4    34    30    1
     5     7     3    1
     6    31    29    1
     7     4     3   ar
     8     4     5   ar
     9    30    29   ar
    10    30    27   ar
    11     3     2   ar
    12    29    26   ar
    13    42    38    1
    14    45    44    1
    15    46    47    1
    16    46    39    1
    17    21    20    1
    18    38    39   ar
    19    38    37   ar
    20    20    13    1
    21    39    40   ar
    22    13    18   ar
    23    13    14   ar
    24    18    17   ar
    25    37    27    1
    26    37    36   ar
    27    27    25   ar
    28     5    14    1
    29     5     6   ar
    30    14    15   ar
    31     2     8    1
    32     2     1   ar
    33    26    17    1
    34    26    24   ar
    35    17    16   ar
    36    36    41   ar
    37    36    44    1
    38    40    41   ar
    39    40    43    1
    40    15    16   ar
    41    15    19    1
    42    16    22    1
    43    22    23    1
    44     6     1   ar
    45    25    24   ar
    46    25    28    1
    47     1     9    1
    48    24    32    1
    49    10     9    1
    50    32    33    1
