@<TRIPOS>MOLECULE
mol_data/opt/b3lyp/geoms/mol2/6fh13ah6de-13dh.out
 47 50 0 0 0
SMALL
GASTEIGER

@<TRIPOS>ATOM
      1 C          -4.3388   -1.9984    0.6775 C.ar    1  LIG1        0.2129
      2 C          -2.9677   -2.1196    0.3988 C.ar    1  LIG1        0.0016
      3 C          -2.3115   -1.0148   -0.1237 C.ar    1  LIG1       -0.0339
      4 C          -2.9961    0.1892   -0.3403 C.ar    1  LIG1        0.0526
      5 C          -4.3628    0.2172    0.0240 C.ar    1  LIG1        0.1115
      6 N          -5.0028   -0.8720    0.4962 N.ar    1  LIG1       -0.2097
      7 H          -1.2563   -1.0817   -0.3769 H       1  LIG1        0.0638
      8 H          -2.4356   -3.0509    0.5706 H       1  LIG1        0.0671
      9 O          -5.0827   -3.0311    1.1643 O.3     1  LIG1       -0.4924
     10 H          -4.5207   -3.8123    1.2451 H       1  LIG1        0.2937
     11 N          -2.3395    1.3129   -0.8625 N.pl3   1  LIG1       -0.3563
     12 H          -1.4637    1.0849   -1.3169 H       1  LIG1        0.1424
     13 H          -2.9231    1.8694   -1.4768 H       1  LIG1        0.1424
     14 C          -5.2036    1.4066   -0.1011 C.ar    1  LIG1        0.0691
     15 C          -4.9280    2.7716   -0.2341 C.ar    1  LIG1       -0.0135
     16 C          -6.1618    3.4571   -0.2339 C.ar    1  LIG1        0.0509
     17 C          -7.1878    2.4967   -0.1042 C.ar    1  LIG1        0.0707
     18 N          -6.5568    1.2647   -0.0428 N.ar    1  LIG1       -0.3514
     19 H          -6.9804    0.3563    0.0948 H       1  LIG1        0.1660
     20 H          -3.9499    3.2282   -0.2451 H       1  LIG1        0.0658
     21 N          -6.3189    4.8477   -0.3114 N.pl3   1  LIG1       -0.3563
     22 H          -5.4760    5.3124   -0.6260 H       1  LIG1        0.1424
     23 H          -7.1032    5.1417   -0.8828 H       1  LIG1        0.1424
     24 C          -9.6109    1.7246   -0.3491 C.ar    1  LIG1        0.1500
     25 C          -8.6197    2.6964   -0.0319 C.ar    1  LIG1        0.0371
     26 C          -9.1410    3.9270    0.4180 C.ar    1  LIG1       -0.0323
     27 C         -10.5119    4.1833    0.4795 C.ar    1  LIG1        0.0528
     28 C         -11.4040    3.1644    0.0285 C.ar    1  LIG1        0.1052
     29 N         -10.9267    1.9626   -0.3236 N.ar    1  LIG1       -0.2329
     30 H          -8.4601    4.6861    0.7845 H       1  LIG1        0.0638
     31 N          -9.0003   -0.7001   -1.0761 N.1     1  LIG1       -0.1893
     32 C          -9.2694    0.3852   -0.7530 C.1     1  LIG1        0.1198
     33 C         -10.9525    5.4010    1.0702 C.1     1  LIG1       -0.0674
     34 C         -11.2727    6.4357    1.6084 C.1     1  LIG1       -0.1138
     35 H         -11.6050    7.3507    2.0421 H       1  LIG1        0.1232
     36 C         -12.8607    3.2667   -0.0394 C.ar    1  LIG1        0.0856
     37 C         -13.8007    4.3042   -0.2169 C.ar    1  LIG1        0.0991
     38 C         -15.1050    3.7054   -0.2691 C.ar    1  LIG1        0.0604
     39 C         -14.9248    2.3398   -0.1337 C.ar    1  LIG1        0.0243
     40 N         -13.5780    2.1084   -0.0032 N.ar    1  LIG1       -0.3568
     41 H         -13.1129    1.2126    0.0359 H       1  LIG1        0.1655
     42 H         -15.6446    1.5370   -0.1022 H       1  LIG1        0.0826
     43 N         -13.6041    6.8154   -0.7561 N.1     1  LIG1       -0.1907
     44 C         -13.6188    5.6809   -0.4849 C.1     1  LIG1        0.1032
     45 N         -16.3036    4.4065   -0.3764 N.pl3   1  LIG1       -0.3558
     46 H         -16.1836    5.3510   -0.7232 H       1  LIG1        0.1424
     47 H         -17.0258    3.9203   -0.8913 H       1  LIG1        0.1424
@<TRIPOS>BOND
     1    13    11    1
     2    12    11    1
     3    31    32    3
     4    47    45    1
     5    23    21    1
     6    11     4    1
     7    43    44    3
     8    32    24    1
     9    46    45    1
    10    22    21    1
    11    44    37    1
    12     7     3    1
    13    45    38    1
    14    24    29   ar
    15    24    25   ar
    16     4     3   ar
    17     4     5   ar
    18    29    28   ar
    19    21    16    1
    20    38    37   ar
    21    38    39   ar
    22    20    15    1
    23    15    16   ar
    24    15    14   ar
    25    16    17   ar
    26    37    36   ar
    27    39    42    1
    28    39    40   ar
    29     3     2   ar
    30    17    18   ar
    31    17    25    1
    32    14    18   ar
    33    14     5    1
    34    18    19    1
    35    36    40   ar
    36    36    28    1
    37    25    26   ar
    38    40    41    1
    39     5     6   ar
    40    28    27   ar
    41     2     8    1
    42     2     1   ar
    43    26    27   ar
    44    26    30    1
    45    27    33    1
    46     6     1   ar
    47     1     9    1
    48    33    34    3
    49     9    10    1
    50    34    35    1
