@<TRIPOS>MOLECULE
mol_data/opt/b3lyp/geoms/mol2/6fh13dl-6fe12ae.out
 48 51 0 0 0
SMALL
GASTEIGER

@<TRIPOS>ATOM
      1 C          -4.7424   -2.0091   -0.8546 C.ar    1  LIG1        0.2129
      2 C          -3.3974   -2.3458   -0.6236 C.ar    1  LIG1        0.0016
      3 C          -2.5480   -1.3430   -0.1986 C.ar    1  LIG1       -0.0339
      4 C          -3.0004   -0.0202   -0.0035 C.ar    1  LIG1        0.0526
      5 C          -4.3642    0.2185   -0.3067 C.ar    1  LIG1        0.1128
      6 N          -5.1884   -0.7805   -0.7048 N.ar    1  LIG1       -0.2096
      7 H          -1.5060   -1.5730    0.0081 H       1  LIG1        0.0638
      8 H          -3.0325   -3.3583   -0.7697 H       1  LIG1        0.0671
      9 O          -5.6759   -2.9186   -1.2510 O.3     1  LIG1       -0.4924
     10 H          -5.2609   -3.7876   -1.3244 H       1  LIG1        0.2937
     11 N          -2.1379    0.9083    0.5585 N.pl3   1  LIG1       -0.3563
     12 H          -1.1687    0.6223    0.5695 H       1  LIG1        0.1424
     13 H          -2.2311    1.8800    0.2979 H       1  LIG1        0.1424
     14 C          -5.0868    1.4937   -0.1740 C.ar    1  LIG1        0.0886
     15 C          -4.7766    2.8666   -0.1608 C.ar    1  LIG1        0.1207
     16 C          -6.0189    3.5848   -0.0876 C.ar    1  LIG1        0.1634
     17 C          -7.0523    2.6606   -0.0598 C.ar    1  LIG1        0.0957
     18 N          -6.4507    1.4116   -0.1010 N.ar    1  LIG1       -0.3488
     19 H          -6.8874    0.5217   -0.3254 H       1  LIG1        0.1661
     20 N          -2.4874    4.0150   -0.4696 N.1     1  LIG1       -0.1907
     21 C          -3.5204    3.4899   -0.3299 C.1     1  LIG1        0.1050
     22 O          -6.1852    4.9330   -0.1059 O.3     1  LIG1       -0.4917
     23 C          -5.6495    5.6488    1.0185 C.3     1  LIG1        0.0789
     24 H          -5.9048    6.6966    0.8565 H       1  LIG1        0.0660
     25 H          -6.1043    5.2985    1.9520 H       1  LIG1        0.0660
     26 H          -4.5615    5.5461    1.0765 H       1  LIG1        0.0660
     27 C          -9.3602    1.9741    0.7223 C.ar    1  LIG1        0.2225
     28 C          -8.4979    2.8563    0.0163 C.ar    1  LIG1        0.0645
     29 C          -9.1147    3.9490   -0.5916 C.ar    1  LIG1       -0.0298
     30 C         -10.5056    4.1314   -0.5386 C.ar    1  LIG1        0.0545
     31 C         -11.2656    3.1431    0.1457 C.ar    1  LIG1        0.1251
     32 N         -10.6702    2.1081    0.7615 N.ar    1  LIG1       -0.2081
     33 H          -8.5089    4.6727   -1.1231 H       1  LIG1        0.0639
     34 O          -8.8864    0.9050    1.4148 O.3     1  LIG1       -0.4919
     35 H          -7.9292    0.9950    1.5308 H       1  LIG1        0.2937
     36 C         -11.0572    5.2779   -1.1824 C.1     1  LIG1       -0.0674
     37 C         -11.4556    6.2727   -1.7466 C.1     1  LIG1       -0.1138
     38 H         -11.8191    7.1447   -2.2394 H       1  LIG1        0.1232
     39 C         -12.7218    3.1742    0.2433 C.ar    1  LIG1        0.1554
     40 C         -13.7099    3.9913   -0.2468 C.ar    1  LIG1        0.0011
     41 C         -14.9599    3.4585    0.2163 C.ar    1  LIG1        0.0630
     42 C         -14.6300    2.3495    0.9584 C.ar    1  LIG1        0.1080
     43 O         -13.2968    2.1670    0.9831 O.2     1  LIG1       -0.4601
     44 H         -15.2256    1.6320    1.5009 H       1  LIG1        0.1042
     45 H         -13.5775    4.8637   -0.8630 H       1  LIG1        0.0668
     46 C         -16.2629    3.9626   -0.0343 C.1     1  LIG1       -0.0665
     47 C         -17.3700    4.3986   -0.2525 C.1     1  LIG1       -0.1138
     48 H         -18.3462    4.7797   -0.4430 H       1  LIG1        0.1232
@<TRIPOS>BOND
     1    38    37    1
     2    37    36    3
     3    10     9    1
     4     9     1    1
     5    36    30    1
     6    33    29    1
     7    45    40    1
     8     1     6   ar
     9     1     2   ar
    10     8     2    1
    11     6     5   ar
    12     2     3   ar
    13    29    30   ar
    14    29    28   ar
    15    30    31   ar
    16    20    21    3
    17    48    47    1
    18    21    15    1
    19    19    18    1
    20     5    14    1
    21     5     4   ar
    22    47    46    3
    23    40    41   ar
    24    40    39   ar
    25     3     4   ar
    26     3     7    1
    27    14    15   ar
    28    14    18   ar
    29    15    16   ar
    30    22    16    1
    31    22    23    1
    32    18    17   ar
    33    16    17   ar
    34    17    28    1
    35    46    41    1
    36     4    11    1
    37    28    27   ar
    38    31    39    1
    39    31    32   ar
    40    41    42   ar
    41    39    43   ar
    42    13    11    1
    43    11    12    1
    44    27    32   ar
    45    27    34    1
    46    24    23    1
    47    42    43   ar
    48    42    44    1
    49    23    26    1
    50    23    25    1
    51    34    35    1
