@<TRIPOS>MOLECULE
mol_data/opt/b3lyp/geoms/mol2/6fh4ei4id-12le.out
 56 59 0 0 0
SMALL
GASTEIGER

@<TRIPOS>ATOM
      1 C          -3.4655   -1.6717    1.5219 C.ar    1  LIG1        0.2129
      2 C          -2.8057   -2.3356    0.4771 C.ar    1  LIG1        0.0016
      3 C          -2.9027   -1.8001   -0.7971 C.ar    1  LIG1       -0.0339
      4 C          -3.6358   -0.6233   -1.0242 C.ar    1  LIG1        0.0512
      5 C          -4.2337   -0.0208    0.1069 C.ar    1  LIG1        0.0965
      6 N          -4.1556   -0.5598    1.3360 N.ar    1  LIG1       -0.2111
      7 H          -2.4139   -2.2937   -1.6332 H       1  LIG1        0.0638
      8 H          -2.2408   -3.2474    0.6525 H       1  LIG1        0.0671
      9 O          -3.4510   -2.1307    2.8093 O.3     1  LIG1       -0.4924
     10 H          -2.9220   -2.9379    2.8448 H       1  LIG1        0.2937
     11 N          -3.7276   -0.0960   -2.3133 N.pl3   1  LIG1       -0.3563
     12 H          -3.7292   -0.7879   -3.0504 H       1  LIG1        0.1424
     13 H          -4.4538    0.5945   -2.4432 H       1  LIG1        0.1424
     14 C          -4.6103    2.4457   -0.4819 C.ar    1  LIG1        0.0345
     15 C          -5.4972    3.5391   -0.5271 C.ar    1  LIG1       -0.0377
     16 C          -5.0820    1.2054    0.0086 C.ar    1  LIG1        0.0179
     17 C          -6.8173    3.4417   -0.0904 C.ar    1  LIG1       -0.0135
     18 H          -5.1292    4.4870   -0.9070 H       1  LIG1        0.0636
     19 C          -6.4033    1.1317    0.4670 C.ar    1  LIG1       -0.0478
     20 C          -7.2854    2.2133    0.4287 C.ar    1  LIG1       -0.0420
     21 H          -6.7427    0.1854    0.8768 H       1  LIG1        0.0627
     22 C          -3.2520    2.6516   -0.8778 C.1     1  LIG1       -0.0690
     23 C          -2.1097    2.8773   -1.2062 C.1     1  LIG1       -0.1139
     24 H          -1.0999    3.0470   -1.4995 H       1  LIG1        0.1232
     25 C          -8.7015    2.0578    0.9302 C.3     1  LIG1       -0.0391
     26 H          -8.8460    1.0774    1.3904 H       1  LIG1        0.0278
     27 H          -9.4306    2.1601    0.1186 H       1  LIG1        0.0278
     28 H          -8.9523    2.8226    1.6728 H       1  LIG1        0.0278
     29 C          -7.6949    5.6520    0.8115 C.ar    1  LIG1       -0.0420
     30 C          -8.5483    6.7468    0.6729 C.ar    1  LIG1       -0.0462
     31 C          -7.7083    4.6426   -0.1780 C.ar    1  LIG1       -0.0134
     32 C          -9.4218    6.9030   -0.4182 C.ar    1  LIG1        0.0386
     33 H          -8.5468    7.5137    1.4383 H       1  LIG1        0.0628
     34 C          -8.5682    4.7816   -1.2656 C.ar    1  LIG1       -0.0357
     35 C          -9.4197    5.8897   -1.4103 C.ar    1  LIG1        0.0631
     36 H          -8.5781    4.0196   -2.0381 H       1  LIG1        0.0637
     37 C          -6.7844    5.5564    2.0121 C.3     1  LIG1       -0.0391
     38 H          -6.9903    6.3584    2.7248 H       1  LIG1        0.0278
     39 H          -5.7310    5.6243    1.7194 H       1  LIG1        0.0278
     40 H          -6.9012    4.5981    2.5283 H       1  LIG1        0.0278
     41 N         -10.8178    5.8934   -3.5972 N.1     1  LIG1       -0.1908
     42 C         -10.2192    5.9323   -2.5999 C.1     1  LIG1        0.0999
     43 C         -10.2747    8.0797   -0.4798 C.ar    1  LIG1        0.1787
     44 C         -10.2381    9.3068    0.1477 C.ar    1  LIG1        0.1810
     45 C         -11.3779   10.0642   -0.3233 C.ar    1  LIG1        0.1046
     46 C         -12.0183    9.2271   -1.2018 C.ar    1  LIG1        0.1116
     47 O         -11.3790    8.0454   -1.2982 O.2     1  LIG1       -0.4578
     48 H         -12.9117    9.3427   -1.7947 H       1  LIG1        0.1043
     49 O          -9.3197    9.6837    1.0740 O.3     1  LIG1       -0.4902
     50 C          -8.5971   10.8911    0.7839 C.3     1  LIG1        0.0790
     51 H          -7.9108   11.0367    1.6191 H       1  LIG1        0.0660
     52 H          -8.0284   10.7855   -0.1470 H       1  LIG1        0.0660
     53 H          -9.2718   11.7477    0.7082 H       1  LIG1        0.0660
     54 C         -11.7899   11.3661    0.0588 C.1     1  LIG1       -0.0628
     55 C         -12.1465   12.4764    0.3823 C.1     1  LIG1       -0.1137
     56 H         -12.4712   13.4483    0.6740 H       1  LIG1        0.1232
@<TRIPOS>BOND
     1    41    42    3
     2    12    11    1
     3    42    35    1
     4    13    11    1
     5    11     4    1
     6    36    34    1
     7    48    46    1
     8     7     3    1
     9    24    23    1
    10    35    34   ar
    11    35    32   ar
    12    47    46   ar
    13    47    43   ar
    14    34    31   ar
    15    23    22    3
    16    46    45   ar
    17     4     3   ar
    18     4     5   ar
    19    18    15    1
    20    22    14    1
    21     3     2   ar
    22    15    14   ar
    23    15    17   ar
    24    14    16   ar
    25    43    32    1
    26    43    44   ar
    27    32    30   ar
    28    45    54    1
    29    45    44   ar
    30    31    17    1
    31    31    29   ar
    32    52    50    1
    33    17    20   ar
    34    16     5    1
    35    16    19   ar
    36    54    55    3
    37     5     6   ar
    38    27    25    1
    39    44    49    1
    40    55    56    1
    41    20    19   ar
    42    20    25    1
    43    19    21    1
    44     2     8    1
    45     2     1   ar
    46    30    29   ar
    47    30    33    1
    48    53    50    1
    49    50    49    1
    50    50    51    1
    51    29    37    1
    52    25    26    1
    53    25    28    1
    54     6     1   ar
    55     1     9    1
    56    39    37    1
    57    37    40    1
    58    37    38    1
    59     9    10    1
