@<TRIPOS>MOLECULE
mol_data/opt/b3lyp/geoms/mol2/6fh6fh6fh-6fh.out
 50 53 0 0 0
SMALL
GASTEIGER

@<TRIPOS>ATOM
      1 C          -4.5233   -2.2539   -0.4107 C.ar    1  LIG1        0.2129
      2 C          -3.1295   -2.3701   -0.3733 C.ar    1  LIG1        0.0016
      3 C          -2.3926   -1.1995   -0.2719 C.ar    1  LIG1       -0.0339
      4 C          -3.0184    0.0520   -0.1773 C.ar    1  LIG1        0.0513
      5 C          -4.4383    0.0666   -0.1451 C.ar    1  LIG1        0.1005
      6 N          -5.1321   -1.0854   -0.2970 N.ar    1  LIG1       -0.2110
      7 H          -1.3063   -1.2470   -0.2770 H       1  LIG1        0.0638
      8 H          -2.6372   -3.3352   -0.4461 H       1  LIG1        0.0671
      9 O          -5.3598   -3.3165   -0.5664 O.3     1  LIG1       -0.4924
     10 H          -4.8350   -4.1216   -0.6624 H       1  LIG1        0.2937
     11 N          -2.2355    1.2131   -0.0948 N.pl3   1  LIG1       -0.3563
     12 H          -1.2978    1.0810   -0.4539 H       1  LIG1        0.1424
     13 H          -2.6672    2.0272   -0.5161 H       1  LIG1        0.1424
     14 C          -6.5940    1.3590   -0.5101 C.ar    1  LIG1        0.2224
     15 C          -5.2607    1.2879    0.0039 C.ar    1  LIG1        0.0654
     16 C          -4.8083    2.4302    0.6748 C.ar    1  LIG1       -0.0246
     17 C          -5.5754    3.5989    0.7798 C.ar    1  LIG1        0.0519
     18 C          -6.8259    3.5920    0.1138 C.ar    1  LIG1        0.1005
     19 N          -7.2974    2.4793   -0.4760 N.ar    1  LIG1       -0.2104
     20 H          -3.8467    2.4041    1.1776 H       1  LIG1        0.0645
     21 O          -7.2148    0.3060   -1.0659 O.3     1  LIG1       -0.4919
     22 H          -6.6587   -0.4877   -0.8610 H       1  LIG1        0.2937
     23 N          -5.1454    4.6523    1.5928 N.pl3   1  LIG1       -0.3563
     24 H          -4.1846    4.5496    1.8938 H       1  LIG1        0.1424
     25 H          -5.3060    5.5701    1.1911 H       1  LIG1        0.1424
     26 C          -7.4689    6.0940   -0.0924 C.ar    1  LIG1        0.2224
     27 C          -7.7803    4.7316    0.0895 C.ar    1  LIG1        0.0654
     28 C          -9.1503    4.4609    0.1585 C.ar    1  LIG1       -0.0246
     29 C         -10.1063    5.4736    0.1282 C.ar    1  LIG1        0.0519
     30 C          -9.6717    6.8124    0.0417 C.ar    1  LIG1        0.1005
     31 N          -8.3573    7.0714   -0.1091 N.ar    1  LIG1       -0.2104
     32 H          -9.4530    3.4197    0.2136 H       1  LIG1        0.0645
     33 O          -6.1697    6.4790   -0.2935 O.3     1  LIG1       -0.4919
     34 H          -6.2100    7.4448   -0.3904 H       1  LIG1        0.2937
     35 N         -11.4950    5.1713    0.2237 N.pl3   1  LIG1       -0.3563
     36 H         -12.0308    5.5626   -0.5476 H       1  LIG1        0.1424
     37 H         -11.6666    4.1727    0.2727 H       1  LIG1        0.1424
     38 C         -11.6815    8.1780    0.9121 C.ar    1  LIG1        0.2219
     39 C         -10.5669    7.9990    0.0437 C.ar    1  LIG1        0.0653
     40 C         -10.2294    9.0732   -0.7924 C.ar    1  LIG1       -0.0252
     41 C         -10.9640   10.2579   -0.7793 C.ar    1  LIG1        0.0438
     42 C         -12.0366   10.3124    0.1239 C.ar    1  LIG1        0.0520
     43 N         -12.3817    9.3140    0.9313 N.ar    1  LIG1       -0.2191
     44 H          -9.3637    8.9696   -1.4395 H       1  LIG1        0.0645
     45 H         -12.6439   11.2165    0.1890 H       1  LIG1        0.0849
     46 O         -12.0832    7.2599    1.8162 O.3     1  LIG1       -0.4919
     47 H         -11.9018    6.3536    1.4686 H       1  LIG1        0.2937
     48 N         -10.6151   11.3638   -1.5714 N.pl3   1  LIG1       -0.3568
     49 H         -10.1526   11.1195   -2.4376 H       1  LIG1        0.1424
     50 H         -11.3848   11.9970   -1.7483 H       1  LIG1        0.1424
@<TRIPOS>BOND
     1    49    48    1
     2    50    48    1
     3    48    41    1
     4    44    40    1
     5    21    22    1
     6    21    14    1
     7    40    41   ar
     8    40    39   ar
     9    41    42   ar
    10    10     9    1
    11     9     1    1
    12    36    35    1
    13    13    11    1
    14    14    19   ar
    15    14    15   ar
    16    19    18   ar
    17    12    11    1
    18     8     2    1
    19     1     2   ar
    20     1     6   ar
    21    34    33    1
    22     2     3   ar
    23     6     5   ar
    24    33    26    1
    25     7     3    1
    26     3     4   ar
    27     4     5   ar
    28     4    11    1
    29     5    15    1
    30    31    26   ar
    31    31    30   ar
    32    26    27   ar
    33    15    16   ar
    34    30    39    1
    35    30    29   ar
    36    39    38   ar
    37    27    18    1
    38    27    28   ar
    39    18    17   ar
    40    42    45    1
    41    42    43   ar
    42    29    28   ar
    43    29    35    1
    44    28    32    1
    45    35    37    1
    46    16    17   ar
    47    16    20    1
    48    17    23    1
    49    38    43   ar
    50    38    46    1
    51    25    23    1
    52    47    46    1
    53    23    24    1
