@<TRIPOS>MOLECULE
mol_data/opt/b3lyp/geoms/mol2/6fh6fh-4fh6fh.out
 51 54 0 0 0
SMALL
GASTEIGER

@<TRIPOS>ATOM
      1 C          -3.8907   -1.8090   -1.3751 C.ar    1  LIG1        0.2129
      2 C          -3.0496   -2.3377   -0.3858 C.ar    1  LIG1        0.0016
      3 C          -2.8739   -1.5962    0.7706 C.ar    1  LIG1       -0.0339
      4 C          -3.5172   -0.3579    0.9468 C.ar    1  LIG1        0.0513
      5 C          -4.3250    0.0928   -0.1288 C.ar    1  LIG1        0.1005
      6 N          -4.4959   -0.6441   -1.2444 N.ar    1  LIG1       -0.2110
      7 H          -2.2397   -1.9796    1.5664 H       1  LIG1        0.0638
      8 H          -2.5501   -3.2944   -0.5145 H       1  LIG1        0.0671
      9 O          -4.1471   -2.4630   -2.5494 O.3     1  LIG1       -0.4924
     10 H          -3.6598   -3.2967   -2.5506 H       1  LIG1        0.2937
     11 N          -3.4275    0.3116    2.1682 N.pl3   1  LIG1       -0.3563
     12 H          -2.6968   -0.0553    2.7647 H       1  LIG1        0.1424
     13 H          -3.3522    1.3201    2.0770 H       1  LIG1        0.1424
     14 C          -4.7094    2.6075    0.3532 C.ar    1  LIG1        0.2224
     15 C          -5.1318    1.3447   -0.1075 C.ar    1  LIG1        0.0654
     16 C          -6.4165    1.3198   -0.6551 C.ar    1  LIG1       -0.0246
     17 C          -7.2314    2.4562   -0.6973 C.ar    1  LIG1        0.0519
     18 C          -6.7053    3.6507   -0.1598 C.ar    1  LIG1        0.0989
     19 N          -5.4588    3.6938    0.3377 N.ar    1  LIG1       -0.2105
     20 H          -6.7709    0.3818   -1.0704 H       1  LIG1        0.0645
     21 O          -3.4327    2.7767    0.8309 O.3     1  LIG1       -0.4919
     22 H          -3.3762    3.7218    1.0477 H       1  LIG1        0.2937
     23 N          -8.5358    2.3753   -1.2115 N.pl3   1  LIG1       -0.3563
     24 H          -8.8816    3.2531   -1.5790 H       1  LIG1        0.1424
     25 H          -8.6509    1.6299   -1.8870 H       1  LIG1        0.1424
     26 C          -7.0167    6.1240   -0.6383 C.ar    1  LIG1        0.1268
     27 C          -7.7798    7.2856   -0.5198 C.ar    1  LIG1       -0.0099
     28 C          -7.4981    4.9106   -0.1069 C.ar    1  LIG1        0.0454
     29 C          -9.0278    7.3094    0.1228 C.ar    1  LIG1        0.0114
     30 H          -7.3787    8.2203   -0.9049 H       1  LIG1        0.0661
     31 C          -8.7579    4.9267    0.5042 C.ar    1  LIG1       -0.0277
     32 C          -9.5219    6.0885    0.6256 C.ar    1  LIG1        0.0334
     33 H          -9.1502    3.9931    0.8988 H       1  LIG1        0.0644
     34 O          -5.8091    6.1225   -1.2754 O.3     1  LIG1       -0.5061
     35 H          -5.6155    7.0205   -1.5748 H       1  LIG1        0.2922
     36 N         -10.7698    6.0639    1.3157 N.pl3   1  LIG1       -0.3575
     37 H         -11.5276    6.4670    0.7701 H       1  LIG1        0.1423
     38 H         -11.0307    5.1294    1.6105 H       1  LIG1        0.1423
     39 C         -10.3206    9.1109    1.4239 C.ar    1  LIG1        0.2204
     40 C          -9.7664    8.5991    0.2162 C.ar    1  LIG1        0.0471
     41 C          -9.8429    9.4226   -0.9156 C.ar    1  LIG1       -0.0267
     42 C         -10.4112   10.6973   -0.8488 C.ar    1  LIG1        0.0437
     43 C         -10.8853   11.0984    0.4081 C.ar    1  LIG1        0.0520
     44 N         -10.8515   10.3314    1.4955 N.ar    1  LIG1       -0.2191
     45 H          -9.4463    9.0580   -1.8602 H       1  LIG1        0.0644
     46 H         -11.3220   12.0905    0.5310 H       1  LIG1        0.0849
     47 O         -10.3105    8.4254    2.5882 O.3     1  LIG1       -0.4920
     48 H         -10.4145    7.4643    2.3925 H       1  LIG1        0.2937
     49 N         -10.4452   11.5573   -1.9576 N.pl3   1  LIG1       -0.3568
     50 H         -10.5103   11.0818   -2.8485 H       1  LIG1        0.1424
     51 H         -11.1499   12.2807   -1.8908 H       1  LIG1        0.1424
@<TRIPOS>BOND
     1    50    49    1
     2    10     9    1
     3     9     1    1
     4    49    51    1
     5    49    42    1
     6    25    23    1
     7    45    41    1
     8    24    23    1
     9    35    34    1
    10     1     6   ar
    11     1     2   ar
    12    34    26    1
    13     6     5   ar
    14    23    17    1
    15    20    16    1
    16    41    42   ar
    17    41    40   ar
    18    30    27    1
    19    42    43   ar
    20    17    16   ar
    21    17    18   ar
    22    16    15   ar
    23    26    27   ar
    24    26    28   ar
    25    27    29   ar
    26     8     2    1
    27     2     3   ar
    28    18    28    1
    29    18    19   ar
    30     5    15    1
    31     5     4   ar
    32    15    14   ar
    33    28    31   ar
    34    29    40    1
    35    29    32   ar
    36    40    39   ar
    37    19    14   ar
    38    14    21    1
    39    43    46    1
    40    43    44   ar
    41    31    32   ar
    42    31    33    1
    43    32    36    1
    44    37    36    1
    45     3     4   ar
    46     3     7    1
    47    21    22    1
    48     4    11    1
    49    36    38    1
    50    39    44   ar
    51    39    47    1
    52    13    11    1
    53    11    12    1
    54    48    47    1
