@<TRIPOS>MOLECULE
mol_data/opt/b3lyp/geoms/mol2/6fh6fh6fh6fh.out
 50 53 0 0 0
SMALL
GASTEIGER

@<TRIPOS>ATOM
      1 C          -4.3905   -2.1567    0.8779 C.ar    1  LIG1        0.2129
      2 C          -3.0915   -2.3722    0.4034 C.ar    1  LIG1        0.0016
      3 C          -2.4910   -1.3412   -0.3031 C.ar    1  LIG1       -0.0339
      4 C          -3.1402   -0.1143   -0.5022 C.ar    1  LIG1        0.0513
      5 C          -4.4189    0.0471    0.0930 C.ar    1  LIG1        0.1005
      6 N          -5.0069   -0.9965    0.7244 N.ar    1  LIG1       -0.2110
      7 H          -1.4998   -1.4874   -0.7256 H       1  LIG1        0.0638
      8 H          -2.5812   -3.3186    0.5531 H       1  LIG1        0.0671
      9 O          -5.1197   -3.1030    1.5252 O.3     1  LIG1       -0.4924
     10 H          -4.6111   -3.9228    1.5726 H       1  LIG1        0.2937
     11 N          -2.5056    0.8955   -1.2458 N.pl3   1  LIG1       -0.3563
     12 H          -1.7390    0.5403   -1.8050 H       1  LIG1        0.1424
     13 H          -3.1422    1.4269   -1.8290 H       1  LIG1        0.1424
     14 C          -6.6411    1.2567    0.2136 C.ar    1  LIG1        0.2224
     15 C          -5.2212    1.2894    0.0576 C.ar    1  LIG1        0.0654
     16 C          -4.6660    2.5634   -0.1201 C.ar    1  LIG1       -0.0246
     17 C          -5.4353    3.7288   -0.1716 C.ar    1  LIG1        0.0519
     18 C          -6.8383    3.5930   -0.0168 C.ar    1  LIG1        0.1005
     19 N          -7.3724    2.3611    0.1418 N.ar    1  LIG1       -0.2104
     20 H          -3.5886    2.6621   -0.2022 H       1  LIG1        0.0645
     21 O          -7.3287    0.1333    0.4321 O.3     1  LIG1       -0.4919
     22 H          -6.6579   -0.5647    0.6624 H       1  LIG1        0.2937
     23 N          -4.7971    4.9741   -0.3516 N.pl3   1  LIG1       -0.3563
     24 H          -3.8342    4.8678   -0.6496 H       1  LIG1        0.1424
     25 H          -5.2888    5.5810   -0.9987 H       1  LIG1        0.1424
     26 C          -9.1918    4.4640   -0.3378 C.ar    1  LIG1        0.2224
     27 C          -7.8149    4.7011   -0.0318 C.ar    1  LIG1        0.0654
     28 C          -7.4831    6.0342    0.2485 C.ar    1  LIG1       -0.0246
     29 C          -8.4136    7.0750    0.2012 C.ar    1  LIG1        0.0519
     30 C          -9.7502    6.7427   -0.1378 C.ar    1  LIG1        0.1005
     31 N         -10.0680    5.4586   -0.4104 N.ar    1  LIG1       -0.2104
     32 H          -6.4671    6.2735    0.5431 H       1  LIG1        0.0645
     33 O          -9.6882    3.2493   -0.5779 O.3     1  LIG1       -0.4919
     34 H          -8.9808    2.6009   -0.3005 H       1  LIG1        0.2937
     35 N          -7.9978    8.3873    0.5064 N.pl3   1  LIG1       -0.3563
     36 H          -6.9912    8.4905    0.4538 H       1  LIG1        0.1424
     37 H          -8.4489    9.0905   -0.0679 H       1  LIG1        0.1424
     38 C         -11.9984    7.4338   -1.0835 C.ar    1  LIG1        0.2219
     39 C         -10.8645    7.7099   -0.2508 C.ar    1  LIG1        0.0653
     40 C         -10.8896    8.9213    0.4607 C.ar    1  LIG1       -0.0252
     41 C         -11.9326    9.8354    0.2932 C.ar    1  LIG1        0.0438
     42 C         -12.9257    9.4888   -0.6326 C.ar    1  LIG1        0.0520
     43 N         -12.9655    8.3289   -1.2840 N.ar    1  LIG1       -0.2191
     44 H         -10.1091    9.1347    1.1834 H       1  LIG1        0.0645
     45 H         -13.7417   10.1839   -0.8377 H       1  LIG1        0.0849
     46 O         -12.1574    6.2684   -1.7224 O.3     1  LIG1       -0.4919
     47 H         -11.4865    5.6433   -1.3361 H       1  LIG1        0.2937
     48 N         -12.0191   11.0126    1.0576 N.pl3   1  LIG1       -0.3568
     49 H         -11.1221   11.3950    1.3286 H       1  LIG1        0.1424
     50 H         -12.5939   11.7294    0.6325 H       1  LIG1        0.1424
@<TRIPOS>BOND
     1    13    11    1
     2    12    11    1
     3    46    47    1
     4    46    38    1
     5    43    38   ar
     6    43    42   ar
     7    11     4    1
     8    38    39   ar
     9    25    23    1
    10    45    42    1
    11     7     3    1
    12    24    23    1
    13    42    41   ar
    14    33    26    1
    15    33    34    1
    16     4     3   ar
    17     4     5   ar
    18    31    26   ar
    19    31    30   ar
    20    23    17    1
    21    26    27   ar
    22     3     2   ar
    23    39    30    1
    24    39    40   ar
    25    20    16    1
    26    17    16   ar
    27    17    18   ar
    28    30    29   ar
    29    16    15   ar
    30    37    35    1
    31    27    18    1
    32    27    28   ar
    33    18    19   ar
    34    15     5    1
    35    15    14   ar
    36     5     6   ar
    37    19    14   ar
    38    29    28   ar
    39    29    35    1
    40    14    21    1
    41    28    32    1
    42    41    40   ar
    43    41    48    1
    44     2     8    1
    45     2     1   ar
    46    21    22    1
    47    36    35    1
    48    40    44    1
    49    50    48    1
    50     6     1   ar
    51     1     9    1
    52    48    49    1
    53     9    10    1
