@<TRIPOS>MOLECULE
mol_data/opt/b3lyp/geoms/mol2/6fh6fh6fh.out
 38 40 0 0 0
SMALL
GASTEIGER

@<TRIPOS>ATOM
      1 C          -4.4430   -2.1218    0.6144 C.ar    1  LIG1        0.2129
      2 C          -3.0819   -2.2446    0.3138 C.ar    1  LIG1        0.0016
      3 C          -2.4383   -1.1276   -0.1977 C.ar    1  LIG1       -0.0339
      4 C          -3.1117    0.0899   -0.3711 C.ar    1  LIG1        0.0513
      5 C          -4.4676    0.1472    0.0465 C.ar    1  LIG1        0.1005
      6 N          -5.0872   -0.9739    0.4849 N.ar    1  LIG1       -0.2110
      7 H          -1.3917   -1.1962   -0.4845 H       1  LIG1        0.0638
      8 H          -2.5527   -3.1833    0.4452 H       1  LIG1        0.0671
      9 O          -5.2095   -3.1538    1.0573 O.3     1  LIG1       -0.4924
     10 H          -4.6726   -3.9557    1.0983 H       1  LIG1        0.2937
     11 N          -2.4288    1.1899   -0.9172 N.pl3   1  LIG1       -0.3563
     12 H          -1.5873    0.9171   -1.4110 H       1  LIG1        0.1424
     13 H          -3.0096    1.7689   -1.5129 H       1  LIG1        0.1424
     14 C          -6.7376    1.2654   -0.0591 C.ar    1  LIG1        0.2224
     15 C          -5.3145    1.3595    0.0104 C.ar    1  LIG1        0.0654
     16 C          -4.7988    2.6621    0.0505 C.ar    1  LIG1       -0.0246
     17 C          -5.6067    3.8008   -0.0066 C.ar    1  LIG1        0.0519
     18 C          -7.0087    3.6033   -0.0947 C.ar    1  LIG1        0.1005
     19 N          -7.5022    2.3468   -0.1386 N.ar    1  LIG1       -0.2104
     20 H          -3.7278    2.8032    0.1531 H       1  LIG1        0.0645
     21 O          -7.3962    0.1021   -0.0589 O.3     1  LIG1       -0.4919
     22 H          -6.7370   -0.5920    0.2081 H       1  LIG1        0.2937
     23 N          -5.0082    5.0752    0.0471 N.pl3   1  LIG1       -0.3563
     24 H          -4.0199    5.0451   -0.1739 H       1  LIG1        0.1424
     25 H          -5.4750    5.7603   -0.5364 H       1  LIG1        0.1424
     26 C          -9.2934    4.4606   -0.7814 C.ar    1  LIG1        0.2219
     27 C          -8.0163    4.6845   -0.1712 C.ar    1  LIG1        0.0653
     28 C          -7.7946    5.9632    0.3682 C.ar    1  LIG1       -0.0252
     29 C          -8.7468    6.9768    0.2375 C.ar    1  LIG1        0.0438
     30 C          -9.9099    6.6542   -0.4749 C.ar    1  LIG1        0.0520
     31 N         -10.1792    5.4417   -0.9526 N.ar    1  LIG1       -0.2191
     32 H          -6.8883    6.1572    0.9321 H       1  LIG1        0.0645
     33 H         -10.6697    7.4184   -0.6466 H       1  LIG1        0.0849
     34 O          -9.6792    3.2592   -1.2294 O.3     1  LIG1       -0.4919
     35 H          -9.0278    2.6018   -0.8669 H       1  LIG1        0.2937
     36 N          -8.5811    8.2353    0.8415 N.pl3   1  LIG1       -0.3568
     37 H          -7.6166    8.5296    0.9260 H       1  LIG1        0.1424
     38 H          -9.1374    8.9658    0.4153 H       1  LIG1        0.1424
@<TRIPOS>BOND
     1    13    11    1
     2    12    11    1
     3    34    35    1
     4    34    26    1
     5    31    26   ar
     6    31    30   ar
     7    11     4    1
     8    26    27   ar
     9    33    30    1
    10    25    23    1
    11     7     3    1
    12    30    29   ar
    13     4     3   ar
    14     4     5   ar
    15     3     2   ar
    16    24    23    1
    17    27    18    1
    18    27    28   ar
    19    19    18   ar
    20    19    14   ar
    21    18    17   ar
    22    14    21    1
    23    14    15   ar
    24    21    22    1
    25    17    23    1
    26    17    16   ar
    27    15     5    1
    28    15    16   ar
    29     5     6   ar
    30    16    20    1
    31    29    28   ar
    32    29    36    1
    33     2     8    1
    34     2     1   ar
    35    28    32    1
    36    38    36    1
    37     6     1   ar
    38     1     9    1
    39    36    37    1
    40     9    10    1
