@<TRIPOS>MOLECULE
mol_data/opt/b3lyp/geoms/mol2/6fh6fh6fh-6fh-.out
 50 53 0 0 0
SMALL
GASTEIGER

@<TRIPOS>ATOM
      1 C          -4.4802   -2.2465   -0.3965 C.ar    1  LIG1        0.2129
      2 C          -3.0934   -2.3572   -0.2514 C.ar    1  LIG1        0.0016
      3 C          -2.3742   -1.1852   -0.0671 C.ar    1  LIG1       -0.0339
      4 C          -3.0137    0.0605    0.0040 C.ar    1  LIG1        0.0513
      5 C          -4.4321    0.0681   -0.0771 C.ar    1  LIG1        0.1005
      6 N          -5.1042   -1.0838   -0.3071 N.ar    1  LIG1       -0.2110
      7 H          -1.2906   -1.2272    0.0127 H       1  LIG1        0.0638
      8 H          -2.5906   -3.3181   -0.3057 H       1  LIG1        0.0671
      9 O          -5.2949   -3.3104   -0.6397 O.3     1  LIG1       -0.4924
     10 H          -4.7574   -4.1094   -0.7135 H       1  LIG1        0.2937
     11 N          -2.2474    1.2237    0.1722 N.pl3   1  LIG1       -0.3563
     12 H          -1.2864    1.1071   -0.1256 H       1  LIG1        0.1424
     13 H          -2.6562    2.0459   -0.2562 H       1  LIG1        0.1424
     14 C          -6.5511    1.3654   -0.6012 C.ar    1  LIG1        0.2224
     15 C          -5.2692    1.2835    0.0269 C.ar    1  LIG1        0.0654
     16 C          -4.8807    2.4124    0.7592 C.ar    1  LIG1       -0.0246
     17 C          -5.6560    3.5779    0.8182 C.ar    1  LIG1        0.0519
     18 C          -6.8409    3.5867    0.0398 C.ar    1  LIG1        0.1005
     19 N          -7.2558    2.4856   -0.6101 N.ar    1  LIG1       -0.2104
     20 H          -3.9681    2.3760    1.3460 H       1  LIG1        0.0645
     21 O          -7.1193    0.3223   -1.2295 O.3     1  LIG1       -0.4919
     22 H          -6.5829   -0.4747   -0.9909 H       1  LIG1        0.2937
     23 N          -5.3032    4.6152    1.6888 N.pl3   1  LIG1       -0.3563
     24 H          -4.3706    4.5052    2.0670 H       1  LIG1        0.1424
     25 H          -5.4236    5.5395    1.2859 H       1  LIG1        0.1424
     26 C          -7.4406    6.0940   -0.1821 C.ar    1  LIG1        0.2224
     27 C          -7.7845    4.7331   -0.0525 C.ar    1  LIG1        0.0654
     28 C          -9.1558    4.4683   -0.0927 C.ar    1  LIG1       -0.0246
     29 C         -10.1091    5.4857   -0.2048 C.ar    1  LIG1        0.0519
     30 C          -9.6335    6.8129   -0.2783 C.ar    1  LIG1        0.1005
     31 N          -8.3167    7.0761   -0.2776 N.ar    1  LIG1       -0.2104
     32 H          -9.4688    3.4300   -0.0504 H       1  LIG1        0.0645
     33 O          -6.1218    6.4716   -0.2524 O.3     1  LIG1       -0.4919
     34 H          -6.1522    7.4340   -0.3807 H       1  LIG1        0.2937
     35 N         -11.4795    5.1783   -0.1930 N.pl3   1  LIG1       -0.3563
     36 H         -12.0500    5.8501   -0.6916 H       1  LIG1        0.1424
     37 H         -11.6755    4.2359   -0.5075 H       1  LIG1        0.1424
     38 C         -10.4304    8.9793   -1.3483 C.ar    1  LIG1        0.2219
     39 C         -10.5521    7.9807   -0.3546 C.ar    1  LIG1        0.0653
     40 C         -11.5734    8.1558    0.5812 C.ar    1  LIG1       -0.0252
     41 C         -12.4189    9.2754    0.5340 C.ar    1  LIG1        0.0438
     42 C         -12.1862   10.1927   -0.4955 C.ar    1  LIG1        0.0520
     43 N         -11.2215   10.0429   -1.4111 N.ar    1  LIG1       -0.2191
     44 H         -11.7016    7.4136    1.3643 H       1  LIG1        0.0645
     45 H         -12.8035   11.0857   -0.5867 H       1  LIG1        0.0849
     46 O          -9.4894    8.8553   -2.3177 O.3     1  LIG1       -0.4919
     47 H          -9.6101    9.6321   -2.8865 H       1  LIG1        0.2937
     48 N         -13.3965    9.4992    1.5135 N.pl3   1  LIG1       -0.3568
     49 H         -14.1486   10.1079    1.2173 H       1  LIG1        0.1424
     50 H         -13.7615    8.6569    1.9385 H       1  LIG1        0.1424
@<TRIPOS>BOND
     1    47    46    1
     2    46    38    1
     3    43    38   ar
     4    43    42   ar
     5    38    39   ar
     6    21    22    1
     7    21    14    1
     8    10     9    1
     9    36    35    1
    10     9     1    1
    11    19    14   ar
    12    19    18   ar
    13    14    15   ar
    14    45    42    1
    15    37    35    1
    16    42    41   ar
    17     1     6   ar
    18     1     2   ar
    19    34    33    1
    20    39    30    1
    21    39    40   ar
    22     6     5   ar
    23     8     2    1
    24    30    31   ar
    25    30    29   ar
    26    31    26   ar
    27    13    11    1
    28    33    26    1
    29     2     3   ar
    30    29    35    1
    31    29    28   ar
    32    26    27   ar
    33    12    11    1
    34    28    27   ar
    35    28    32    1
    36     5     4   ar
    37     5    15    1
    38     3     4   ar
    39     3     7    1
    40    27    18    1
    41     4    11    1
    42    15    16   ar
    43    18    17   ar
    44    41    40   ar
    45    41    48    1
    46    40    44    1
    47    16    17   ar
    48    16    20    1
    49    17    23    1
    50    49    48    1
    51    25    23    1
    52    48    50    1
    53    23    24    1
