@<TRIPOS>MOLECULE
mol_data/opt/b3lyp/geoms/mol2/6fh6fh.out
 26 27 0 0 0
SMALL
GASTEIGER

@<TRIPOS>ATOM
      1 C          -4.4914   -2.0877    0.3292 C.ar    1  LIG1        0.2129
      2 C          -3.1017   -2.1325    0.1759 C.ar    1  LIG1        0.0016
      3 C          -2.4555   -0.9471   -0.1428 C.ar    1  LIG1       -0.0339
      4 C          -3.1616    0.2572   -0.2736 C.ar    1  LIG1        0.0513
      5 C          -4.5589    0.2218   -0.0221 C.ar    1  LIG1        0.1005
      6 N          -5.1710   -0.9569    0.2352 N.ar    1  LIG1       -0.2110
      7 H          -1.3807   -0.9489   -0.3070 H       1  LIG1        0.0638
      8 H          -2.5480   -3.0613    0.2752 H       1  LIG1        0.0671
      9 O          -5.2528   -3.1876    0.5822 O.3     1  LIG1       -0.4924
     10 H          -4.6830   -3.9669    0.6122 H       1  LIG1        0.2937
     11 N          -2.4706    1.4303   -0.6173 N.pl3   1  LIG1       -0.3563
     12 H          -1.5916    1.2430   -1.0843 H       1  LIG1        0.1424
     13 H          -3.0263    2.0837   -1.1566 H       1  LIG1        0.1424
     14 C          -6.8364    1.2805   -0.3861 C.ar    1  LIG1        0.2219
     15 C          -5.4482    1.4063   -0.0627 C.ar    1  LIG1        0.0653
     16 C          -4.9880    2.6984    0.2397 C.ar    1  LIG1       -0.0252
     17 C          -5.8354    3.8060    0.1492 C.ar    1  LIG1        0.0438
     18 C          -7.1463    3.5556   -0.2786 C.ar    1  LIG1        0.0520
     19 N          -7.6314    2.3404   -0.5225 N.ar    1  LIG1       -0.2191
     20 H          -3.9679    2.8376    0.5829 H       1  LIG1        0.0645
     21 H          -7.8416    4.3861   -0.4098 H       1  LIG1        0.0849
     22 O          -7.4288    0.0934   -0.5845 O.3     1  LIG1       -0.4919
     23 H          -6.7967   -0.5953   -0.2587 H       1  LIG1        0.2937
     24 N          -5.4189    5.0933    0.5268 N.pl3   1  LIG1       -0.3568
     25 H          -4.4320    5.2684    0.3874 H       1  LIG1        0.1424
     26 H          -5.9721    5.8362    0.1184 H       1  LIG1        0.1424
@<TRIPOS>BOND
     1    13    11    1
     2    12    11    1
     3    11     4    1
     4    22    14    1
     5    22    23    1
     6    19    14   ar
     7    19    18   ar
     8    21    18    1
     9    14    15   ar
    10     7     3    1
    11    18    17   ar
    12     4     3   ar
    13     4     5   ar
    14     3     2   ar
    15    15     5    1
    16    15    16   ar
    17     5     6   ar
    18    26    24    1
    19    17    16   ar
    20    17    24    1
    21     2     8    1
    22     2     1   ar
    23     6     1   ar
    24    16    20    1
    25     1     9    1
    26    25    24    1
    27     9    10    1
