@<TRIPOS>MOLECULE
mol_data/opt/b3lyp/geoms/mol2/6fh6fh-6fh.out
 38 40 0 0 0
SMALL
GASTEIGER

@<TRIPOS>ATOM
      1 C          -4.5027   -2.0983    0.4052 C.ar    1  LIG1        0.2129
      2 C          -3.1457   -2.2562    0.0870 C.ar    1  LIG1        0.0016
      3 C          -2.4346   -1.1242   -0.2724 C.ar    1  LIG1       -0.0339
      4 C          -3.0499    0.1404   -0.3170 C.ar    1  LIG1        0.0513
      5 C          -4.4173    0.1890    0.0560 C.ar    1  LIG1        0.1005
      6 N          -5.1022   -0.9234    0.3895 N.ar    1  LIG1       -0.2110
      7 H          -1.3843   -1.2097   -0.5408 H       1  LIG1        0.0638
      8 H          -2.6634   -3.2295    0.1178 H       1  LIG1        0.0671
      9 O          -5.3047   -3.1491    0.7524 O.3     1  LIG1       -0.4924
     10 H          -4.7779   -3.9585    0.7426 H       1  LIG1        0.2937
     11 N          -2.3491    1.2423   -0.8107 N.pl3   1  LIG1       -0.3563
     12 H          -1.3540    1.0735   -0.8855 H       1  LIG1        0.1424
     13 H          -2.5361    2.1059   -0.3111 H       1  LIG1        0.1424
     14 C          -4.9022    2.7040    0.4694 C.ar    1  LIG1        0.2224
     15 C          -5.2601    1.4155    0.0257 C.ar    1  LIG1        0.0654
     16 C          -6.5753    1.3119   -0.4357 C.ar    1  LIG1       -0.0246
     17 C          -7.4383    2.4057   -0.4665 C.ar    1  LIG1        0.0519
     18 C          -6.9752    3.6467    0.0178 C.ar    1  LIG1        0.1005
     19 N          -5.7033    3.7546    0.4504 N.ar    1  LIG1       -0.2104
     20 H          -6.9152    0.3397   -0.7789 H       1  LIG1        0.0645
     21 O          -3.6627    2.9225    1.0084 O.3     1  LIG1       -0.4919
     22 H          -3.6721    3.8523    1.2897 H       1  LIG1        0.2937
     23 N          -8.7728    2.2714   -0.9454 N.pl3   1  LIG1       -0.3563
     24 H          -8.9837    2.9166   -1.7032 H       1  LIG1        0.1424
     25 H          -8.9808    1.3252   -1.2454 H       1  LIG1        0.1424
     26 C          -9.1324    4.9876    0.4845 C.ar    1  LIG1        0.2219
     27 C          -7.7770    4.8982    0.0572 C.ar    1  LIG1        0.0653
     28 C          -7.1207    6.1005   -0.2437 C.ar    1  LIG1       -0.0252
     29 C          -7.7756    7.3270   -0.1410 C.ar    1  LIG1        0.0438
     30 C          -9.1099    7.2824    0.2917 C.ar    1  LIG1        0.0520
     31 N          -9.7598    6.1610    0.5879 N.ar    1  LIG1       -0.2191
     32 H          -6.0768    6.0578   -0.5397 H       1  LIG1        0.0645
     33 H          -9.6748    8.2095    0.4007 H       1  LIG1        0.0849
     34 O          -9.8692    3.9258    0.8730 O.3     1  LIG1       -0.4919
     35 H          -9.5843    3.1255    0.3704 H       1  LIG1        0.2937
     36 N          -7.1250    8.5463   -0.3874 N.pl3   1  LIG1       -0.3568
     37 H          -6.3708    8.4832   -1.0589 H       1  LIG1        0.1424
     38 H          -7.7527    9.3026   -0.6292 H       1  LIG1        0.1424
@<TRIPOS>BOND
     1    24    23    1
     2    25    23    1
     3    37    36    1
     4    23    17    1
     5    12    11    1
     6    11     4    1
     7    11    13    1
     8    20    16    1
     9    38    36    1
    10     7     3    1
    11    32    28    1
    12    17    16   ar
    13    17    18   ar
    14    16    15   ar
    15    36    29    1
    16     4     3   ar
    17     4     5   ar
    18     3     2   ar
    19    28    29   ar
    20    28    27   ar
    21    29    30   ar
    22    18    27    1
    23    18    19   ar
    24    15     5    1
    25    15    14   ar
    26     5     6   ar
    27    27    26   ar
    28     2     8    1
    29     2     1   ar
    30    30    33    1
    31    30    31   ar
    32    35    34    1
    33     6     1   ar
    34     1     9    1
    35    19    14   ar
    36    14    21    1
    37    26    31   ar
    38    26    34    1
    39    10     9    1
    40    21    22    1
