@<TRIPOS>MOLECULE
mol_data/opt/b3lyp/geoms/mol2/6fh6fh-6fh-6fh-.out
 50 53 0 0 0
SMALL
GASTEIGER

@<TRIPOS>ATOM
      1 C          -3.7730   -1.8066   -1.1700 C.ar    1  LIG1        0.2129
      2 C          -2.9676   -2.2849   -0.1269 C.ar    1  LIG1        0.0016
      3 C          -2.8601   -1.5027    1.0110 C.ar    1  LIG1       -0.0339
      4 C          -3.5356   -0.2736    1.1168 C.ar    1  LIG1        0.0513
      5 C          -4.3011    0.1255   -0.0091 C.ar    1  LIG1        0.1005
      6 N          -4.4061   -0.6510   -1.1058 N.ar    1  LIG1       -0.2110
      7 H          -2.2552   -1.8463    1.8469 H       1  LIG1        0.0638
      8 H          -2.4434   -3.2341   -0.2010 H       1  LIG1        0.0671
      9 O          -3.9630   -2.5039   -2.3320 O.3     1  LIG1       -0.4924
     10 H          -3.4593   -3.3264   -2.2836 H       1  LIG1        0.2937
     11 N          -3.5154    0.4363    2.3188 N.pl3   1  LIG1       -0.3563
     12 H          -2.8047    0.1041    2.9582 H       1  LIG1        0.1424
     13 H          -3.4540    1.4426    2.1970 H       1  LIG1        0.1424
     14 C          -4.7517    2.6462    0.3723 C.ar    1  LIG1        0.2224
     15 C          -5.1294    1.3619   -0.0674 C.ar    1  LIG1        0.0654
     16 C          -6.3842    1.2969   -0.6778 C.ar    1  LIG1       -0.0246
     17 C          -7.2150    2.4161   -0.7977 C.ar    1  LIG1        0.0519
     18 C          -6.7379    3.6355   -0.2696 C.ar    1  LIG1        0.1005
     19 N          -5.5186    3.7165    0.2871 N.ar    1  LIG1       -0.2104
     20 H          -6.7009    0.3406   -1.0819 H       1  LIG1        0.0645
     21 O          -3.5021    2.8553    0.9028 O.3     1  LIG1       -0.4919
     22 H          -3.4696    3.8096    1.0815 H       1  LIG1        0.2937
     23 N          -8.4876    2.2967   -1.3801 N.pl3   1  LIG1       -0.3563
     24 H          -8.8194    3.1544   -1.8043 H       1  LIG1        0.1424
     25 H          -8.5521    1.5254   -2.0331 H       1  LIG1        0.1424
     26 C          -7.0497    6.1063   -0.8004 C.ar    1  LIG1        0.2224
     27 C          -7.5475    4.8820   -0.2977 C.ar    1  LIG1        0.0654
     28 C          -8.8513    4.9124    0.1966 C.ar    1  LIG1       -0.0246
     29 C          -9.6111    6.0918    0.2061 C.ar    1  LIG1        0.0519
     30 C          -8.9990    7.2529   -0.3059 C.ar    1  LIG1        0.1005
     31 N          -7.7482    7.2293   -0.7986 N.ar    1  LIG1       -0.2104
     32 H          -9.2856    3.9964    0.5883 H       1  LIG1        0.0645
     33 O          -5.8080    6.1569   -1.3436 O.3     1  LIG1       -0.4919
     34 H          -5.7060    7.0725   -1.6491 H       1  LIG1        0.2937
     35 N         -10.9033    6.1010    0.7587 N.pl3   1  LIG1       -0.3563
     36 H         -11.5029    6.8209    0.3747 H       1  LIG1        0.1424
     37 H         -11.3589    5.1975    0.7265 H       1  LIG1        0.1424
     38 C          -9.8437    9.3298   -1.5042 C.ar    1  LIG1        0.2219
     39 C          -9.6975    8.5679   -0.3229 C.ar    1  LIG1        0.0653
     40 C         -10.2191    9.1244    0.8460 C.ar    1  LIG1       -0.0252
     41 C         -10.8398   10.3839    0.8366 C.ar    1  LIG1        0.0438
     42 C         -10.9091   11.0383   -0.3973 C.ar    1  LIG1        0.0520
     43 N         -10.4284   10.5205   -1.5342 N.ar    1  LIG1       -0.2191
     44 H         -10.1253    8.5744    1.7785 H       1  LIG1        0.0645
     45 H         -11.3721   12.0215   -0.4731 H       1  LIG1        0.0849
     46 O          -9.4034    8.8289   -2.6860 O.3     1  LIG1       -0.4919
     47 H          -9.6143    9.5101   -3.3440 H       1  LIG1        0.2937
     48 N         -11.2970   10.9858    2.0167 N.pl3   1  LIG1       -0.3568
     49 H         -12.0025   11.6968    1.8747 H       1  LIG1        0.1424
     50 H         -11.5813   10.3335    2.7358 H       1  LIG1        0.1424
@<TRIPOS>BOND
     1    47    46    1
     2    46    38    1
     3     9    10    1
     4     9     1    1
     5    25    23    1
     6    24    23    1
     7    34    33    1
     8    43    38   ar
     9    43    42   ar
    10    38    39   ar
    11    23    17    1
    12    33    26    1
    13     1     6   ar
    14     1     2   ar
    15     6     5   ar
    16    20    16    1
    17    26    31   ar
    18    26    27   ar
    19    31    30   ar
    20    17    16   ar
    21    17    18   ar
    22    16    15   ar
    23    45    42    1
    24    42    41   ar
    25    39    30    1
    26    39    40   ar
    27    30    29   ar
    28    27    18    1
    29    27    28   ar
    30    18    19   ar
    31     8     2    1
    32     2     3   ar
    33    15     5    1
    34    15    14   ar
    35     5     4   ar
    36    28    29   ar
    37    28    32    1
    38    29    35    1
    39    19    14   ar
    40    14    21    1
    41    36    35    1
    42    37    35    1
    43    41    40   ar
    44    41    48    1
    45    40    44    1
    46    21    22    1
    47     3     4   ar
    48     3     7    1
    49     4    11    1
    50    49    48    1
    51    48    50    1
    52    13    11    1
    53    11    12    1
