@<TRIPOS>MOLECULE
mol_data/opt/b3lyp/geoms/mol2/6fh6fh-6fh-6fh.out
 50 53 0 0 0
SMALL
GASTEIGER

@<TRIPOS>ATOM
      1 C          -3.9563   -1.8451   -1.3247 C.ar    1  LIG1        0.2129
      2 C          -3.0576   -2.3339   -0.3656 C.ar    1  LIG1        0.0016
      3 C          -2.8213   -1.5500    0.7510 C.ar    1  LIG1       -0.0339
      4 C          -3.4606   -0.3080    0.9182 C.ar    1  LIG1        0.0513
      5 C          -4.3296    0.0998   -0.1260 C.ar    1  LIG1        0.1005
      6 N          -4.5597   -0.6784   -1.2024 N.ar    1  LIG1       -0.2110
      7 H          -2.1410   -1.9015    1.5231 H       1  LIG1        0.0638
      8 H          -2.5606   -3.2927   -0.4873 H       1  LIG1        0.0671
      9 O          -4.2751   -2.5424   -2.4577 O.3     1  LIG1       -0.4924
     10 H          -3.7827   -3.3732   -2.4579 H       1  LIG1        0.2937
     11 N          -3.3058    0.4054    2.1076 N.pl3   1  LIG1       -0.3563
     12 H          -2.5419    0.0619    2.6757 H       1  LIG1        0.1424
     13 H          -3.2406    1.4102    1.9771 H       1  LIG1        0.1424
     14 C          -4.6985    2.6301    0.2821 C.ar    1  LIG1        0.2224
     15 C          -5.1401    1.3491   -0.1066 C.ar    1  LIG1        0.0654
     16 C          -6.4513    1.3011   -0.5850 C.ar    1  LIG1       -0.0246
     17 C          -7.2727    2.4326   -0.6262 C.ar    1  LIG1        0.0519
     18 C          -6.7253    3.6464   -0.1584 C.ar    1  LIG1        0.1005
     19 N          -5.4533    3.7124    0.2674 N.ar    1  LIG1       -0.2104
     20 H          -6.8214    0.3480   -0.9493 H       1  LIG1        0.0645
     21 O          -3.3992    2.8195    0.6810 O.3     1  LIG1       -0.4919
     22 H          -3.3306    3.7728    0.8542 H       1  LIG1        0.2937
     23 N          -8.6021    2.3310   -1.0721 N.pl3   1  LIG1       -0.3563
     24 H          -8.9476    3.1781   -1.5071 H       1  LIG1        0.1424
     25 H          -8.7527    1.5340   -1.6787 H       1  LIG1        0.1424
     26 C          -7.0507    6.1298   -0.6357 C.ar    1  LIG1        0.2224
     27 C          -7.5145    4.9041   -0.1027 C.ar    1  LIG1        0.0654
     28 C          -8.7698    4.9569    0.5021 C.ar    1  LIG1       -0.0246
     29 C          -9.4837    6.1541    0.6093 C.ar    1  LIG1        0.0519
     30 C          -8.8962    7.3332    0.1114 C.ar    1  LIG1        0.1005
     31 N          -7.7116    7.2716   -0.5330 N.ar    1  LIG1       -0.2104
     32 H          -9.2013    4.0402    0.8956 H       1  LIG1        0.0645
     33 O          -5.8790    6.1620   -1.3107 O.3     1  LIG1       -0.4919
     34 H          -5.7592    7.0892   -1.5719 H       1  LIG1        0.2937
     35 N         -10.7559    6.1917    1.2501 N.pl3   1  LIG1       -0.3563
     36 H         -11.4794    6.5960    0.6602 H       1  LIG1        0.1424
     37 H         -11.0574    5.2766    1.5668 H       1  LIG1        0.1424
     38 C         -10.1731    9.2221    1.3261 C.ar    1  LIG1        0.2219
     39 C          -9.5163    8.6833    0.1834 C.ar    1  LIG1        0.0653
     40 C          -9.3492    9.5353   -0.9183 C.ar    1  LIG1       -0.0252
     41 C          -9.8219   10.8467   -0.8964 C.ar    1  LIG1        0.0438
     42 C         -10.4532   11.2582    0.2878 C.ar    1  LIG1        0.0520
     43 N         -10.6234   10.4780    1.3507 N.ar    1  LIG1       -0.2191
     44 H          -8.8185    9.1558   -1.7862 H       1  LIG1        0.0645
     45 H         -10.8383   12.2757    0.3705 H       1  LIG1        0.0849
     46 O         -10.3417    8.5474    2.4835 O.3     1  LIG1       -0.4919
     47 H         -10.4491    7.5858    2.2905 H       1  LIG1        0.2937
     48 N          -9.6215   11.7332   -1.9656 N.pl3   1  LIG1       -0.3568
     49 H          -9.5523   11.2834   -2.8691 H       1  LIG1        0.1424
     50 H         -10.2869   12.4950   -1.9968 H       1  LIG1        0.1424
@<TRIPOS>BOND
     1    49    48    1
     2    10     9    1
     3     9     1    1
     4    50    48    1
     5    48    41    1
     6    44    40    1
     7    25    23    1
     8    34    33    1
     9    24    23    1
    10     1     6   ar
    11     1     2   ar
    12    33    26    1
    13     6     5   ar
    14    23    17    1
    15    20    16    1
    16    40    41   ar
    17    40    39   ar
    18    41    42   ar
    19    26    31   ar
    20    26    27   ar
    21    17    16   ar
    22    17    18   ar
    23    16    15   ar
    24    31    30   ar
    25     8     2    1
    26     2     3   ar
    27    18    27    1
    28    18    19   ar
    29     5    15    1
    30     5     4   ar
    31    15    14   ar
    32    27    28   ar
    33    30    39    1
    34    30    29   ar
    35    39    38   ar
    36    19    14   ar
    37    14    21    1
    38    42    45    1
    39    42    43   ar
    40    28    29   ar
    41    28    32    1
    42    29    35    1
    43    36    35    1
    44    21    22    1
    45     3     4   ar
    46     3     7    1
    47     4    11    1
    48    35    37    1
    49    38    43   ar
    50    38    46    1
    51    13    11    1
    52    11    12    1
    53    47    46    1
