@<TRIPOS>MOLECULE
mol_data/opt/b3lyp/geoms/mol2/6fh6fh-6fh6fh-.out
 50 53 0 0 0
SMALL
GASTEIGER

@<TRIPOS>ATOM
      1 C          -3.9159   -1.9097   -1.0560 C.ar    1  LIG1        0.2129
      2 C          -3.0141   -2.2900   -0.0515 C.ar    1  LIG1        0.0016
      3 C          -2.8103   -1.4082    0.9961 C.ar    1  LIG1       -0.0339
      4 C          -3.4846   -0.1744    1.0527 C.ar    1  LIG1        0.0513
      5 C          -4.3528    0.1193   -0.0296 C.ar    1  LIG1        0.1005
      6 N          -4.5505   -0.7535   -1.0382 N.ar    1  LIG1       -0.2110
      7 H          -2.1289   -1.6744    1.8007 H       1  LIG1        0.0638
      8 H          -2.4903   -3.2415   -0.0872 H       1  LIG1        0.0671
      9 O          -4.2050   -2.7088   -2.1273 O.3     1  LIG1       -0.4924
     10 H          -3.6950   -3.5253   -2.0513 H       1  LIG1        0.2937
     11 N          -3.3623    0.6396    2.1787 N.pl3   1  LIG1       -0.3563
     12 H          -2.5991    0.3662    2.7843 H       1  LIG1        0.1424
     13 H          -3.3278    1.6318    1.9690 H       1  LIG1        0.1424
     14 C          -4.8120    2.6642    0.1622 C.ar    1  LIG1        0.2224
     15 C          -5.1987    1.3401   -0.1253 C.ar    1  LIG1        0.0654
     16 C          -6.4938    1.2199   -0.6377 C.ar    1  LIG1       -0.0246
     17 C          -7.3417    2.3173   -0.7699 C.ar    1  LIG1        0.0519
     18 C          -6.8797    3.5833   -0.3534 C.ar    1  LIG1        0.1005
     19 N          -5.6042    3.7165    0.0622 N.ar    1  LIG1       -0.2104
     20 H          -6.8191    0.2350   -0.9582 H       1  LIG1        0.0645
     21 O          -3.5275    2.9310    0.5561 O.3     1  LIG1       -0.4919
     22 H          -3.5026    3.8927    0.6911 H       1  LIG1        0.2937
     23 N          -8.6639    2.1641   -1.2764 N.pl3   1  LIG1       -0.3563
     24 H          -8.8505    2.7800   -2.0645 H       1  LIG1        0.1424
     25 H          -8.8611    1.2076   -1.5504 H       1  LIG1        0.1424
     26 C          -9.0462    4.9425    0.0080 C.ar    1  LIG1        0.2224
     27 C          -7.6834    4.8313   -0.3874 C.ar    1  LIG1        0.0654
     28 C          -7.0396    6.0248   -0.7277 C.ar    1  LIG1       -0.0246
     29 C          -7.6835    7.2653   -0.6974 C.ar    1  LIG1        0.0519
     30 C          -9.0481    7.2530   -0.3100 C.ar    1  LIG1        0.1005
     31 N          -9.6701    6.1132    0.0301 N.ar    1  LIG1       -0.2104
     32 H          -5.9879    5.9782   -0.9949 H       1  LIG1        0.0645
     33 O          -9.7877    3.9014    0.4496 O.3     1  LIG1       -0.4919
     34 H          -9.5052    3.0796   -0.0182 H       1  LIG1        0.2937
     35 N          -6.9666    8.4418   -0.9354 N.pl3   1  LIG1       -0.3563
     36 H          -6.0540    8.2665   -1.3365 H       1  LIG1        0.1424
     37 H          -7.4800    9.1252   -1.4831 H       1  LIG1        0.1424
     38 C          -9.9622    9.5584   -1.0415 C.ar    1  LIG1        0.2219
     39 C          -9.8902    8.4717   -0.1474 C.ar    1  LIG1        0.0653
     40 C         -10.7498    8.5397    0.9532 C.ar    1  LIG1       -0.0252
     41 C         -11.5896    9.6405    1.1608 C.ar    1  LIG1        0.0438
     42 C         -11.5344   10.6647    0.2077 C.ar    1  LIG1        0.0520
     43 N         -10.7440   10.6135   -0.8692 N.ar    1  LIG1       -0.2191
     44 H         -10.7546    7.7030    1.6444 H       1  LIG1        0.0645
     45 H         -12.1544   11.5539    0.3126 H       1  LIG1        0.0849
     46 O          -9.2226    9.5510   -2.1992 O.3     1  LIG1       -0.4919
     47 H          -9.4616   10.3778   -2.6487 H       1  LIG1        0.2937
     48 N         -12.3963    9.7437    2.3014 N.pl3   1  LIG1       -0.3568
     49 H         -13.2058   10.3394    2.1851 H       1  LIG1        0.1424
     50 H         -12.6598    8.8526    2.7015 H       1  LIG1        0.1424
@<TRIPOS>BOND
     1    47    46    1
     2    46    38    1
     3     9    10    1
     4     9     1    1
     5    24    23    1
     6    25    23    1
     7    37    35    1
     8    36    35    1
     9    23    17    1
    10     1     6   ar
    11     1     2   ar
    12    38    43   ar
    13    38    39   ar
    14     6     5   ar
    15    32    28    1
    16    20    16    1
    17    35    29    1
    18    43    42   ar
    19    17    16   ar
    20    17    18   ar
    21    28    29   ar
    22    28    27   ar
    23    29    30   ar
    24    16    15   ar
    25    27    18    1
    26    27    26   ar
    27    18    19   ar
    28    30    39    1
    29    30    31   ar
    30    39    40   ar
    31    15     5    1
    32    15    14   ar
    33     8     2    1
    34     2     3   ar
    35     5     4   ar
    36    34    33    1
    37    26    31   ar
    38    26    33    1
    39    19    14   ar
    40    14    21    1
    41    42    45    1
    42    42    41   ar
    43    21    22    1
    44    40    41   ar
    45    40    44    1
    46     3     4   ar
    47     3     7    1
    48     4    11    1
    49    41    48    1
    50    13    11    1
    51    11    12    1
    52    49    48    1
    53    48    50    1
