@<TRIPOS>MOLECULE
mol_data/opt/b3lyp/geoms/mol2/6fh6fh6fh6fh-.out
 50 53 0 0 0
SMALL
GASTEIGER

@<TRIPOS>ATOM
      1 C          -4.4582   -2.2152    0.5071 C.ar    1  LIG1        0.2129
      2 C          -3.1288   -2.3769    0.1019 C.ar    1  LIG1        0.0016
      3 C          -2.4875   -1.2718   -0.4380 C.ar    1  LIG1       -0.0339
      4 C          -3.1299   -0.0298   -0.5389 C.ar    1  LIG1        0.0513
      5 C          -4.4479    0.0642   -0.0183 C.ar    1  LIG1        0.1005
      6 N          -5.0707   -1.0445    0.4468 N.ar    1  LIG1       -0.2110
      7 H          -1.4685   -1.3694   -0.8044 H       1  LIG1        0.0638
      8 H          -2.6238   -3.3350    0.1768 H       1  LIG1        0.0671
      9 O          -5.2240   -3.2301    0.9897 O.3     1  LIG1       -0.4924
     10 H          -4.7121   -4.0491    0.9780 H       1  LIG1        0.2937
     11 N          -2.4529    1.0580   -1.1162 N.pl3   1  LIG1       -0.3563
     12 H          -1.6595    0.7681   -1.6756 H       1  LIG1        0.1424
     13 H          -3.0564    1.6665   -1.6573 H       1  LIG1        0.1424
     14 C          -6.6789    1.2597    0.0732 C.ar    1  LIG1        0.2224
     15 C          -5.2520    1.3044    0.0318 C.ar    1  LIG1        0.0654
     16 C          -4.6890    2.5880    0.0521 C.ar    1  LIG1       -0.0246
     17 C          -5.4582    3.7542    0.0756 C.ar    1  LIG1        0.0519
     18 C          -6.8690    3.6055    0.0938 C.ar    1  LIG1        0.1005
     19 N          -7.4092    2.3672    0.0713 N.ar    1  LIG1       -0.2104
     20 H          -3.6090    2.6909    0.0733 H       1  LIG1        0.0645
     21 O          -7.3755    0.1190    0.1081 O.3     1  LIG1       -0.4919
     22 H          -6.7211   -0.6014    0.3095 H       1  LIG1        0.2937
     23 N          -4.8150    5.0063    0.1012 N.pl3   1  LIG1       -0.3563
     24 H          -3.8491    4.9504   -0.1992 H       1  LIG1        0.1424
     25 H          -5.3051    5.7197   -0.4266 H       1  LIG1        0.1424
     26 C          -9.1692    4.5556   -0.3938 C.ar    1  LIG1        0.2224
     27 C          -7.8388    4.7201    0.1094 C.ar    1  LIG1        0.0654
     28 C          -7.5424    5.9856    0.6331 C.ar    1  LIG1       -0.0246
     29 C          -8.4554    7.0473    0.6037 C.ar    1  LIG1        0.0519
     30 C          -9.6910    6.7994   -0.0445 C.ar    1  LIG1        0.1005
     31 N         -10.0117    5.5731   -0.4907 N.ar    1  LIG1       -0.2104
     32 H          -6.5916    6.1439    1.1317 H       1  LIG1        0.0645
     33 O          -9.6460    3.3721   -0.8063 O.3     1  LIG1       -0.4919
     34 H          -8.9888    2.6878   -0.5101 H       1  LIG1        0.2937
     35 N          -8.1722    8.2408    1.2797 N.pl3   1  LIG1       -0.3563
     36 H          -7.2064    8.2978    1.5780 H       1  LIG1        0.1424
     37 H          -8.4383    9.0706    0.7587 H       1  LIG1        0.1424
     38 C         -10.6320    9.1519   -0.5586 C.ar    1  LIG1        0.2219
     39 C         -10.7845    7.7993   -0.1932 C.ar    1  LIG1        0.0653
     40 C         -12.1041    7.3666   -0.0265 C.ar    1  LIG1       -0.0252
     41 C         -13.1872    8.2406   -0.1764 C.ar    1  LIG1        0.0438
     42 C         -12.8867    9.5664   -0.5118 C.ar    1  LIG1        0.0520
     43 N         -11.6375   10.0016   -0.7050 N.ar    1  LIG1       -0.2191
     44 H         -12.2656    6.3212    0.2156 H       1  LIG1        0.0645
     45 H         -13.6809   10.3012   -0.6352 H       1  LIG1        0.0849
     46 O          -9.3843    9.6603   -0.8279 O.3     1  LIG1       -0.4919
     47 H          -9.5465   10.5845   -1.0778 H       1  LIG1        0.2937
     48 N         -14.5035    7.8260    0.0637 N.pl3   1  LIG1       -0.3568
     49 H         -15.2056    8.3705   -0.4204 H       1  LIG1        0.1424
     50 H         -14.6552    6.8357   -0.0774 H       1  LIG1        0.1424
@<TRIPOS>BOND
     1    12    11    1
     2    13    11    1
     3    11     4    1
     4    47    46    1
     5    46    38    1
     6    33    34    1
     7    33    26    1
     8     7     3    1
     9    43    38   ar
    10    43    42   ar
    11    45    42    1
    12    38    39   ar
    13     4     3   ar
    14     4     5   ar
    15    42    41   ar
    16    31    26   ar
    17    31    30   ar
    18     3     2   ar
    19    25    23    1
    20    49    48    1
    21    26    27   ar
    22    24    23    1
    23    39    30    1
    24    39    40   ar
    25    41    40   ar
    26    41    48    1
    27    50    48    1
    28    30    29   ar
    29    40    44    1
    30     5    15    1
    31     5     6   ar
    32    15    16   ar
    33    15    14   ar
    34    16    20    1
    35    16    17   ar
    36    19    14   ar
    37    19    18   ar
    38    14    21    1
    39    17    18   ar
    40    17    23    1
    41    18    27    1
    42     2     8    1
    43     2     1   ar
    44    21    22    1
    45    27    28   ar
    46     6     1   ar
    47     1     9    1
    48    29    28   ar
    49    29    35    1
    50    28    32    1
    51    37    35    1
    52    10     9    1
    53    35    36    1
