@<TRIPOS>MOLECULE
mol_data/opt/b3lyp/geoms/mol2/6fh6fh-.out
 26 27 0 0 0
SMALL
GASTEIGER

@<TRIPOS>ATOM
      1 C          -4.5035   -1.9936    0.4943 C.ar    1  LIG1        0.2129
      2 C          -3.1850   -2.1421    0.0414 C.ar    1  LIG1        0.0016
      3 C          -2.5341   -1.0107   -0.4216 C.ar    1  LIG1       -0.0339
      4 C          -3.1737    0.2417   -0.4383 C.ar    1  LIG1        0.0513
      5 C          -4.4985    0.2810    0.0668 C.ar    1  LIG1        0.1005
      6 N          -5.1242   -0.8292    0.5039 N.ar    1  LIG1       -0.2110
      7 H          -1.5150   -1.0882   -0.7930 H       1  LIG1        0.0638
      8 H          -2.6850   -3.1071    0.0504 H       1  LIG1        0.0671
      9 O          -5.2453   -3.0453    0.9576 O.3     1  LIG1       -0.4924
     10 H          -4.7063   -3.8455    0.9161 H       1  LIG1        0.2937
     11 N          -2.5462    1.3435   -1.0244 N.pl3   1  LIG1       -0.3563
     12 H          -1.5607    1.1869   -1.1947 H       1  LIG1        0.1424
     13 H          -2.6933    2.2108   -0.5170 H       1  LIG1        0.1424
     14 C          -4.9636    2.7921    0.4699 C.ar    1  LIG1        0.2219
     15 C          -5.3588    1.4985    0.0758 C.ar    1  LIG1        0.0653
     16 C          -6.7045    1.3630   -0.2797 C.ar    1  LIG1       -0.0252
     17 C          -7.5762    2.4588   -0.2839 C.ar    1  LIG1        0.0438
     18 C          -7.0375    3.6945    0.0957 C.ar    1  LIG1        0.0520
     19 N          -5.7638    3.8475    0.4698 N.ar    1  LIG1       -0.2191
     20 H          -7.0624    0.3732   -0.5446 H       1  LIG1        0.0645
     21 H          -7.6580    4.5893    0.1090 H       1  LIG1        0.0849
     22 O          -3.6848    3.0176    0.9184 O.3     1  LIG1       -0.4919
     23 H          -3.6690    3.9592    1.1549 H       1  LIG1        0.2937
     24 N          -8.9338    2.3185   -0.5939 N.pl3   1  LIG1       -0.3568
     25 H          -9.3747    3.1614   -0.9380 H       1  LIG1        0.1424
     26 H          -9.1472    1.5277   -1.1870 H       1  LIG1        0.1424
@<TRIPOS>BOND
     1    12    11    1
     2    26    24    1
     3    11    13    1
     4    11     4    1
     5    25    24    1
     6     7     3    1
     7    24    17    1
     8    20    16    1
     9     4     3   ar
    10     4     5   ar
    11     3     2   ar
    12    17    16   ar
    13    17    18   ar
    14    16    15   ar
    15     2     8    1
    16     2     1   ar
    17     5    15    1
    18     5     6   ar
    19    15    14   ar
    20    18    21    1
    21    18    19   ar
    22    19    14   ar
    23    14    22    1
    24     1     6   ar
    25     1     9    1
    26    10     9    1
    27    22    23    1
