@<TRIPOS>MOLECULE
mol_data/opt/b3lyp/geoms/mol2/6fi4da4al-12ei.out
 52 55 0 0 0
SMALL
GASTEIGER

@<TRIPOS>ATOM
      1 C          -4.4290   -2.1144   -0.6285 C.ar    1  LIG1        0.2128
      2 C          -3.0852   -2.2684   -0.2536 C.ar    1  LIG1        0.0001
      3 C          -2.4308   -1.1559    0.2503 C.ar    1  LIG1       -0.0518
      4 C          -3.0783    0.0842    0.3567 C.ar    1  LIG1       -0.0242
      5 C          -4.4133    0.1227   -0.0903 C.ar    1  LIG1        0.0789
      6 N          -5.0714   -0.9605   -0.5449 N.ar    1  LIG1       -0.2127
      7 H          -1.3994   -1.2454    0.5813 H       1  LIG1        0.0622
      8 H          -2.5810   -3.2275   -0.3357 H       1  LIG1        0.0671
      9 O          -5.1775   -3.1474   -1.1004 O.3     1  LIG1       -0.4924
     10 H          -4.6294   -3.9423   -1.1370 H       1  LIG1        0.2937
     11 C          -2.3495    1.2594    0.9641 C.3     1  LIG1       -0.0377
     12 H          -3.0365    1.9593    1.4462 H       1  LIG1        0.0278
     13 H          -1.7862    1.8190    0.2103 H       1  LIG1        0.0278
     14 H          -1.6386    0.9140    1.7209 H       1  LIG1        0.0278
     15 C          -4.9234    2.5613   -0.6968 C.ar    1  LIG1        0.0615
     16 C          -5.7727    3.6774   -0.6272 C.ar    1  LIG1       -0.0360
     17 C          -5.2590    1.3549   -0.0429 C.ar    1  LIG1        0.0181
     18 C          -6.9748    3.6316    0.0871 C.ar    1  LIG1       -0.0165
     19 H          -5.4976    4.5746   -1.1708 H       1  LIG1        0.0637
     20 C          -6.4819    1.3100    0.6383 C.ar    1  LIG1       -0.0507
     21 C          -7.3156    2.4193    0.7133 C.ar    1  LIG1       -0.0533
     22 H          -6.7682    0.3815    1.1199 H       1  LIG1        0.0625
     23 N          -2.7984    2.7971   -2.1737 N.1     1  LIG1       -0.1908
     24 C          -3.7446    2.6721   -1.5080 C.1     1  LIG1        0.0998
     25 H          -8.2362    2.3541    1.2846 H       1  LIG1        0.0624
     26 C          -7.3317    6.1189    0.2302 C.ar    1  LIG1       -0.0531
     27 C          -8.1686    7.2222    0.3261 C.ar    1  LIG1       -0.0469
     28 C          -7.8591    4.8187    0.1683 C.ar    1  LIG1       -0.0144
     29 C          -9.5704    7.0916    0.3524 C.ar    1  LIG1        0.0601
     30 H          -7.7349    8.2118    0.4074 H       1  LIG1        0.0626
     31 C          -9.2540    4.6787    0.1836 C.ar    1  LIG1       -0.0115
     32 C         -10.1011    5.7815    0.2669 C.ar    1  LIG1        0.1313
     33 H          -9.7182    3.7016    0.1020 H       1  LIG1        0.0660
     34 H          -6.2568    6.2666    0.2519 H       1  LIG1        0.0624
     35 O         -11.4529    5.5308    0.2883 O.3     1  LIG1       -0.4944
     36 C         -12.1486    5.8213   -0.9248 C.3     1  LIG1        0.0788
     37 H         -13.1943    5.5645   -0.7464 H       1  LIG1        0.0660
     38 H         -12.0806    6.8816   -1.1919 H       1  LIG1        0.0660
     39 H         -11.7607    5.2153   -1.7536 H       1  LIG1        0.0660
     40 C         -10.3976    8.2868    0.4855 C.ar    1  LIG1        0.1538
     41 C         -10.1988    9.6122    0.1271 C.ar    1  LIG1        0.0733
     42 C         -11.3737   10.3418    0.5560 C.ar    1  LIG1        0.0033
     43 C         -12.1808    9.4126    1.1313 C.ar    1  LIG1        0.0967
     44 O         -11.6120    8.1728    1.0968 O.2     1  LIG1       -0.4613
     45 H         -13.1528    9.4696    1.5964 H       1  LIG1        0.1032
     46 C          -9.0973   10.1851   -0.5561 C.1     1  LIG1       -0.0656
     47 C          -8.1803   10.7222   -1.1375 C.1     1  LIG1       -0.1138
     48 H          -7.3717   11.1808   -1.6579 H       1  LIG1        0.1232
     49 C         -11.6199   11.8071    0.3826 C.3     1  LIG1       -0.0355
     50 H         -12.5885   12.0959    0.7990 H       1  LIG1        0.0279
     51 H         -11.6070   12.0883   -0.6761 H       1  LIG1        0.0279
     52 H         -10.8448   12.4000    0.8800 H       1  LIG1        0.0279
@<TRIPOS>BOND
     1    23    24    3
     2    39    36    1
     3    48    47    1
     4    24    15    1
     5    38    36    1
     6    19    16    1
     7    47    46    3
     8    10     9    1
     9     9     1    1
    10    36    37    1
    11    36    35    1
    12    15    16   ar
    13    15    17   ar
    14    51    49    1
    15     1     6   ar
    16     1     2   ar
    17    16    18   ar
    18    46    41    1
    19     6     5   ar
    20     8     2    1
    21     2     3   ar
    22     5    17    1
    23     5     4   ar
    24    17    20   ar
    25    18    28    1
    26    18    21   ar
    27    33    31    1
    28    41    40   ar
    29    41    42   ar
    30    28    31   ar
    31    28    26   ar
    32    31    32   ar
    33    13    11    1
    34    26    34    1
    35    26    27   ar
    36     3     4   ar
    37     3     7    1
    38    32    35    1
    39    32    29   ar
    40    27    29   ar
    41    27    30    1
    42    29    40    1
    43     4    11    1
    44    49    42    1
    45    49    50    1
    46    49    52    1
    47    40    44   ar
    48    42    43   ar
    49    20    21   ar
    50    20    22    1
    51    21    25    1
    52    11    12    1
    53    11    14    1
    54    44    43   ar
    55    43    45    1
