@<TRIPOS>MOLECULE
mol_data/opt/b3lyp/geoms/mol2/6fi6fi6fi-6fi.out
 54 57 0 0 0
SMALL
GASTEIGER

@<TRIPOS>ATOM
      1 C          -4.4266   -2.1848   -0.9152 C.ar    1  LIG1        0.2128
      2 C          -3.1650   -2.4146   -0.3578 C.ar    1  LIG1        0.0001
      3 C          -2.5823   -1.3579    0.3267 C.ar    1  LIG1       -0.0518
      4 C          -3.1944   -0.1016    0.4287 C.ar    1  LIG1       -0.0241
      5 C          -4.4411    0.0511   -0.2301 C.ar    1  LIG1        0.0828
      6 N          -5.0228   -1.0049   -0.8513 N.ar    1  LIG1       -0.2126
      7 H          -1.6237   -1.5113    0.8156 H       1  LIG1        0.0622
      8 H          -2.6784   -3.3826   -0.4275 H       1  LIG1        0.0671
      9 O          -5.1436   -3.1407   -1.5572 O.3     1  LIG1       -0.4924
     10 H          -4.6527   -3.9729   -1.5416 H       1  LIG1        0.2937
     11 C          -2.5158    0.9510    1.2759 C.3     1  LIG1       -0.0377
     12 H          -3.2348    1.5402    1.8506 H       1  LIG1        0.0278
     13 H          -1.9165    1.6511    0.6818 H       1  LIG1        0.0278
     14 H          -1.8336    0.4715    1.9837 H       1  LIG1        0.0278
     15 C          -6.6629    1.2711   -0.4582 C.ar    1  LIG1        0.2223
     16 C          -5.2411    1.2991   -0.2828 C.ar    1  LIG1        0.0623
     17 C          -4.6773    2.5757   -0.1764 C.ar    1  LIG1       -0.0425
     18 C          -5.4375    3.7465   -0.1784 C.ar    1  LIG1       -0.0234
     19 C          -6.8316    3.5766   -0.2957 C.ar    1  LIG1        0.0828
     20 N          -7.4082    2.3725   -0.4202 N.ar    1  LIG1       -0.2120
     21 H          -3.6025    2.6770   -0.1004 H       1  LIG1        0.0629
     22 O          -7.3426    0.1404   -0.6645 O.3     1  LIG1       -0.4919
     23 H          -6.6660   -0.5616   -0.8579 H       1  LIG1        0.2937
     24 C          -4.7642    5.0859   -0.0048 C.3     1  LIG1       -0.0377
     25 H          -5.3214    5.7268    0.6863 H       1  LIG1        0.0278
     26 H          -4.6906    5.6273   -0.9520 H       1  LIG1        0.0278
     27 H          -3.7556    4.9583    0.3990 H       1  LIG1        0.0278
     28 C          -7.7765    5.8368   -1.0750 C.ar    1  LIG1        0.2223
     29 C          -7.8048    4.7052   -0.2358 C.ar    1  LIG1        0.0623
     30 C          -8.8811    4.6446    0.6480 C.ar    1  LIG1       -0.0425
     31 C          -9.8441    5.6588    0.7326 C.ar    1  LIG1       -0.0234
     32 C          -9.6969    6.7412   -0.1592 C.ar    1  LIG1        0.0828
     33 N          -8.6743    6.8123   -1.0349 N.ar    1  LIG1       -0.2120
     34 H          -8.9566    3.7782    1.2981 H       1  LIG1        0.0629
     35 O          -6.8122    5.9474   -2.0222 O.3     1  LIG1       -0.4919
     36 H          -7.0139    6.7688   -2.4994 H       1  LIG1        0.2937
     37 C         -10.9313    5.5977    1.7826 C.3     1  LIG1       -0.0377
     38 H         -10.7285    4.7931    2.4936 H       1  LIG1        0.0278
     39 H         -11.9227    5.4223    1.3530 H       1  LIG1        0.0278
     40 H         -10.9931    6.5372    2.3412 H       1  LIG1        0.0278
     41 C         -12.0181    7.7529   -0.4534 C.ar    1  LIG1        0.2217
     42 C         -10.6373    7.8981   -0.1809 C.ar    1  LIG1        0.0623
     43 C         -10.1715    9.1975    0.0177 C.ar    1  LIG1       -0.0431
     44 C         -11.0485   10.2875    0.0120 C.ar    1  LIG1       -0.0315
     45 C         -12.3950    9.9906   -0.2123 C.ar    1  LIG1        0.0343
     46 N         -12.8738    8.7654   -0.4522 N.ar    1  LIG1       -0.2206
     47 H          -9.1086    9.3469    0.1893 H       1  LIG1        0.0629
     48 H         -13.1334   10.7920   -0.2082 H       1  LIG1        0.0833
     49 O         -12.5724    6.5481   -0.7594 O.3     1  LIG1       -0.4919
     50 H         -11.8626    5.8996   -0.8758 H       1  LIG1        0.2937
     51 C         -10.5734   11.7010    0.2382 C.3     1  LIG1       -0.0383
     52 H         -11.4125   12.4024    0.2370 H       1  LIG1        0.0278
     53 H          -9.8740   12.0201   -0.5432 H       1  LIG1        0.0278
     54 H         -10.0548   11.8046    1.1980 H       1  LIG1        0.0278
@<TRIPOS>BOND
     1    36    35    1
     2    35    28    1
     3     9    10    1
     4     9     1    1
     5    28    33   ar
     6    28    29   ar
     7    33    32   ar
     8    26    24    1
     9     1     6   ar
    10     1     2   ar
    11    50    49    1
    12    23    22    1
    13     6     5   ar
    14    49    41    1
    15    22    15    1
    16    53    51    1
    17    15    20   ar
    18    15    16   ar
    19    41    46   ar
    20    41    42   ar
    21    46    45   ar
    22     8     2    1
    23    20    19   ar
    24     2     3   ar
    25    19    29    1
    26    19    18   ar
    27    16     5    1
    28    16    17   ar
    29    29    30   ar
    30     5     4   ar
    31    45    48    1
    32    45    44   ar
    33    42    32    1
    34    42    43   ar
    35    18    17   ar
    36    18    24    1
    37    17    21    1
    38    32    31   ar
    39    24    27    1
    40    24    25    1
    41    44    43   ar
    42    44    51    1
    43    43    47    1
    44    52    51    1
    45    51    54    1
    46     3     4   ar
    47     3     7    1
    48     4    11    1
    49    30    31   ar
    50    30    34    1
    51    13    11    1
    52    31    37    1
    53    11    12    1
    54    11    14    1
    55    39    37    1
    56    37    40    1
    57    37    38    1
