@<TRIPOS>MOLECULE
mol_data/opt/b3lyp/geoms/mol2/6fi6fi-4fi6fi.out
 55 58 0 0 0
SMALL
GASTEIGER

@<TRIPOS>ATOM
      1 C          -4.6865   -2.3215    0.0569 C.ar    1  LIG1        0.2128
      2 C          -3.3102   -2.5034   -0.1374 C.ar    1  LIG1        0.0001
      3 C          -2.5345   -1.3654   -0.3065 C.ar    1  LIG1       -0.0518
      4 C          -3.1085   -0.0877   -0.3086 C.ar    1  LIG1       -0.0241
      5 C          -4.5090   -0.0348   -0.1484 C.ar    1  LIG1        0.0828
      6 N          -5.2652   -1.1307    0.0526 N.ar    1  LIG1       -0.2126
      7 H          -1.4586   -1.4642   -0.4263 H       1  LIG1        0.0622
      8 H          -2.8632   -3.4940   -0.1368 H       1  LIG1        0.0671
      9 O          -5.5374   -3.3639    0.2698 O.3     1  LIG1       -0.4924
     10 H          -5.0321   -4.1872    0.2538 H       1  LIG1        0.2937
     11 C          -2.2360    1.1366   -0.4314 C.3     1  LIG1       -0.0377
     12 H          -2.5646    1.9311    0.2457 H       1  LIG1        0.0278
     13 H          -2.2643    1.5487   -1.4441 H       1  LIG1        0.0278
     14 H          -1.1981    0.8929   -0.1861 H       1  LIG1        0.0278
     15 C          -5.2388    2.2249   -1.1212 C.ar    1  LIG1        0.2223
     16 C          -5.2766    1.2426   -0.1131 C.ar    1  LIG1        0.0623
     17 C          -6.1637    1.4947    0.9337 C.ar    1  LIG1       -0.0425
     18 C          -6.9223    2.6682    1.0053 C.ar    1  LIG1       -0.0235
     19 C          -6.7625    3.5835   -0.0493 C.ar    1  LIG1        0.0812
     20 N          -5.9408    3.3497   -1.0868 N.ar    1  LIG1       -0.2121
     21 H          -6.2534    0.7462    1.7154 H       1  LIG1        0.0629
     22 O          -4.4791    2.0261   -2.2292 O.3     1  LIG1       -0.4919
     23 H          -4.6279    2.8110   -2.7812 H       1  LIG1        0.2937
     24 C          -7.8439    2.9192    2.1759 C.3     1  LIG1       -0.0377
     25 H          -7.5923    2.2587    3.0102 H       1  LIG1        0.0278
     26 H          -8.8935    2.7348    1.9191 H       1  LIG1        0.0278
     27 H          -7.7784    3.9527    2.5277 H       1  LIG1        0.0278
     28 C          -6.8634    6.1090    0.0166 C.ar    1  LIG1        0.1266
     29 C          -7.5932    7.2947   -0.0823 C.ar    1  LIG1       -0.0114
     30 C          -7.5197    4.8720   -0.1052 C.ar    1  LIG1        0.0424
     31 C          -8.9788    7.2887   -0.2991 C.ar    1  LIG1       -0.0064
     32 H          -7.0785    8.2498    0.0008 H       1  LIG1        0.0660
     33 C          -8.9019    4.8809   -0.3078 C.ar    1  LIG1       -0.0456
     34 C          -9.6592    6.0550   -0.4082 C.ar    1  LIG1       -0.0417
     35 H          -9.4108    3.9248   -0.3971 H       1  LIG1        0.0628
     36 O          -5.5178    6.1025    0.2441 O.3     1  LIG1       -0.5061
     37 H          -5.2032    7.0148    0.2936 H       1  LIG1        0.2922
     38 C         -11.1598    5.9790   -0.5863 C.3     1  LIG1       -0.0391
     39 H         -11.5011    4.9418   -0.5399 H       1  LIG1        0.0278
     40 H         -11.4848    6.3947   -1.5461 H       1  LIG1        0.0278
     41 H         -11.6824    6.5419    0.1944 H       1  LIG1        0.0278
     42 C         -10.2789    9.0347   -1.6055 C.ar    1  LIG1        0.2202
     43 C          -9.6949    8.5949   -0.3921 C.ar    1  LIG1        0.0441
     44 C          -9.7895    9.4620    0.6952 C.ar    1  LIG1       -0.0446
     45 C         -10.4569   10.6894    0.5866 C.ar    1  LIG1       -0.0315
     46 C         -11.0057   10.9812   -0.6630 C.ar    1  LIG1        0.0343
     47 N         -10.9193   10.1868   -1.7368 N.ar    1  LIG1       -0.2207
     48 H          -9.3471    9.1631    1.6429 H       1  LIG1        0.0628
     49 H         -11.5461   11.9157   -0.8115 H       1  LIG1        0.0833
     50 O         -10.2118    8.2868   -2.7393 O.3     1  LIG1       -0.4920
     51 H          -9.6520    7.5151   -2.5631 H       1  LIG1        0.2937
     52 C         -10.5835   11.6381    1.7523 C.3     1  LIG1       -0.0383
     53 H         -11.1514   12.5299    1.4727 H       1  LIG1        0.0278
     54 H          -9.6027   11.9696    2.1124 H       1  LIG1        0.0278
     55 H         -11.0970   11.1698    2.5998 H       1  LIG1        0.0278
@<TRIPOS>BOND
     1    23    22    1
     2    50    51    1
     3    50    42    1
     4    22    15    1
     5    47    42   ar
     6    47    46   ar
     7    42    43   ar
     8    40    38    1
     9    13    11    1
    10    15    20   ar
    11    15    16   ar
    12    20    19   ar
    13    49    46    1
    14    46    45   ar
    15    38    39    1
    16    38    34    1
    17    38    41    1
    18    11     4    1
    19    11    14    1
    20    11    12    1
    21     7     3    1
    22    34    33   ar
    23    34    31   ar
    24    35    33    1
    25    43    31    1
    26    43    44   ar
    27     4     3   ar
    28     4     5   ar
    29    33    30   ar
    30     3     2   ar
    31    31    29   ar
    32     5    16    1
    33     5     6   ar
    34     2     8    1
    35     2     1   ar
    36    16    17   ar
    37    30    19    1
    38    30    28   ar
    39    29    32    1
    40    29    28   ar
    41    19    18   ar
    42    28    36    1
    43     6     1   ar
    44     1     9    1
    45    36    37    1
    46    10     9    1
    47    45    44   ar
    48    45    52    1
    49    44    48    1
    50    17    18   ar
    51    17    21    1
    52    18    24    1
    53    53    52    1
    54    52    54    1
    55    52    55    1
    56    26    24    1
    57    24    27    1
    58    24    25    1
