@<TRIPOS>MOLECULE
mol_data/opt/b3lyp/geoms/mol2/6fi6al-12ll-4ff-.out
 55 58 0 0 0
SMALL
GASTEIGER

@<TRIPOS>ATOM
      1 C          -4.6030   -2.3261   -0.1281 C.ar    1  LIG1        0.2128
      2 C          -3.2413   -2.5114    0.1537 C.ar    1  LIG1        0.0001
      3 C          -2.5004   -1.3823    0.4678 C.ar    1  LIG1       -0.0518
      4 C          -3.0806   -0.1066    0.4790 C.ar    1  LIG1       -0.0242
      5 C          -4.4522   -0.0393    0.1436 C.ar    1  LIG1        0.0792
      6 N          -5.1827   -1.1377   -0.1336 N.ar    1  LIG1       -0.2127
      7 H          -1.4491   -1.4880    0.7238 H       1  LIG1        0.0622
      8 H          -2.7876   -3.4986    0.1447 H       1  LIG1        0.0671
      9 O          -5.4339   -3.3633   -0.4194 O.3     1  LIG1       -0.4924
     10 H          -4.9313   -4.1877   -0.3849 H       1  LIG1        0.2937
     11 C          -2.2396    1.0819    0.8872 C.3     1  LIG1       -0.0377
     12 H          -2.8224    1.8249    1.4368 H       1  LIG1        0.0278
     13 H          -1.7896    1.5917    0.0261 H       1  LIG1        0.0278
     14 H          -1.4151    0.7576    1.5292 H       1  LIG1        0.0278
     15 C          -6.5552    1.2438    0.5674 C.ar    1  LIG1        0.0378
     16 C          -5.2314    1.2272    0.1019 C.ar    1  LIG1        0.0223
     17 C          -4.7332    2.4234   -0.4338 C.ar    1  LIG1       -0.0071
     18 C          -5.5406    3.5590   -0.4631 C.ar    1  LIG1        0.1497
     19 C          -6.8457    3.4876    0.0894 C.ar    1  LIG1        0.1512
     20 N          -7.3250    2.3287    0.5753 N.ar    1  LIG1       -0.2474
     21 H          -3.7443    2.4505   -0.8714 H       1  LIG1        0.0662
     22 H          -6.9944    0.3292    0.9545 H       1  LIG1        0.0836
     23 O          -5.1737    4.7455   -1.0191 O.3     1  LIG1       -0.4928
     24 C          -3.9017    4.8472   -1.6391 C.3     1  LIG1        0.0789
     25 H          -3.8365    5.8688   -2.0145 H       1  LIG1        0.0660
     26 H          -3.0860    4.6718   -0.9256 H       1  LIG1        0.0660
     27 H          -3.8030    4.1449   -2.4767 H       1  LIG1        0.0660
     28 C          -7.7586    4.6286    0.1053 C.ar    1  LIG1        0.2026
     29 C          -7.6525    6.0041    0.1950 C.ar    1  LIG1        0.2102
     30 C          -8.9855    6.5324    0.1771 C.ar    1  LIG1        0.2087
     31 C          -9.8407    5.4537    0.1093 C.ar    1  LIG1        0.1846
     32 O          -9.0915    4.3074    0.0772 O.2     1  LIG1       -0.4454
     33 O          -6.5542    6.8070    0.2962 O.3     1  LIG1       -0.4884
     34 C          -5.7756    6.6265    1.4796 C.3     1  LIG1        0.0791
     35 H          -5.0079    7.4030    1.4618 H       1  LIG1        0.0660
     36 H          -6.3934    6.7444    2.3776 H       1  LIG1        0.0660
     37 H          -5.2928    5.6439    1.4979 H       1  LIG1        0.0660
     38 O          -9.3245    7.8473    0.2330 O.3     1  LIG1       -0.4884
     39 C          -8.7959    8.6484   -0.8286 C.3     1  LIG1        0.0791
     40 H          -9.1546    9.6636   -0.6472 H       1  LIG1        0.0660
     41 H          -7.7019    8.6387   -0.8313 H       1  LIG1        0.0660
     42 H          -9.1668    8.3020   -1.8017 H       1  LIG1        0.0660
     43 C         -12.2200    6.1055    0.6387 C.ar    1  LIG1        0.1278
     44 C         -13.5880    5.8646    0.4761 C.ar    1  LIG1       -0.0160
     45 C         -11.2844    5.2639    0.0024 C.ar    1  LIG1        0.0659
     46 C         -14.0506    4.7895   -0.2760 C.ar    1  LIG1       -0.0167
     47 H         -14.3030    6.5218    0.9672 H       1  LIG1        0.0655
     48 C         -11.7671    4.1699   -0.7400 C.ar    1  LIG1       -0.0059
     49 C         -13.1309    3.9275   -0.8790 C.ar    1  LIG1        0.1178
     50 H         -11.0448    3.5085   -1.2097 H       1  LIG1        0.0662
     51 H         -15.1125    4.6031   -0.3938 H       1  LIG1        0.0655
     52 O         -11.7556    7.1151    1.4336 O.3     1  LIG1       -0.5061
     53 H         -12.5095    7.5916    1.8035 H       1  LIG1        0.2922
     54 O         -13.6270    2.8723   -1.6017 O.3     1  LIG1       -0.5067
     55 H         -12.8870    2.3416   -1.9241 H       1  LIG1        0.2921
@<TRIPOS>BOND
     1    27    24    1
     2    25    24    1
     3    55    54    1
     4    42    39    1
     5    24    23    1
     6    24    26    1
     7    54    49    1
     8    50    48    1
     9    23    18    1
    10    49    48   ar
    11    49    46   ar
    12    21    17    1
    13    41    39    1
    14    39    40    1
    15    39    38    1
    16    48    45   ar
    17    18    17   ar
    18    18    19   ar
    19    17    16   ar
    20     9    10    1
    21     9     1    1
    22    51    46    1
    23    46    44   ar
    24     6     1   ar
    25     6     5   ar
    26     1     2   ar
    27    45    31    1
    28    45    43   ar
    29    13    11    1
    30    32    28   ar
    31    32    31   ar
    32    19    28    1
    33    19    20   ar
    34    16     5    1
    35    16    15   ar
    36    28    29   ar
    37    31    30   ar
    38     5     4   ar
    39     8     2    1
    40     2     3   ar
    41    30    29   ar
    42    30    38    1
    43    29    33    1
    44    33    34    1
    45     3     4   ar
    46     3     7    1
    47    44    43   ar
    48    44    47    1
    49     4    11    1
    50    15    20   ar
    51    15    22    1
    52    43    52    1
    53    11    12    1
    54    11    14    1
    55    52    53    1
    56    35    34    1
    57    34    37    1
    58    34    36    1
