@<TRIPOS>MOLECULE
mol_data/opt/b3lyp/geoms/mol2/6fi6fi-6fi6fi-.out
 54 57 0 0 0
SMALL
GASTEIGER

@<TRIPOS>ATOM
      1 C          -4.4862   -2.1774   -0.8219 C.ar    1  LIG1        0.2128
      2 C          -3.1488   -2.3721   -0.4490 C.ar    1  LIG1        0.0001
      3 C          -2.4650   -1.2809    0.0670 C.ar    1  LIG1       -0.0518
      4 C          -3.0792   -0.0272    0.1862 C.ar    1  LIG1       -0.0241
      5 C          -4.4129    0.0552   -0.2637 C.ar    1  LIG1        0.0828
      6 N          -5.0969   -1.0060   -0.7316 N.ar    1  LIG1       -0.2126
      7 H          -1.4368   -1.4019    0.3985 H       1  LIG1        0.0622
      8 H          -2.6701   -3.3433   -0.5412 H       1  LIG1        0.0671
      9 O          -5.2640   -3.1850   -1.3046 O.3     1  LIG1       -0.4924
     10 H          -4.7407   -3.9965   -1.3379 H       1  LIG1        0.2937
     11 C          -2.3341    1.1264    0.8103 C.3     1  LIG1       -0.0377
     12 H          -2.9829    1.7129    1.4683 H       1  LIG1        0.0278
     13 H          -1.9455    1.8113    0.0513 H       1  LIG1        0.0278
     14 H          -1.4938    0.7605    1.4074 H       1  LIG1        0.0278
     15 C          -4.8373    2.5372   -0.7685 C.ar    1  LIG1        0.2223
     16 C          -5.2213    1.3065   -0.1996 C.ar    1  LIG1        0.0623
     17 C          -6.4855    1.2890    0.3879 C.ar    1  LIG1       -0.0425
     18 C          -7.3030    2.4251    0.4483 C.ar    1  LIG1       -0.0234
     19 C          -6.7991    3.5955   -0.1565 C.ar    1  LIG1        0.0828
     20 N          -5.5862    3.6316   -0.7428 N.ar    1  LIG1       -0.2120
     21 H          -6.8317    0.3558    0.8218 H       1  LIG1        0.0629
     22 O          -3.6557    2.6343   -1.4270 O.3     1  LIG1       -0.4919
     23 H          -3.6234    3.5449   -1.7632 H       1  LIG1        0.2937
     24 C          -8.6192    2.3850    1.1921 C.3     1  LIG1       -0.0377
     25 H          -8.7221    1.4414    1.7336 H       1  LIG1        0.0278
     26 H          -9.4825    2.4851    0.5265 H       1  LIG1        0.0278
     27 H          -8.6854    3.2017    1.9182 H       1  LIG1        0.0278
     28 C          -8.8143    5.0216   -0.7891 C.ar    1  LIG1        0.2223
     29 C          -7.5541    4.8806   -0.1703 C.ar    1  LIG1        0.0623
     30 C          -7.0234    6.0326    0.4088 C.ar    1  LIG1       -0.0425
     31 C          -7.7144    7.2475    0.4135 C.ar    1  LIG1       -0.0234
     32 C          -8.9696    7.2527   -0.2302 C.ar    1  LIG1        0.0828
     33 N          -9.4955    6.1555   -0.8036 N.ar    1  LIG1       -0.2120
     34 H          -6.0522    5.9678    0.8920 H       1  LIG1        0.0629
     35 O          -9.4246    3.9915   -1.4392 O.3     1  LIG1       -0.4919
     36 H          -8.7997    3.2546   -1.5054 H       1  LIG1        0.2937
     37 C          -7.1366    8.4446    1.1273 C.3     1  LIG1       -0.0377
     38 H          -7.9064    8.9854    1.6868 H       1  LIG1        0.0278
     39 H          -6.6949    9.1553    0.4234 H       1  LIG1        0.0278
     40 H          -6.3632    8.1317    1.8344 H       1  LIG1        0.0278
     41 C          -9.4686    9.7066   -0.7893 C.ar    1  LIG1        0.2217
     42 C          -9.8582    8.4491   -0.2817 C.ar    1  LIG1        0.0623
     43 C         -11.1922    8.3394    0.1118 C.ar    1  LIG1       -0.0431
     44 C         -12.0668    9.4324    0.0592 C.ar    1  LIG1       -0.0315
     45 C         -11.5336   10.6263   -0.4250 C.ar    1  LIG1        0.0343
     46 N         -10.2703   10.7635   -0.8497 N.ar    1  LIG1       -0.2206
     47 H         -11.5434    7.3727    0.4614 H       1  LIG1        0.0629
     48 H         -12.1536   11.5196   -0.4859 H       1  LIG1        0.0833
     49 O          -8.2168    9.8700   -1.2888 O.3     1  LIG1       -0.4919
     50 H          -8.1875   10.7881   -1.6038 H       1  LIG1        0.2937
     51 C         -13.5057    9.3246    0.4980 C.3     1  LIG1       -0.0383
     52 H         -13.5853    9.0291    1.5503 H       1  LIG1        0.0278
     53 H         -14.0482    8.5756   -0.0897 H       1  LIG1        0.0278
     54 H         -14.0264   10.2793    0.3812 H       1  LIG1        0.0278
@<TRIPOS>BOND
     1    23    22    1
     2    50    49    1
     3    36    35    1
     4    35    28    1
     5    22    15    1
     6    10     9    1
     7     9     1    1
     8    49    41    1
     9    46    41   ar
    10    46    45   ar
    11     1     6   ar
    12     1     2   ar
    13    33    28   ar
    14    33    32   ar
    15    41    42   ar
    16    28    29   ar
    17    15    20   ar
    18    15    16   ar
    19    20    19   ar
    20     6     5   ar
    21     8     2    1
    22    48    45    1
    23     2     3   ar
    24    45    44   ar
    25    42    32    1
    26    42    43   ar
    27     5    16    1
    28     5     4   ar
    29    32    31   ar
    30    16    17   ar
    31    29    19    1
    32    29    30   ar
    33    19    18   ar
    34    53    51    1
    35    13    11    1
    36    44    43   ar
    37    44    51    1
    38     3     4   ar
    39     3     7    1
    40    43    47    1
    41     4    11    1
    42    54    51    1
    43    17    18   ar
    44    17    21    1
    45    30    31   ar
    46    30    34    1
    47    31    37    1
    48    39    37    1
    49    18    24    1
    50    51    52    1
    51    26    24    1
    52    11    14    1
    53    11    12    1
    54    37    38    1
    55    37    40    1
    56    24    25    1
    57    24    27    1
