@<TRIPOS>MOLECULE
mol_data/opt/b3lyp/geoms/mol2/6fi6fi6fi6fi.out
 54 57 0 0 0
SMALL
GASTEIGER

@<TRIPOS>ATOM
      1 C          -4.5254   -2.3020   -0.2649 C.ar    1  LIG1        0.2128
      2 C          -3.1468   -2.4337   -0.0684 C.ar    1  LIG1        0.0001
      3 C          -2.4340   -1.2694    0.1776 C.ar    1  LIG1       -0.0518
      4 C          -3.0423   -0.0069    0.1935 C.ar    1  LIG1       -0.0241
      5 C          -4.4320    0.0278   -0.0808 C.ar    1  LIG1        0.0828
      6 N          -5.1261   -1.1221   -0.2724 N.ar    1  LIG1       -0.2126
      7 H          -1.3685   -1.3367    0.3804 H       1  LIG1        0.0622
      8 H          -2.6612   -3.4046   -0.0765 H       1  LIG1        0.0671
      9 O          -5.3571   -3.3539   -0.4575 O.3     1  LIG1       -0.4924
     10 H          -4.8511   -4.1763   -0.4195 H       1  LIG1        0.2937
     11 C          -2.1941    1.1897    0.5590 C.3     1  LIG1       -0.0377
     12 H          -2.7398    1.9030    1.1818 H       1  LIG1        0.0278
     13 H          -1.8273    1.7326   -0.3204 H       1  LIG1        0.0278
     14 H          -1.3136    0.8620    1.1187 H       1  LIG1        0.0278
     15 C          -6.6772    1.2022    0.0663 C.ar    1  LIG1        0.2223
     16 C          -5.2640    1.2512   -0.1437 C.ar    1  LIG1        0.0623
     17 C          -4.7657    2.5169   -0.4725 C.ar    1  LIG1       -0.0425
     18 C          -5.5367    3.6814   -0.4783 C.ar    1  LIG1       -0.0234
     19 C          -6.8924    3.5404   -0.0931 C.ar    1  LIG1        0.0828
     20 N          -7.4103    2.3091    0.1208 N.ar    1  LIG1       -0.2120
     21 H          -3.7317    2.6081   -0.7805 H       1  LIG1        0.0629
     22 O          -7.3557    0.0694    0.2198 O.3     1  LIG1       -0.4919
     23 H          -6.7147   -0.6697    0.0132 H       1  LIG1        0.2937
     24 C          -4.8922    4.9657   -0.9504 C.3     1  LIG1       -0.0377
     25 H          -4.5176    5.5834   -0.1251 H       1  LIG1        0.0278
     26 H          -5.5846    5.5805   -1.5311 H       1  LIG1        0.0278
     27 H          -4.0342    4.7367   -1.5892 H       1  LIG1        0.0278
     28 C          -9.2746    4.4070   -0.0159 C.ar    1  LIG1        0.2223
     29 C          -7.8653    4.6426    0.0521 C.ar    1  LIG1        0.0623
     30 C          -7.5059    5.9657    0.3350 C.ar    1  LIG1       -0.0425
     31 C          -8.4180    7.0184    0.4243 C.ar    1  LIG1       -0.0234
     32 C          -9.7766    6.6982    0.1745 C.ar    1  LIG1        0.0828
     33 N         -10.1482    5.4095    0.0084 N.ar    1  LIG1       -0.2120
     34 H          -6.4667    6.1918    0.5393 H       1  LIG1        0.0629
     35 O          -9.8072    3.1945   -0.1063 O.3     1  LIG1       -0.4919
     36 H          -9.0476    2.5472    0.0080 H       1  LIG1        0.2937
     37 C          -7.9017    8.3770    0.8440 C.3     1  LIG1       -0.0377
     38 H          -8.6156    8.9056    1.4806 H       1  LIG1        0.0278
     39 H          -7.6763    9.0307   -0.0076 H       1  LIG1        0.0278
     40 H          -6.9719    8.2612    1.4090 H       1  LIG1        0.0278
     41 C         -12.2454    7.2680    0.4085 C.ar    1  LIG1        0.2217
     42 C         -10.8935    7.6697    0.1295 C.ar    1  LIG1        0.0623
     43 C         -10.7116    9.0168   -0.2088 C.ar    1  LIG1       -0.0431
     44 C         -11.7667    9.9306   -0.1934 C.ar    1  LIG1       -0.0315
     45 C         -13.0088    9.4218    0.1966 C.ar    1  LIG1        0.0343
     46 N         -13.2517    8.1423    0.4772 N.ar    1  LIG1       -0.2206
     47 H          -9.7315    9.3615   -0.5159 H       1  LIG1        0.0629
     48 H         -13.8661   10.0921    0.2705 H       1  LIG1        0.0833
     49 O         -12.5842    5.9981    0.6221 O.3     1  LIG1       -0.4919
     50 H         -11.7830    5.4487    0.3890 H       1  LIG1        0.2937
     51 C         -11.5833   11.3778   -0.5780 C.3     1  LIG1       -0.0383
     52 H         -12.4894   11.9550   -0.3722 H       1  LIG1        0.0278
     53 H         -11.3600   11.4894   -1.6460 H       1  LIG1        0.0278
     54 H         -10.7603   11.8451   -0.0254 H       1  LIG1        0.0278
@<TRIPOS>BOND
     1    53    51    1
     2    27    24    1
     3    26    24    1
     4    24    18    1
     5    24    25    1
     6    21    17    1
     7    51    52    1
     8    51    44    1
     9    51    54    1
    10    47    43    1
    11    18    17   ar
    12    18    19   ar
    13    17    16   ar
    14     9    10    1
    15     9     1    1
    16    13    11    1
    17     6     1   ar
    18     6     5   ar
    19     1     2   ar
    20    43    44   ar
    21    43    42   ar
    22    44    45   ar
    23    16     5    1
    24    16    15   ar
    25    35    28    1
    26    35    36    1
    27    19    29    1
    28    19    20   ar
    29     5     4   ar
    30     8     2    1
    31     2     3   ar
    32    28    33   ar
    33    28    29   ar
    34    39    37    1
    35    33    32   ar
    36    23    22    1
    37    29    30   ar
    38    15    20   ar
    39    15    22    1
    40    42    32    1
    41    42    41   ar
    42    32    31   ar
    43     3     4   ar
    44     3     7    1
    45     4    11    1
    46    45    48    1
    47    45    46   ar
    48    30    31   ar
    49    30    34    1
    50    50    49    1
    51    41    46   ar
    52    41    49    1
    53    31    37    1
    54    11    14    1
    55    11    12    1
    56    37    40    1
    57    37    38    1
