@<TRIPOS>MOLECULE
mol_data/opt/b3lyp/geoms/mol2/6fi6fi6fi-6fi-.out
 54 57 0 0 0
SMALL
GASTEIGER

@<TRIPOS>ATOM
      1 C          -4.4720   -2.1719   -0.9310 C.ar    1  LIG1        0.2128
      2 C          -3.1955   -2.4065   -0.4111 C.ar    1  LIG1        0.0001
      3 C          -2.5889   -1.3515    0.2555 C.ar    1  LIG1       -0.0518
      4 C          -3.1929   -0.0931    0.3744 C.ar    1  LIG1       -0.0241
      5 C          -4.4576    0.0648   -0.2489 C.ar    1  LIG1        0.0828
      6 N          -5.0616   -0.9898   -0.8513 N.ar    1  LIG1       -0.2126
      7 H          -1.6172   -1.5086    0.7166 H       1  LIG1        0.0622
      8 H          -2.7150   -3.3766   -0.4943 H       1  LIG1        0.0671
      9 O          -5.2114   -3.1266   -1.5503 O.3     1  LIG1       -0.4924
     10 H          -4.7217   -3.9595   -1.5489 H       1  LIG1        0.2937
     11 C          -2.4875    0.9573    1.2022 C.3     1  LIG1       -0.0377
     12 H          -3.1892    1.5508    1.7936 H       1  LIG1        0.0278
     13 H          -1.9007    1.6541    0.5920 H       1  LIG1        0.0278
     14 H          -1.7896    0.4757    1.8931 H       1  LIG1        0.0278
     15 C          -6.6780    1.2972   -0.4093 C.ar    1  LIG1        0.2223
     16 C          -5.2518    1.3166   -0.2800 C.ar    1  LIG1        0.0623
     17 C          -4.6771    2.5906   -0.1968 C.ar    1  LIG1       -0.0425
     18 C          -5.4297    3.7654   -0.1786 C.ar    1  LIG1       -0.0234
     19 C          -6.8290    3.6048   -0.2504 C.ar    1  LIG1        0.0828
     20 N          -7.4154    2.4027   -0.3520 N.ar    1  LIG1       -0.2120
     21 H          -3.5997    2.6855   -0.1564 H       1  LIG1        0.0629
     22 O          -7.3711    0.1686   -0.5884 O.3     1  LIG1       -0.4919
     23 H          -6.7056   -0.5367   -0.8034 H       1  LIG1        0.2937
     24 C          -4.7436    5.1015   -0.0320 C.3     1  LIG1       -0.0377
     25 H          -5.2704    5.7451    0.6800 H       1  LIG1        0.0278
     26 H          -4.7067    5.6424   -0.9816 H       1  LIG1        0.0278
     27 H          -3.7200    4.9690    0.3309 H       1  LIG1        0.0278
     28 C          -7.7741    5.8748   -0.9977 C.ar    1  LIG1        0.2223
     29 C          -7.7900    4.7410   -0.1619 C.ar    1  LIG1        0.0623
     30 C          -8.8432    4.6879    0.7505 C.ar    1  LIG1       -0.0425
     31 C          -9.7860    5.7159    0.8687 C.ar    1  LIG1       -0.0234
     32 C          -9.6342    6.8087   -0.0026 C.ar    1  LIG1        0.0828
     33 N          -8.6485    6.8671   -0.9158 N.ar    1  LIG1       -0.2120
     34 H          -8.9174    3.8133    1.3900 H       1  LIG1        0.0629
     35 O          -6.8475    5.9719   -1.9855 O.3     1  LIG1       -0.4919
     36 H          -7.0418    6.8124   -2.4316 H       1  LIG1        0.2937
     37 C         -10.8843    5.6268    1.9031 C.3     1  LIG1       -0.0377
     38 H         -10.5824    4.9734    2.7265 H       1  LIG1        0.0278
     39 H         -11.8091    5.2110    1.4851 H       1  LIG1        0.0278
     40 H         -11.1304    6.6072    2.3188 H       1  LIG1        0.0278
     41 C         -10.1302    9.2831    0.2855 C.ar    1  LIG1        0.2217
     42 C         -10.5701    7.9711   -0.0002 C.ar    1  LIG1        0.0623
     43 C         -11.9186    7.8315   -0.3152 C.ar    1  LIG1       -0.0431
     44 C         -12.7817    8.9381   -0.3557 C.ar    1  LIG1       -0.0315
     45 C         -12.2115   10.1740   -0.0611 C.ar    1  LIG1        0.0343
     46 N         -10.9202   10.3495    0.2569 N.ar    1  LIG1       -0.2206
     47 H         -12.3014    6.8418   -0.5523 H       1  LIG1        0.0629
     48 H         -12.8210   11.0764   -0.0787 H       1  LIG1        0.0833
     49 O          -8.8386    9.4849    0.6343 O.3     1  LIG1       -0.4919
     50 H          -8.7620   10.4399    0.7910 H       1  LIG1        0.2937
     51 C         -14.2412    8.7981   -0.7094 C.3     1  LIG1       -0.0383
     52 H         -14.7637    8.1337   -0.0117 H       1  LIG1        0.0278
     53 H         -14.3735    8.3798   -1.7137 H       1  LIG1        0.0278
     54 H         -14.7468    9.7676   -0.6852 H       1  LIG1        0.0278
@<TRIPOS>BOND
     1    36    35    1
     2    35    28    1
     3    53    51    1
     4     9    10    1
     5     9     1    1
     6    28    33   ar
     7    28    29   ar
     8    26    24    1
     9     1     6   ar
    10     1     2   ar
    11    33    32   ar
    12     6     5   ar
    13    23    22    1
    14    51    54    1
    15    51    44    1
    16    51    52    1
    17    22    15    1
    18    47    43    1
    19     8     2    1
    20     2     3   ar
    21    15    20   ar
    22    15    16   ar
    23    44    43   ar
    24    44    45   ar
    25    20    19   ar
    26    43    42   ar
    27    16     5    1
    28    16    17   ar
    29    19    18   ar
    30    19    29    1
    31     5     4   ar
    32    17    18   ar
    33    17    21    1
    34    18    24    1
    35    29    30   ar
    36    48    45    1
    37    45    46   ar
    38    24    27    1
    39    24    25    1
    40    32    42    1
    41    32    31   ar
    42    42    41   ar
    43     3     4   ar
    44     3     7    1
    45    46    41   ar
    46    41    49    1
    47     4    11    1
    48    13    11    1
    49    49    50    1
    50    30    31   ar
    51    30    34    1
    52    31    37    1
    53    11    12    1
    54    11    14    1
    55    39    37    1
    56    37    40    1
    57    37    38    1
