@<TRIPOS>MOLECULE
mol_data/opt/b3lyp/geoms/mol2/6fi6fi-6fi.out
 41 43 0 0 0
SMALL
GASTEIGER

@<TRIPOS>ATOM
      1 C          -4.5206   -2.1390   -0.5815 C.ar    1  LIG1        0.2128
      2 C          -3.1554   -2.2760   -0.2929 C.ar    1  LIG1        0.0001
      3 C          -2.4642   -1.1326    0.0804 C.ar    1  LIG1       -0.0518
      4 C          -3.0999    0.1146    0.1412 C.ar    1  LIG1       -0.0241
      5 C          -4.4642    0.1332   -0.2140 C.ar    1  LIG1        0.0828
      6 N          -5.1528   -0.9762   -0.5423 N.ar    1  LIG1       -0.2126
      7 H          -1.4122   -1.2055    0.3441 H       1  LIG1        0.0622
      8 H          -2.6602   -3.2421   -0.3402 H       1  LIG1        0.0671
      9 O          -5.3049   -3.1981   -0.9226 O.3     1  LIG1       -0.4924
     10 H          -4.7649   -3.9993   -0.9277 H       1  LIG1        0.2937
     11 C          -2.3408    1.3311    0.6100 C.3     1  LIG1       -0.0377
     12 H          -2.9534    1.9572    1.2662 H       1  LIG1        0.0278
     13 H          -2.0291    1.9578   -0.2304 H       1  LIG1        0.0278
     14 H          -1.4483    1.0333    1.1678 H       1  LIG1        0.0278
     15 C          -4.9887    2.5551   -0.8873 C.ar    1  LIG1        0.2223
     16 C          -5.2978    1.3694   -0.1916 C.ar    1  LIG1        0.0623
     17 C          -6.5136    1.3768    0.4907 C.ar    1  LIG1       -0.0425
     18 C          -7.3528    2.4981    0.5207 C.ar    1  LIG1       -0.0234
     19 C          -6.9248    3.6234   -0.2139 C.ar    1  LIG1        0.0828
     20 N          -5.7609    3.6336   -0.8936 N.ar    1  LIG1       -0.2120
     21 H          -6.8024    0.4765    1.0246 H       1  LIG1        0.0629
     22 O          -3.8621    2.6190   -1.6398 O.3     1  LIG1       -0.4919
     23 H          -3.8776    3.4988   -2.0507 H       1  LIG1        0.2937
     24 C          -8.6107    2.4945    1.3605 C.3     1  LIG1       -0.0377
     25 H          -8.6433    1.6051    1.9945 H       1  LIG1        0.0278
     26 H          -9.5211    2.5065    0.7530 H       1  LIG1        0.0278
     27 H          -8.6538    3.3755    2.0088 H       1  LIG1        0.0278
     28 C          -9.0219    4.9511   -0.7929 C.ar    1  LIG1        0.2217
     29 C          -7.7091    4.8905   -0.2688 C.ar    1  LIG1        0.0623
     30 C          -7.1481    6.0947    0.1558 C.ar    1  LIG1       -0.0431
     31 C          -7.8826    7.2849    0.1207 C.ar    1  LIG1       -0.0315
     32 C          -9.1870    7.1871   -0.3697 C.ar    1  LIG1        0.0343
     33 N          -9.7448    6.0615   -0.8276 N.ar    1  LIG1       -0.2206
     34 H          -6.1268    6.0892    0.5280 H       1  LIG1        0.0629
     35 H          -9.8196    8.0738   -0.4045 H       1  LIG1        0.0833
     36 O          -9.6402    3.8600   -1.3224 O.3     1  LIG1       -0.4919
     37 H          -8.9978    3.1379   -1.3845 H       1  LIG1        0.2937
     38 C          -7.3058    8.5976    0.5886 C.3     1  LIG1       -0.0383
     39 H          -8.0478    9.3984    0.5232 H       1  LIG1        0.0278
     40 H          -6.4421    8.8964   -0.0166 H       1  LIG1        0.0278
     41 H          -6.9673    8.5421    1.6294 H       1  LIG1        0.0278
@<TRIPOS>BOND
     1    23    22    1
     2    22    15    1
     3    37    36    1
     4    36    28    1
     5    10     9    1
     6     9     1    1
     7    20    15   ar
     8    20    19   ar
     9    15    16   ar
    10    33    28   ar
    11    33    32   ar
    12    28    29   ar
    13     1     6   ar
    14     1     2   ar
    15     6     5   ar
    16    35    32    1
    17    32    31   ar
    18     8     2    1
    19     2     3   ar
    20    29    19    1
    21    29    30   ar
    22    13    11    1
    23     5    16    1
    24     5     4   ar
    25    19    18   ar
    26    16    17   ar
    27    40    38    1
    28     3     4   ar
    29     3     7    1
    30    31    30   ar
    31    31    38    1
    32     4    11    1
    33    30    34    1
    34    17    18   ar
    35    17    21    1
    36    18    24    1
    37    39    38    1
    38    38    41    1
    39    11    14    1
    40    11    12    1
    41    26    24    1
    42    24    25    1
    43    24    27    1
