@<TRIPOS>MOLECULE
mol_data/opt/b3lyp/geoms/mol2/6fi6fi-.out
 28 29 0 0 0
SMALL
GASTEIGER

@<TRIPOS>ATOM
      1 C          -4.4451   -2.0032   -0.7132 C.ar    1  LIG1        0.2128
      2 C          -3.1319   -2.1301   -0.2395 C.ar    1  LIG1        0.0001
      3 C          -2.5328   -0.9956    0.2890 C.ar    1  LIG1       -0.0518
      4 C          -3.2053    0.2327    0.3239 C.ar    1  LIG1       -0.0241
      5 C          -4.5058    0.2455   -0.2219 C.ar    1  LIG1        0.0828
      6 N          -5.1086   -0.8575   -0.7043 N.ar    1  LIG1       -0.2126
      7 H          -1.5273   -1.0619    0.6968 H       1  LIG1        0.0622
      8 H          -2.6085   -3.0821   -0.2665 H       1  LIG1        0.0671
      9 O          -5.1435   -3.0578   -1.2190 O.3     1  LIG1       -0.4924
     10 H          -4.5852   -3.8458   -1.1872 H       1  LIG1        0.2937
     11 C          -2.5552    1.4356    0.9609 C.3     1  LIG1       -0.0377
     12 H          -3.2722    2.0092    1.5564 H       1  LIG1        0.0278
     13 H          -2.1484    2.1170    0.2082 H       1  LIG1        0.0278
     14 H          -1.7409    1.1252    1.6220 H       1  LIG1        0.0278
     15 C          -4.9843    2.6919   -0.8285 C.ar    1  LIG1        0.2217
     16 C          -5.3656    1.4641   -0.2476 C.ar    1  LIG1        0.0623
     17 C          -6.6660    1.4066    0.2542 C.ar    1  LIG1       -0.0431
     18 C          -7.5124    2.5226    0.2322 C.ar    1  LIG1       -0.0315
     19 C          -6.9884    3.6832   -0.3356 C.ar    1  LIG1        0.0343
     20 N          -5.7599    3.7691   -0.8638 N.ar    1  LIG1       -0.2206
     21 H          -7.0128    0.4628    0.6654 H       1  LIG1        0.0629
     22 H          -7.5872    4.5918   -0.3788 H       1  LIG1        0.0833
     23 O          -3.7713    2.8023   -1.4289 O.3     1  LIG1       -0.4919
     24 H          -3.7430    3.7082   -1.7774 H       1  LIG1        0.2937
     25 C          -8.9134    2.4726    0.7886 C.3     1  LIG1       -0.0383
     26 H          -8.9156    2.2060    1.8515 H       1  LIG1        0.0278
     27 H          -9.5247    1.7271    0.2675 H       1  LIG1        0.0278
     28 H          -9.4125    3.4405    0.6881 H       1  LIG1        0.0278
@<TRIPOS>BOND
     1    24    23    1
     2    23    15    1
     3     9    10    1
     4     9     1    1
     5    20    15   ar
     6    20    19   ar
     7    15    16   ar
     8     1     6   ar
     9     1     2   ar
    10     6     5   ar
    11    22    19    1
    12    19    18   ar
    13     8     2    1
    14    16     5    1
    15    16    17   ar
    16     2     3   ar
    17     5     4   ar
    18    13    11    1
    19    18    17   ar
    20    18    25    1
    21    17    21    1
    22    27    25    1
    23     3     4   ar
    24     3     7    1
    25     4    11    1
    26    28    25    1
    27    25    26    1
    28    11    12    1
    29    11    14    1
