@<TRIPOS>MOLECULE
mol_data/opt/b3lyp/geoms/mol2/6fi6fi6fi6fi-.out
 54 57 0 0 0
SMALL
GASTEIGER

@<TRIPOS>ATOM
      1 C          -4.2667   -2.0720   -1.1036 C.ar    1  LIG1        0.2128
      2 C          -3.1214   -2.3758   -0.3614 C.ar    1  LIG1        0.0001
      3 C          -2.6749   -1.4055    0.5239 C.ar    1  LIG1       -0.0518
      4 C          -3.3026   -0.1594    0.6529 C.ar    1  LIG1       -0.0241
      5 C          -4.4158    0.0793   -0.1929 C.ar    1  LIG1        0.0828
      6 N          -4.8717   -0.8978   -1.0173 N.ar    1  LIG1       -0.2126
      7 H          -1.8157   -1.6222    1.1531 H       1  LIG1        0.0622
      8 H          -2.6236   -3.3366   -0.4486 H       1  LIG1        0.0671
      9 O          -4.8541   -2.9419   -1.9612 O.3     1  LIG1       -0.4924
     10 H          -4.3703   -3.7783   -1.9518 H       1  LIG1        0.2937
     11 C          -2.7867    0.7860    1.7138 C.3     1  LIG1       -0.0377
     12 H          -3.5991    1.2952    2.2388 H       1  LIG1        0.0278
     13 H          -2.1210    1.5569    1.3074 H       1  LIG1        0.0278
     14 H          -2.2090    0.2279    2.4557 H       1  LIG1        0.0278
     15 C          -6.5541    1.3368   -0.7291 C.ar    1  LIG1        0.2223
     16 C          -5.2064    1.3307   -0.2545 C.ar    1  LIG1        0.0623
     17 C          -4.7217    2.5843    0.1351 C.ar    1  LIG1       -0.0425
     18 C          -5.4776    3.7583    0.1234 C.ar    1  LIG1       -0.0234
     19 C          -6.8203    3.6439   -0.3218 C.ar    1  LIG1        0.0828
     20 N          -7.2945    2.4400   -0.7163 N.ar    1  LIG1       -0.2120
     21 H          -3.6930    2.6702    0.4577 H       1  LIG1        0.0629
     22 O          -7.1681    0.2564   -1.2051 O.3     1  LIG1       -0.4919
     23 H          -6.4594   -0.4384   -1.3157 H       1  LIG1        0.2937
     24 C          -4.8214    5.0187    0.6412 C.3     1  LIG1       -0.0377
     25 H          -5.4807    5.5797    1.3093 H       1  LIG1        0.0278
     26 H          -4.5115    5.6977   -0.1620 H       1  LIG1        0.0278
     27 H          -3.9194    4.7625    1.2044 H       1  LIG1        0.0278
     28 C          -9.2275    4.4609   -0.3838 C.ar    1  LIG1        0.2223
     29 C          -7.8185    4.7368   -0.3861 C.ar    1  LIG1        0.0623
     30 C          -7.4800    6.0950   -0.4539 C.ar    1  LIG1       -0.0425
     31 C          -8.4276    7.1185   -0.4591 C.ar    1  LIG1       -0.0234
     32 C          -9.7768    6.7139   -0.3887 C.ar    1  LIG1        0.0828
     33 N         -10.1442    5.4262   -0.3436 N.ar    1  LIG1       -0.2120
     34 H          -6.4399    6.3826   -0.5186 H       1  LIG1        0.0629
     35 O          -9.7197    3.2231   -0.4136 O.3     1  LIG1       -0.4919
     36 H          -8.9463    2.6212   -0.6107 H       1  LIG1        0.2937
     37 C          -7.9827    8.5605   -0.4815 C.3     1  LIG1       -0.0377
     38 H          -8.5574    9.1671    0.2261 H       1  LIG1        0.0278
     39 H          -8.1187    9.0101   -1.4690 H       1  LIG1        0.0278
     40 H          -6.9264    8.6402   -0.2080 H       1  LIG1        0.0278
     41 C         -11.1677    8.7078   -1.2190 C.ar    1  LIG1        0.2217
     42 C         -10.9151    7.6735   -0.2935 C.ar    1  LIG1        0.0623
     43 C         -11.8604    7.5218    0.7211 C.ar    1  LIG1       -0.0431
     44 C         -12.9532    8.3898    0.8436 C.ar    1  LIG1       -0.0315
     45 C         -13.0521    9.3965   -0.1158 C.ar    1  LIG1        0.0343
     46 N         -12.1908    9.5498   -1.1307 N.ar    1  LIG1       -0.2206
     47 H         -11.7293    6.7015    1.4209 H       1  LIG1        0.0629
     48 H         -13.8711   10.1133   -0.0770 H       1  LIG1        0.0833
     49 O         -10.3577    8.8554   -2.2988 O.3     1  LIG1       -0.4919
     50 H         -10.7379    9.5943   -2.8010 H       1  LIG1        0.2937
     51 C         -13.9693    8.2419    1.9484 C.3     1  LIG1       -0.0383
     52 H         -13.5036    8.3186    2.9374 H       1  LIG1        0.0278
     53 H         -14.4714    7.2690    1.9025 H       1  LIG1        0.0278
     54 H         -14.7389    9.0164    1.8828 H       1  LIG1        0.0278
@<TRIPOS>BOND
     1    50    49    1
     2    49    41    1
     3     9    10    1
     4     9     1    1
     5    39    37    1
     6    23    22    1
     7    41    46   ar
     8    41    42   ar
     9    22    15    1
    10    46    45   ar
    11     1     6   ar
    12     1     2   ar
    13     6     5   ar
    14    15    20   ar
    15    15    16   ar
    16    20    19   ar
    17    36    35    1
    18    34    30    1
    19    37    31    1
    20    37    40    1
    21    37    38    1
    22    31    30   ar
    23    31    32   ar
    24    30    29   ar
    25     8     2    1
    26    35    28    1
    27    32    33   ar
    28    32    42    1
    29    29    28   ar
    30    29    19    1
    31    28    33   ar
    32     2     3   ar
    33    19    18   ar
    34    42    43   ar
    35    16     5    1
    36    16    17   ar
    37     5     4   ar
    38    26    24    1
    39    45    48    1
    40    45    44   ar
    41    18    17   ar
    42    18    24    1
    43    17    21    1
    44     3     4   ar
    45     3     7    1
    46    24    27    1
    47    24    25    1
    48     4    11    1
    49    43    44   ar
    50    43    47    1
    51    44    51    1
    52    13    11    1
    53    11    12    1
    54    11    14    1
    55    54    51    1
    56    53    51    1
    57    51    52    1
