@<TRIPOS>MOLECULE
mol_data/opt/b3lyp/geoms/mol2/6fi6fi-6fi-6fi-.out
 54 57 0 0 0
SMALL
GASTEIGER

@<TRIPOS>ATOM
      1 C          -4.5224   -2.2492   -0.3641 C.ar    1  LIG1        0.2128
      2 C          -3.1361   -2.3476   -0.5457 C.ar    1  LIG1        0.0001
      3 C          -2.4115   -1.1644   -0.5734 C.ar    1  LIG1       -0.0518
      4 C          -3.0444    0.0790   -0.4503 C.ar    1  LIG1       -0.0241
      5 C          -4.4485    0.0518   -0.3168 C.ar    1  LIG1        0.0828
      6 N          -5.1562   -1.0922   -0.2528 N.ar    1  LIG1       -0.2126
      7 H          -1.3302   -1.2014   -0.6786 H       1  LIG1        0.0622
      8 H          -2.6434   -3.3115   -0.6418 H       1  LIG1        0.0671
      9 O          -5.3273   -3.3459   -0.2849 O.3     1  LIG1       -0.4924
     10 H          -4.7830   -4.1388   -0.3762 H       1  LIG1        0.2937
     11 C          -2.2279    1.3470   -0.4198 C.3     1  LIG1       -0.0377
     12 H          -2.6043    2.0472    0.3323 H       1  LIG1        0.0278
     13 H          -2.2584    1.8661   -1.3819 H       1  LIG1        0.0278
     14 H          -1.1842    1.1242   -0.1800 H       1  LIG1        0.0278
     15 C          -5.2652    2.3719   -1.0513 C.ar    1  LIG1        0.2223
     16 C          -5.2748    1.2822   -0.1589 C.ar    1  LIG1        0.0623
     17 C          -6.1875    1.3798    0.8910 C.ar    1  LIG1       -0.0425
     18 C          -6.9979    2.5055    1.0788 C.ar    1  LIG1       -0.0234
     19 C          -6.8632    3.5394    0.1347 C.ar    1  LIG1        0.0828
     20 N          -6.0163    3.4537   -0.9066 N.ar    1  LIG1       -0.2120
     21 H          -6.2541    0.5473    1.5853 H       1  LIG1        0.0629
     22 O          -4.4801    2.3302   -2.1587 O.3     1  LIG1       -0.4919
     23 H          -4.6484    3.1692   -2.6179 H       1  LIG1        0.2937
     24 C          -7.9386    2.5777    2.2594 C.3     1  LIG1       -0.0377
     25 H          -7.5985    1.9146    3.0598 H       1  LIG1        0.0278
     26 H          -8.9564    2.2665    1.9943 H       1  LIG1        0.0278
     27 H          -8.0067    3.5913    2.6628 H       1  LIG1        0.0278
     28 C          -7.0580    6.0646    0.3295 C.ar    1  LIG1        0.2223
     29 C          -7.6630    4.7961    0.2028 C.ar    1  LIG1        0.0623
     30 C          -9.0518    4.7980    0.1196 C.ar    1  LIG1       -0.0425
     31 C          -9.8023    5.9830    0.1420 C.ar    1  LIG1       -0.0234
     32 C          -9.0767    7.1801    0.2533 C.ar    1  LIG1        0.0828
     33 N          -7.7344    7.2034    0.3520 N.ar    1  LIG1       -0.2120
     34 H          -9.5703    3.8472    0.0259 H       1  LIG1        0.0629
     35 O          -5.7143    6.1485    0.4609 O.3     1  LIG1       -0.4919
     36 H          -5.5263    7.0961    0.5578 H       1  LIG1        0.2937
     37 C         -11.3105    5.9319    0.0598 C.3     1  LIG1       -0.0377
     38 H         -11.6808    4.9632    0.4081 H       1  LIG1        0.0278
     39 H         -11.6730    6.0653   -0.9667 H       1  LIG1        0.0278
     40 H         -11.7751    6.7115    0.6687 H       1  LIG1        0.0278
     41 C          -9.6466    9.3932    1.3623 C.ar    1  LIG1        0.2217
     42 C          -9.7385    8.5177    0.2568 C.ar    1  LIG1        0.0623
     43 C         -10.4511    8.9894   -0.8417 C.ar    1  LIG1       -0.0431
     44 C         -11.0311   10.2679   -0.8470 C.ar    1  LIG1       -0.0315
     45 C         -10.8532   11.0286    0.3060 C.ar    1  LIG1        0.0343
     46 N         -10.1836   10.6069    1.3890 N.ar    1  LIG1       -0.2206
     47 H         -10.5413    8.3542   -1.7196 H       1  LIG1        0.0629
     48 H         -11.2707   12.0324    0.3693 H       1  LIG1        0.0833
     49 O          -9.0000    8.9823    2.4770 O.3     1  LIG1       -0.4919
     50 H          -9.0642    9.7244    3.0995 H       1  LIG1        0.2937
     51 C         -11.7939   10.7930   -2.0374 C.3     1  LIG1       -0.0383
     52 H         -12.6568   10.1604   -2.2754 H       1  LIG1        0.0278
     53 H         -11.1647   10.8315   -2.9340 H       1  LIG1        0.0278
     54 H         -12.1665   11.8042   -1.8511 H       1  LIG1        0.0278
@<TRIPOS>BOND
     1    53    51    1
     2    23    22    1
     3    52    51    1
     4    22    15    1
     5    51    54    1
     6    51    44    1
     7    47    43    1
     8    13    11    1
     9    15    20   ar
    10    15    16   ar
    11    39    37    1
    12    20    19   ar
    13    44    43   ar
    14    44    45   ar
    15    43    42   ar
    16     7     3    1
    17     8     2    1
    18     3     2   ar
    19     3     4   ar
    20     2     1   ar
    21     4    11    1
    22     4     5   ar
    23    11    14    1
    24    11    12    1
    25    10     9    1
    26     1     9    1
    27     1     6   ar
    28     5     6   ar
    29     5    16    1
    30    16    17   ar
    31    34    30    1
    32    37    31    1
    33    37    38    1
    34    37    40    1
    35    30    31   ar
    36    30    29   ar
    37    19    29    1
    38    19    18   ar
    39    31    32   ar
    40    29    28   ar
    41    32    42    1
    42    32    33   ar
    43    42    41   ar
    44    45    48    1
    45    45    46   ar
    46    28    33   ar
    47    28    35    1
    48    35    36    1
    49    17    18   ar
    50    17    21    1
    51    18    24    1
    52    41    46   ar
    53    41    49    1
    54    26    24    1
    55    24    27    1
    56    24    25    1
    57    49    50    1
