@<TRIPOS>MOLECULE
mol_data/opt/b3lyp/geoms/mol2/6fi6fi-6fi-6fi.out
 54 57 0 0 0
SMALL
GASTEIGER

@<TRIPOS>ATOM
      1 C          -4.6577   -2.3135   -0.1567 C.ar    1  LIG1        0.2128
      2 C          -3.2676   -2.4730   -0.2418 C.ar    1  LIG1        0.0001
      3 C          -2.4941   -1.3214   -0.2686 C.ar    1  LIG1       -0.0518
      4 C          -3.0814   -0.0500   -0.2376 C.ar    1  LIG1       -0.0241
      5 C          -4.4907   -0.0176   -0.1963 C.ar    1  LIG1        0.0828
      6 N          -5.2485   -1.1289   -0.1335 N.ar    1  LIG1       -0.2126
      7 H          -1.4107   -1.4051   -0.3003 H       1  LIG1        0.0622
      8 H          -2.8102   -3.4585   -0.2664 H       1  LIG1        0.0671
      9 O          -5.5109   -3.3731   -0.0868 O.3     1  LIG1       -0.4924
     10 H          -4.9963   -4.1904   -0.1135 H       1  LIG1        0.2937
     11 C          -2.2163    1.1852   -0.2034 C.3     1  LIG1       -0.0377
     12 H          -2.6143    1.9336    0.4889 H       1  LIG1        0.0278
     13 H          -2.1566    1.6601   -1.1868 H       1  LIG1        0.0278
     14 H          -1.2024    0.9329    0.1203 H       1  LIG1        0.0278
     15 C          -5.1644    2.2978   -1.0780 C.ar    1  LIG1        0.2223
     16 C          -5.2744    1.2496   -0.1428 C.ar    1  LIG1        0.0623
     17 C          -6.2455    1.4275    0.8412 C.ar    1  LIG1       -0.0425
     18 C          -7.0218    2.5898    0.9291 C.ar    1  LIG1       -0.0234
     19 C          -6.7874    3.5732   -0.0477 C.ar    1  LIG1        0.0828
     20 N          -5.8800    3.4116   -1.0277 N.ar    1  LIG1       -0.2120
     21 H          -6.3885    0.6297    1.5639 H       1  LIG1        0.0629
     22 O          -4.3115    2.1770   -2.1267 O.3     1  LIG1       -0.4919
     23 H          -4.4156    2.9977   -2.6353 H       1  LIG1        0.2937
     24 C          -8.0317    2.7455    2.0426 C.3     1  LIG1       -0.0377
     25 H          -7.7407    2.1451    2.9092 H       1  LIG1        0.0278
     26 H          -9.0309    2.4091    1.7404 H       1  LIG1        0.0278
     27 H          -8.1241    3.7854    2.3656 H       1  LIG1        0.0278
     28 C          -6.8904    6.1110    0.0032 C.ar    1  LIG1        0.2223
     29 C          -7.5393    4.8605   -0.0907 C.ar    1  LIG1        0.0623
     30 C          -8.9198    4.9112   -0.2510 C.ar    1  LIG1       -0.0425
     31 C          -9.6231    6.1234   -0.3443 C.ar    1  LIG1       -0.0234
     32 C          -8.8520    7.3010   -0.2874 C.ar    1  LIG1        0.0828
     33 N          -7.5163    7.2751   -0.0955 N.ar    1  LIG1       -0.2120
     34 H          -9.4732    3.9776   -0.3077 H       1  LIG1        0.0629
     35 O          -5.5584    6.1493    0.2271 O.3     1  LIG1       -0.4919
     36 H          -5.3264    7.0917    0.2541 H       1  LIG1        0.2937
     37 C         -11.1330    6.1280   -0.4345 C.3     1  LIG1       -0.0377
     38 H         -11.5298    5.1277   -0.2428 H       1  LIG1        0.0278
     39 H         -11.4970    6.4502   -1.4153 H       1  LIG1        0.0278
     40 H         -11.5688    6.8114    0.3012 H       1  LIG1        0.0278
     41 C         -10.1924    9.0884   -1.5157 C.ar    1  LIG1        0.2217
     42 C          -9.4546    8.6608   -0.3866 C.ar    1  LIG1        0.0623
     43 C          -9.2624    9.5993    0.6274 C.ar    1  LIG1       -0.0431
     44 C          -9.8340   10.8736    0.5490 C.ar    1  LIG1       -0.0315
     45 C         -10.5868   11.1395   -0.5976 C.ar    1  LIG1        0.0343
     46 N         -10.7557   10.2842   -1.6114 N.ar    1  LIG1       -0.2206
     47 H          -8.6653    9.3155    1.4901 H       1  LIG1        0.0629
     48 H         -11.0767   12.1062   -0.7108 H       1  LIG1        0.0833
     49 O         -10.3635    8.2962   -2.6100 O.3     1  LIG1       -0.4919
     50 H          -9.8070    7.5097   -2.5121 H       1  LIG1        0.2937
     51 C          -9.6543   11.9018    1.6377 C.3     1  LIG1       -0.0383
     52 H         -10.2148   12.8138    1.4135 H       1  LIG1        0.0278
     53 H          -8.6012   12.1814    1.7570 H       1  LIG1        0.0278
     54 H         -10.0012   11.5282    2.6077 H       1  LIG1        0.0278
@<TRIPOS>BOND
     1    23    22    1
     2    49    50    1
     3    49    41    1
     4    22    15    1
     5    46    41   ar
     6    46    45   ar
     7    41    42   ar
     8    39    37    1
     9    13    11    1
    10    15    20   ar
    11    15    16   ar
    12    20    19   ar
    13    48    45    1
    14    45    44   ar
    15    37    31    1
    16    37    38    1
    17    37    40    1
    18    42    32    1
    19    42    43   ar
    20    31    32   ar
    21    31    30   ar
    22    34    30    1
    23     7     3    1
    24    32    33   ar
    25     3     2   ar
    26     3     4   ar
    27     8     2    1
    28    30    29   ar
    29     2     1   ar
    30     4    11    1
    31     4     5   ar
    32    11    14    1
    33    11    12    1
    34     5    16    1
    35     5     6   ar
    36     1     6   ar
    37     1     9    1
    38    16    17   ar
    39    10     9    1
    40    33    28   ar
    41    29    19    1
    42    29    28   ar
    43    19    18   ar
    44    28    35    1
    45    35    36    1
    46    44    43   ar
    47    44    51    1
    48    43    47    1
    49    17    18   ar
    50    17    21    1
    51    18    24    1
    52    52    51    1
    53    51    53    1
    54    51    54    1
    55    26    24    1
    56    24    27    1
    57    24    25    1
