@<TRIPOS>MOLECULE
mol_data/opt/b3lyp/geoms/mol2/6fi6fi.out
 28 29 0 0 0
SMALL
GASTEIGER

@<TRIPOS>ATOM
      1 C          -4.5418   -2.1070   -0.3434 C.ar    1  LIG1        0.2128
      2 C          -3.1480   -2.1735   -0.2511 C.ar    1  LIG1        0.0001
      3 C          -2.4815   -0.9878    0.0221 C.ar    1  LIG1       -0.0518
      4 C          -3.1536    0.2339    0.1603 C.ar    1  LIG1       -0.0241
      5 C          -4.5596    0.2073   -0.0196 C.ar    1  LIG1        0.0828
      6 N          -5.2039   -0.9658   -0.2355 N.ar    1  LIG1       -0.2126
      7 H          -1.4023   -1.0067    0.1501 H       1  LIG1        0.0622
      8 H          -2.6143   -3.1134   -0.3542 H       1  LIG1        0.0671
      9 O          -5.3280   -3.1944   -0.5438 O.3     1  LIG1       -0.4924
     10 H          -4.7737   -3.9846   -0.5896 H       1  LIG1        0.2937
     11 C          -2.3463    1.4512    0.5514 C.3     1  LIG1       -0.0377
     12 H          -2.8973    2.1042    1.2326 H       1  LIG1        0.0278
     13 H          -2.0468    2.0560   -0.3129 H       1  LIG1        0.0278
     14 H          -1.4263    1.1391    1.0541 H       1  LIG1        0.0278
     15 C          -6.8282    1.2662    0.4434 C.ar    1  LIG1        0.2217
     16 C          -5.4531    1.3901    0.0505 C.ar    1  LIG1        0.0623
     17 C          -5.0249    2.6818   -0.2797 C.ar    1  LIG1       -0.0431
     18 C          -5.8614    3.7925   -0.1490 C.ar    1  LIG1       -0.0315
     19 C          -7.1419    3.5366    0.3475 C.ar    1  LIG1        0.0343
     20 N          -7.6201    2.3233    0.6234 N.ar    1  LIG1       -0.2206
     21 H          -4.0250    2.8288   -0.6701 H       1  LIG1        0.0629
     22 H          -7.8308    4.3649    0.5164 H       1  LIG1        0.0833
     23 O          -7.4084    0.0832    0.6616 O.3     1  LIG1       -0.4919
     24 H          -6.7816   -0.6064    0.3190 H       1  LIG1        0.2937
     25 C          -5.4140    5.1838   -0.5227 C.3     1  LIG1       -0.0383
     26 H          -6.1559    5.9279   -0.2188 H       1  LIG1        0.0278
     27 H          -5.2710    5.2872   -1.6051 H       1  LIG1        0.0278
     28 H          -4.4642    5.4483   -0.0444 H       1  LIG1        0.0278
@<TRIPOS>BOND
     1    27    25    1
     2    21    17    1
     3    10     9    1
     4     9     1    1
     5    25    26    1
     6    25    18    1
     7    25    28    1
     8     8     2    1
     9     1     2   ar
    10     1     6   ar
    11    13    11    1
    12    17    18   ar
    13    17    16   ar
    14     2     3   ar
    15     6     5   ar
    16    18    19   ar
    17     5    16    1
    18     5     4   ar
    19     3     7    1
    20     3     4   ar
    21    16    15   ar
    22     4    11    1
    23    24    23    1
    24    19    22    1
    25    19    20   ar
    26    15    20   ar
    27    15    23    1
    28    11    14    1
    29    11    12    1
