@<TRIPOS>MOLECULE
mol_data/opt/b3lyp/geoms/mol2/6fi6fi6fi.out
 41 43 0 0 0
SMALL
GASTEIGER

@<TRIPOS>ATOM
      1 C          -4.5297   -2.1614   -0.6003 C.ar    1  LIG1        0.2128
      2 C          -3.1696   -2.3208   -0.3189 C.ar    1  LIG1        0.0001
      3 C          -2.4881   -1.1975    0.1263 C.ar    1  LIG1       -0.0518
      4 C          -3.1045    0.0544    0.2556 C.ar    1  LIG1       -0.0241
      5 C          -4.4702    0.1292   -0.1197 C.ar    1  LIG1        0.0828
      6 N          -5.1360   -0.9885   -0.5059 N.ar    1  LIG1       -0.2126
      7 H          -1.4407   -1.2918    0.4005 H       1  LIG1        0.0622
      8 H          -2.6768   -3.2836   -0.4122 H       1  LIG1        0.0671
      9 O          -5.3383   -3.1791   -0.9844 O.3     1  LIG1       -0.4924
     10 H          -4.8316   -4.0017   -1.0058 H       1  LIG1        0.2937
     11 C          -2.2890    1.1866    0.8374 C.3     1  LIG1       -0.0377
     12 H          -2.8700    1.7935    1.5367 H       1  LIG1        0.0278
     13 H          -1.8883    1.8590    0.0693 H       1  LIG1        0.0278
     14 H          -1.4314    0.7815    1.3817 H       1  LIG1        0.0278
     15 C          -6.7362    1.2684   -0.0148 C.ar    1  LIG1        0.2223
     16 C          -5.3116    1.3490   -0.1005 C.ar    1  LIG1        0.0623
     17 C          -4.8049    2.6520   -0.1607 C.ar    1  LIG1       -0.0425
     18 C          -5.5911    3.8044   -0.0964 C.ar    1  LIG1       -0.0234
     19 C          -6.9901    3.6105    0.0309 C.ar    1  LIG1        0.0828
     20 N          -7.4936    2.3568    0.0765 N.ar    1  LIG1       -0.2120
     21 H          -3.7390    2.7944   -0.2750 H       1  LIG1        0.0629
     22 O          -7.4064    0.1193   -0.0113 O.3     1  LIG1       -0.4919
     23 H          -6.7440   -0.5883   -0.2527 H       1  LIG1        0.2937
     24 C          -4.8827    5.1407   -0.1001 C.3     1  LIG1       -0.0377
     25 H          -5.3096    5.8318    0.6318 H       1  LIG1        0.0278
     26 H          -4.9139    5.6368   -1.0775 H       1  LIG1        0.0278
     27 H          -3.8270    5.0016    0.1505 H       1  LIG1        0.0278
     28 C          -9.2830    4.4275    0.7712 C.ar    1  LIG1        0.2217
     29 C          -8.0101    4.6801    0.1502 C.ar    1  LIG1        0.0623
     30 C          -7.8197    5.9788   -0.3414 C.ar    1  LIG1       -0.0431
     31 C          -8.7699    6.9852   -0.1604 C.ar    1  LIG1       -0.0315
     32 C          -9.9138    6.6237    0.5563 C.ar    1  LIG1        0.0343
     33 N         -10.1748    5.3943    0.9973 N.ar    1  LIG1       -0.2206
     34 H          -6.9237    6.2129   -0.9014 H       1  LIG1        0.0629
     35 H         -10.6751    7.3744    0.7720 H       1  LIG1        0.0833
     36 O          -9.6582    3.2127    1.1681 O.3     1  LIG1       -0.4919
     37 H          -8.9870    2.5750    0.7936 H       1  LIG1        0.2937
     38 C          -8.5796    8.3777   -0.7087 C.3     1  LIG1       -0.0383
     39 H          -9.3459    9.0573   -0.3246 H       1  LIG1        0.0278
     40 H          -8.6458    8.3960   -1.8035 H       1  LIG1        0.0278
     41 H          -7.6024    8.7924   -0.4370 H       1  LIG1        0.0278
@<TRIPOS>BOND
     1    40    38    1
     2    26    24    1
     3    10     9    1
     4     9     1    1
     5    34    30    1
     6    38    41    1
     7    38    39    1
     8    38    31    1
     9     1     6   ar
    10     1     2   ar
    11     6     5   ar
    12     8     2    1
    13    30    31   ar
    14    30    29   ar
    15     2     3   ar
    16    21    17    1
    17    23    22    1
    18    17    16   ar
    19    17    18   ar
    20    31    32   ar
    21     5    16    1
    22     5     4   ar
    23    16    15   ar
    24    24    18    1
    25    24    27    1
    26    24    25    1
    27    18    19   ar
    28    15    22    1
    29    15    20   ar
    30    19    20   ar
    31    19    29    1
    32    13    11    1
    33     3     4   ar
    34     3     7    1
    35    29    28   ar
    36     4    11    1
    37    32    35    1
    38    32    33   ar
    39    28    33   ar
    40    28    36    1
    41    37    36    1
    42    11    14    1
    43    11    12    1
