@<TRIPOS>MOLECULE
mol_data/opt/b3lyp/geoms/mol2/6fl13di12lh13ld-.out
 54 57 0 0 0
SMALL
GASTEIGER

@<TRIPOS>ATOM
      1 C          -4.7100   -1.9769   -0.9637 C.ar    1  LIG1        0.2131
      2 C          -3.3414   -2.2741   -0.9517 C.ar    1  LIG1        0.0033
      3 C          -2.4544   -1.2576   -0.6075 C.ar    1  LIG1       -0.0127
      4 C          -2.9453    0.0092   -0.2841 C.ar    1  LIG1        0.1477
      5 C          -4.3429    0.2121   -0.3088 C.ar    1  LIG1        0.1336
      6 N          -5.1860   -0.7819   -0.6535 N.ar    1  LIG1       -0.2078
      7 H          -1.3887   -1.4534   -0.5956 H       1  LIG1        0.0656
      8 H          -2.9754   -3.2648   -1.2044 H       1  LIG1        0.0672
      9 O          -5.6621   -2.8965   -1.2916 O.3     1  LIG1       -0.4924
     10 H          -5.2297   -3.7317   -1.5119 H       1  LIG1        0.2937
     11 O          -2.1887    1.0792    0.0475 O.3     1  LIG1       -0.4929
     12 C          -0.7830    0.9396    0.1940 C.3     1  LIG1        0.0789
     13 H          -0.4326    1.9163    0.5274 H       1  LIG1        0.0660
     14 H          -0.5340    0.1815    0.9469 H       1  LIG1        0.0660
     15 H          -0.3061    0.6787   -0.7592 H       1  LIG1        0.0660
     16 C          -5.0061    1.4773    0.0149 C.ar    1  LIG1        0.0870
     17 C          -4.6520    2.7584    0.4897 C.ar    1  LIG1        0.0822
     18 C          -5.8479    3.5385    0.6107 C.ar    1  LIG1       -0.0040
     19 C          -6.8975    2.7222    0.1910 C.ar    1  LIG1        0.0905
     20 N          -6.3606    1.5043   -0.1509 N.ar    1  LIG1       -0.3491
     21 H          -6.8568    0.6869   -0.4800 H       1  LIG1        0.1661
     22 N          -2.4346    3.8690    1.2072 N.1     1  LIG1       -0.1908
     23 C          -3.3942    3.3033    0.8645 C.1     1  LIG1        0.1016
     24 C          -5.9152    4.9295    1.1653 C.3     1  LIG1       -0.0364
     25 H          -6.9322    5.3223    1.1397 H       1  LIG1        0.0279
     26 H          -5.2672    5.6130    0.6052 H       1  LIG1        0.0279
     27 H          -5.5645    4.9494    2.2034 H       1  LIG1        0.0279
     28 C          -8.3227    2.9251    0.1037 C.ar    1  LIG1        0.1954
     29 C          -9.1578    4.0017   -0.0925 C.ar    1  LIG1        0.1885
     30 C         -10.5108    3.5274   -0.0765 C.ar    1  LIG1        0.1156
     31 C         -10.4270    2.1620    0.0964 C.ar    1  LIG1        0.1797
     32 O          -9.0947    1.7910    0.2039 O.2     1  LIG1       -0.4460
     33 O          -8.8529    5.3212   -0.2900 O.3     1  LIG1       -0.4896
     34 C          -8.1539    5.6001   -1.5132 C.3     1  LIG1        0.0791
     35 H          -8.0414    6.6846   -1.5590 H       1  LIG1        0.0660
     36 H          -7.1655    5.1299   -1.5236 H       1  LIG1        0.0660
     37 H          -8.7289    5.2507   -2.3786 H       1  LIG1        0.0660
     38 N         -11.6224    4.3420   -0.1653 N.pl3   1  LIG1       -0.3521
     39 H         -11.4335    5.2417   -0.5851 H       1  LIG1        0.1425
     40 H         -12.4594    3.8801   -0.4990 H       1  LIG1        0.1425
     41 C         -11.3781    1.0889    0.1814 C.ar    1  LIG1        0.1276
     42 C         -12.7635    1.0416    0.0787 C.ar    1  LIG1        0.1656
     43 C         -13.1686   -0.3279    0.2325 C.ar    1  LIG1        0.1113
     44 C         -12.0126   -1.0735    0.4234 C.ar    1  LIG1        0.0234
     45 N         -10.9570   -0.2164    0.3840 N.ar    1  LIG1       -0.3541
     46 H          -9.9877   -0.4684    0.4978 H       1  LIG1        0.1656
     47 H         -11.8886   -2.1339    0.5754 H       1  LIG1        0.0821
     48 O         -13.5740    2.1115   -0.1922 O.3     1  LIG1       -0.4916
     49 C         -14.5122    2.4413    0.8490 C.3     1  LIG1        0.0789
     50 H         -15.0806    3.2983    0.4840 H       1  LIG1        0.0660
     51 H         -15.1958    1.6093    1.0396 H       1  LIG1        0.0660
     52 H         -13.9847    2.7119    1.7701 H       1  LIG1        0.0660
     53 N         -15.5832   -1.2388    0.1380 N.1     1  LIG1       -0.1907
     54 C         -14.4899   -0.8381    0.1781 C.1     1  LIG1        0.1044
@<TRIPOS>BOND
     1    37    34    1
     2    35    34    1
     3    36    34    1
     4    34    33    1
     5    10     9    1
     6     9     1    1
     7     8     2    1
     8     1     2   ar
     9     1     6   ar
    10     2     3   ar
    11    15    12    1
    12     6     5   ar
    13     3     7    1
    14     3     4   ar
    15    39    38    1
    16    40    38    1
    17    21    20    1
    18     5     4   ar
    19     5    16    1
    20    33    29    1
    21     4    11    1
    22    48    42    1
    23    48    49    1
    24    38    30    1
    25    20    16   ar
    26    20    19   ar
    27    29    30   ar
    28    29    28   ar
    29    30    31   ar
    30    16    17   ar
    31    11    12    1
    32    42    41   ar
    33    42    43   ar
    34    31    41    1
    35    31    32   ar
    36    28    19    1
    37    28    32   ar
    38    53    54    3
    39    54    43    1
    40    41    45   ar
    41    19    18   ar
    42    12    13    1
    43    12    14    1
    44    43    44   ar
    45    45    44   ar
    46    45    46    1
    47    44    47    1
    48    50    49    1
    49    17    18   ar
    50    17    23    1
    51    26    24    1
    52    18    24    1
    53    49    51    1
    54    49    52    1
    55    23    22    3
    56    25    24    1
    57    24    27    1
