@<TRIPOS>MOLECULE
mol_data/opt/b3lyp/geoms/mol2/6fl12ii4el-12il.out
 59 62 0 0 0
SMALL
GASTEIGER

@<TRIPOS>ATOM
      1 C          -4.3381   -2.1747   -0.0708 C.ar    1  LIG1        0.2131
      2 C          -3.0385   -2.1626   -0.5921 C.ar    1  LIG1        0.0033
      3 C          -2.4626   -0.9299   -0.8860 C.ar    1  LIG1       -0.0127
      4 C          -3.1832    0.2424   -0.6468 C.ar    1  LIG1        0.1492
      5 C          -4.4759    0.1263   -0.0812 C.ar    1  LIG1        0.1514
      6 N          -5.0250   -1.0711    0.1805 N.ar    1  LIG1       -0.2062
      7 H          -1.4674   -0.8946   -1.3127 H       1  LIG1        0.0656
      8 H          -2.4906   -3.0833   -0.7728 H       1  LIG1        0.0672
      9 O          -4.9941   -3.3318    0.2314 O.3     1  LIG1       -0.4924
     10 H          -4.4261   -4.0806    0.0089 H       1  LIG1        0.2937
     11 O          -2.7380    1.4980   -0.9527 O.3     1  LIG1       -0.4929
     12 C          -1.4779    1.6235   -1.5909 C.3     1  LIG1        0.0789
     13 H          -1.3394    2.6896   -1.7752 H       1  LIG1        0.0660
     14 H          -0.6602    1.2598   -0.9546 H       1  LIG1        0.0660
     15 H          -1.4537    1.0861   -2.5479 H       1  LIG1        0.0660
     16 C          -5.3100    1.2956    0.2153 C.ar    1  LIG1        0.1606
     17 C          -5.0866    2.5270    0.7866 C.ar    1  LIG1        0.0005
     18 C          -6.3640    3.1837    0.8440 C.ar    1  LIG1       -0.0011
     19 C          -7.2730    2.3074    0.2935 C.ar    1  LIG1        0.1402
     20 O          -6.6392    1.1505   -0.0690 O.2     1  LIG1       -0.4526
     21 C          -3.8050    3.0762    1.3355 C.3     1  LIG1       -0.0358
     22 H          -3.9856    3.6094    2.2751 H       1  LIG1        0.0279
     23 H          -3.3378    3.7847    0.6419 H       1  LIG1        0.0279
     24 H          -3.0799    2.2845    1.5306 H       1  LIG1        0.0279
     25 C          -6.6294    4.5107    1.4862 C.3     1  LIG1       -0.0358
     26 H          -7.6902    4.6441    1.7056 H       1  LIG1        0.0279
     27 H          -6.3261    5.3456    0.8445 H       1  LIG1        0.0279
     28 H          -6.0753    4.5999    2.4275 H       1  LIG1        0.0279
     29 C          -9.4608    3.4167   -0.3623 C.ar    1  LIG1        0.0362
     30 C         -10.8585    3.3165   -0.4669 C.ar    1  LIG1       -0.0314
     31 C          -8.7243    2.3020    0.1162 C.ar    1  LIG1        0.0364
     32 C         -11.5670    2.1568   -0.1300 C.ar    1  LIG1        0.0604
     33 H         -11.3981    4.1617   -0.8778 H       1  LIG1        0.0638
     34 C          -9.4296    1.1279    0.4246 C.ar    1  LIG1       -0.0074
     35 C         -10.8130    1.0429    0.3182 C.ar    1  LIG1        0.1315
     36 H          -8.8902    0.2547    0.7738 H       1  LIG1        0.0662
     37 C          -8.8381    4.6082   -0.8479 C.1     1  LIG1       -0.0689
     38 C          -8.3715    5.6304   -1.2990 C.1     1  LIG1       -0.1139
     39 H          -7.9436    6.5189   -1.7015 H       1  LIG1        0.1232
     40 O         -11.3964   -0.1579    0.6385 O.3     1  LIG1       -0.4944
     41 C         -12.1381   -0.1810    1.8588 C.3     1  LIG1        0.0788
     42 H         -12.5287   -1.1952    1.9582 H       1  LIG1        0.0660
     43 H         -11.4884    0.0438    2.7144 H       1  LIG1        0.0660
     44 H         -12.9748    0.5258    1.8453 H       1  LIG1        0.0660
     45 C         -13.0224    2.1406   -0.2760 C.ar    1  LIG1        0.1449
     46 C         -13.9845    3.1018   -0.0625 C.ar    1  LIG1        0.0371
     47 C         -15.2323    2.4680   -0.3969 C.ar    1  LIG1        0.1611
     48 C         -14.9508    1.1910   -0.7834 C.ar    1  LIG1        0.1343
     49 O         -13.6098    0.9762   -0.7103 O.2     1  LIG1       -0.4588
     50 H         -15.5625    0.3612   -1.0987 H       1  LIG1        0.1068
     51 C         -13.8373    4.4910    0.4800 C.3     1  LIG1       -0.0326
     52 H         -14.7170    4.7531    1.0760 H       1  LIG1        0.0280
     53 H         -13.7485    5.2428   -0.3146 H       1  LIG1        0.0280
     54 H         -12.9509    4.5814    1.1136 H       1  LIG1        0.0280
     55 O         -16.4797    3.0181   -0.2714 O.3     1  LIG1       -0.4917
     56 C         -16.8398    3.9105   -1.3271 C.3     1  LIG1        0.0789
     57 H         -17.8476    4.2659   -1.1028 H       1  LIG1        0.0660
     58 H         -16.1597    4.7697   -1.3834 H       1  LIG1        0.0660
     59 H         -16.8404    3.3960   -2.2962 H       1  LIG1        0.0660
@<TRIPOS>BOND
     1    15    12    1
     2    59    56    1
     3    13    12    1
     4    39    38    1
     5    12    14    1
     6    12    11    1
     7    58    56    1
     8    56    57    1
     9    56    55    1
    10     7     3    1
    11    38    37    3
    12    50    48    1
    13    11     4    1
    14     3     4   ar
    15     3     2   ar
    16    33    30    1
    17    37    29    1
    18    48    49   ar
    19    48    47   ar
    20     8     2    1
    21    49    45   ar
    22     4     5   ar
    23     2     1   ar
    24    30    29   ar
    25    30    32   ar
    26    47    55    1
    27    47    46   ar
    28    29    31   ar
    29    53    51    1
    30    45    32    1
    31    45    46   ar
    32    32    35   ar
    33     5     6   ar
    34     5    16    1
    35     1     6   ar
    36     1     9    1
    37    20    16   ar
    38    20    19   ar
    39    46    51    1
    40    10     9    1
    41    31    19    1
    42    31    34   ar
    43    16    17   ar
    44    19    18   ar
    45    35    34   ar
    46    35    40    1
    47    34    36    1
    48    51    52    1
    49    51    54    1
    50    40    41    1
    51    23    21    1
    52    17    18   ar
    53    17    21    1
    54    18    25    1
    55    27    25    1
    56    21    24    1
    57    21    22    1
    58    25    26    1
    59    25    28    1
    60    44    41    1
    61    41    42    1
    62    41    43    1
