@<TRIPOS>MOLECULE
mol_data/opt/b3lyp/geoms/mol2/6fl4hl12ha12dh.out
 51 54 0 0 0
SMALL
GASTEIGER

@<TRIPOS>ATOM
      1 C          -4.3189   -2.0023    0.9995 C.ar    1  LIG1        0.2130
      2 C          -2.9799   -2.1479    0.6197 C.ar    1  LIG1        0.0033
      3 C          -2.3419   -1.0416    0.0688 C.ar    1  LIG1       -0.0128
      4 C          -3.0397    0.1588   -0.0710 C.ar    1  LIG1        0.1462
      5 C          -4.3786    0.2293    0.3817 C.ar    1  LIG1        0.1181
      6 N          -4.9809   -0.8611    0.8851 N.ar    1  LIG1       -0.2093
      7 H          -1.3124   -1.1289   -0.2576 H       1  LIG1        0.0656
      8 H          -2.4519   -3.0901    0.7368 H       1  LIG1        0.0672
      9 O          -5.0487   -3.0294    1.5193 O.3     1  LIG1       -0.4924
     10 H          -4.4907   -3.8162    1.5706 H       1  LIG1        0.2937
     11 O          -2.5011    1.2857   -0.6514 O.3     1  LIG1       -0.4930
     12 C          -1.2402    1.1740   -1.2978 C.3     1  LIG1        0.0789
     13 H          -1.0522    2.1448   -1.7586 H       1  LIG1        0.0660
     14 H          -0.4336    0.9513   -0.5876 H       1  LIG1        0.0660
     15 H          -1.2597    0.4009   -2.0754 H       1  LIG1        0.0660
     16 C          -4.8723    2.7447    0.6807 C.ar    1  LIG1        0.0349
     17 C          -5.8290    3.7688    0.5983 C.ar    1  LIG1       -0.0262
     18 C          -5.2440    1.4370    0.2754 C.ar    1  LIG1        0.0282
     19 C          -7.1406    3.5627    0.1383 C.ar    1  LIG1        0.0625
     20 H          -5.5569    4.7521    0.9724 H       1  LIG1        0.0644
     21 C          -6.5608    1.2318   -0.1658 C.ar    1  LIG1       -0.0082
     22 C          -7.4983    2.2505   -0.2512 C.ar    1  LIG1        0.1315
     23 H          -6.8692    0.2298   -0.4413 H       1  LIG1        0.0661
     24 N          -3.6355    3.0170    1.2700 N.pl3   1  LIG1       -0.3574
     25 H          -2.8564    2.5662    0.8056 H       1  LIG1        0.1423
     26 H          -3.4670    4.0055    1.4033 H       1  LIG1        0.1423
     27 O          -8.7704    1.9367   -0.6864 O.3     1  LIG1       -0.4944
     28 C          -9.0314    2.2559   -2.0489 C.3     1  LIG1        0.0788
     29 H         -10.0579    1.9426   -2.2508 H       1  LIG1        0.0660
     30 H          -8.9442    3.3329   -2.2406 H       1  LIG1        0.0660
     31 H          -8.3486    1.7185   -2.7212 H       1  LIG1        0.0660
     32 C          -8.0483    4.6979    0.0703 C.ar    1  LIG1        0.1599
     33 C          -7.8197    6.0496   -0.1533 C.ar    1  LIG1        0.0718
     34 C          -9.0854    6.6945   -0.0954 C.ar    1  LIG1        0.0087
     35 C         -10.0104    5.7062    0.1541 C.ar    1  LIG1        0.1737
     36 O          -9.3978    4.4979    0.2523 O.2     1  LIG1       -0.4497
     37 N          -6.5912    6.6834   -0.3622 N.pl3   1  LIG1       -0.3550
     38 H          -5.8976    6.0754   -0.7823 H       1  LIG1        0.1424
     39 H          -6.6777    7.5423   -0.8915 H       1  LIG1        0.1424
     40 H          -9.2891    7.7481   -0.2214 H       1  LIG1        0.0675
     41 C         -11.4329    5.7484    0.3162 C.ar    1  LIG1        0.1889
     42 C         -12.3423    6.7981    0.2493 C.ar    1  LIG1        0.1210
     43 C         -13.6478    6.2289    0.4947 C.ar    1  LIG1        0.0812
     44 C         -13.4341    4.8935    0.6853 C.ar    1  LIG1        0.1146
     45 O         -12.0905    4.6024    0.5796 O.2     1  LIG1       -0.4566
     46 H         -14.0807    4.0613    0.9076 H       1  LIG1        0.1049
     47 N         -11.8679    9.2790   -0.2695 N.1     1  LIG1       -0.1907
     48 C         -12.0695    8.1553   -0.0291 C.1     1  LIG1        0.1049
     49 N         -14.8270    6.9584    0.5827 N.pl3   1  LIG1       -0.3545
     50 H         -14.8168    7.8215    0.0543 H       1  LIG1        0.1424
     51 H         -15.6673    6.4258    0.4029 H       1  LIG1        0.1424
@<TRIPOS>BOND
     1    31    28    1
     2    29    28    1
     3    30    28    1
     4    15    12    1
     5    28    27    1
     6    13    12    1
     7    12    11    1
     8    12    14    1
     9    39    37    1
    10    38    37    1
    11    27    22    1
    12    11     4    1
    13    23    21    1
    14    37    33    1
    15    47    48    3
    16     7     3    1
    17    22    21   ar
    18    22    19   ar
    19    40    34    1
    20    21    18   ar
    21    33    34   ar
    22    33    32   ar
    23    34    35   ar
    24     4     3   ar
    25     4     5   ar
    26    48    42    1
    27    50    49    1
    28     3     2   ar
    29    32    19    1
    30    32    36   ar
    31    19    17   ar
    32    35    36   ar
    33    35    41    1
    34    42    41   ar
    35    42    43   ar
    36    18     5    1
    37    18    16   ar
    38    41    45   ar
    39     5     6   ar
    40    51    49    1
    41    43    49    1
    42    43    44   ar
    43    45    44   ar
    44    17    16   ar
    45    17    20    1
    46     2     8    1
    47     2     1   ar
    48    16    24    1
    49    44    46    1
    50    25    24    1
    51     6     1   ar
    52     1     9    1
    53    24    26    1
    54     9    10    1
