@<TRIPOS>MOLECULE
mol_data/opt/b3lyp/geoms/mol2/6fl6fl.out
 30 31 0 0 0
SMALL
GASTEIGER

@<TRIPOS>ATOM
      1 C          -4.5736   -2.2022   -0.0001 C.ar    1  LIG1        0.2130
      2 C          -3.1843   -2.2987   -0.0001 C.ar    1  LIG1        0.0033
      3 C          -2.4654   -1.1064   -0.0002 C.ar    1  LIG1       -0.0128
      4 C          -3.1168    0.1275   -0.0002 C.ar    1  LIG1        0.1464
      5 C          -4.5446    0.1521   -0.0002 C.ar    1  LIG1        0.1215
      6 N          -5.1965   -1.0329   -0.0002 N.ar    1  LIG1       -0.2092
      7 H          -1.3835   -1.1504   -0.0001 H       1  LIG1        0.0656
      8 H          -2.6753   -3.2573   -0.0001 H       1  LIG1        0.0672
      9 O          -5.4058   -3.2772   -0.0001 O.3     1  LIG1       -0.4924
     10 H          -4.8797   -4.0873   -0.0001 H       1  LIG1        0.2937
     11 O          -2.4337    1.3127   -0.0002 O.3     1  LIG1       -0.4930
     12 C          -1.0141    1.2870   -0.0002 C.3     1  LIG1        0.0789
     13 H          -0.6976    2.3306   -0.0003 H       1  LIG1        0.0660
     14 H          -0.6185    0.7910    0.8949 H       1  LIG1        0.0660
     15 H          -0.6186    0.7910   -0.8954 H       1  LIG1        0.0660
     16 C          -6.8402    1.2443   -0.0001 C.ar    1  LIG1        0.2220
     17 C          -5.4078    1.3559   -0.0002 C.ar    1  LIG1        0.0688
     18 C          -4.8869    2.6693   -0.0004 C.ar    1  LIG1       -0.0040
     19 C          -5.7376    3.7659   -0.0004 C.ar    1  LIG1        0.1390
     20 C          -7.1178    3.5289   -0.0003 C.ar    1  LIG1        0.0730
     21 N          -7.6457    2.3141   -0.0001 N.ar    1  LIG1       -0.2172
     22 H          -3.8194    2.8077   -0.0005 H       1  LIG1        0.0663
     23 H          -7.8028    4.3753   -0.0003 H       1  LIG1        0.0868
     24 O          -7.4887    0.0786    0.0001 O.3     1  LIG1       -0.4919
     25 H          -6.7919   -0.6347    0.0001 H       1  LIG1        0.2937
     26 O          -5.3459    5.0797   -0.0006 O.3     1  LIG1       -0.4936
     27 C          -3.9570    5.3521   -0.0009 C.3     1  LIG1        0.0789
     28 H          -3.8601    6.4390   -0.0010 H       1  LIG1        0.0660
     29 H          -3.4621    4.9471    0.8925 H       1  LIG1        0.0660
     30 H          -3.4624    4.9468   -0.8942 H       1  LIG1        0.0660
@<TRIPOS>BOND
     1    15    12    1
     2    30    27    1
     3    28    27    1
     4    27    26    1
     5    27    29    1
     6    26    19    1
     7    22    18    1
     8    19    18   ar
     9    19    20   ar
    10    18    17   ar
    11    23    20    1
    12    13    12    1
    13    20    21   ar
    14    12    11    1
    15    12    14    1
    16    17     5    1
    17    17    16   ar
    18    11     4    1
    19     5     4   ar
    20     5     6   ar
    21     4     3   ar
    22     3     7    1
    23     3     2   ar
    24     6     1   ar
    25     2     1   ar
    26     2     8    1
    27     1     9    1
    28     9    10    1
    29    21    16   ar
    30    16    24    1
    31    24    25    1
