@<TRIPOS>MOLECULE
mol_data/opt/b3lyp/geoms/mol2/6fl6fl-.out
 30 31 0 0 0
SMALL
GASTEIGER

@<TRIPOS>ATOM
      1 C          -4.4897   -2.0726    0.6182 C.ar    1  LIG1        0.2130
      2 C          -3.1498   -2.1760    0.2304 C.ar    1  LIG1        0.0033
      3 C          -2.4990   -1.0223   -0.1990 C.ar    1  LIG1       -0.0128
      4 C          -3.1906    0.1914   -0.2132 C.ar    1  LIG1        0.1464
      5 C          -4.5228    0.2021    0.2565 C.ar    1  LIG1        0.1215
      6 N          -5.1483   -0.9207    0.6334 N.ar    1  LIG1       -0.2092
      7 H          -1.4692   -1.0813   -0.5309 H       1  LIG1        0.0656
      8 H          -2.6263   -3.1281    0.2502 H       1  LIG1        0.0672
      9 O          -5.2248   -3.1494    1.0212 O.3     1  LIG1       -0.4924
     10 H          -4.6714   -3.9397    0.9757 H       1  LIG1        0.2937
     11 O          -2.6898    1.3648   -0.6906 O.3     1  LIG1       -0.4930
     12 C          -1.3091    1.4264   -1.0026 C.3     1  LIG1        0.0789
     13 H          -1.1117    2.4595   -1.2913 H       1  LIG1        0.0660
     14 H          -0.6873    1.1679   -0.1359 H       1  LIG1        0.0660
     15 H          -1.0503    0.7657   -1.8411 H       1  LIG1        0.0660
     16 C          -4.9051    2.6313    0.9573 C.ar    1  LIG1        0.2220
     17 C          -5.3301    1.4498    0.3045 C.ar    1  LIG1        0.0688
     18 C          -6.6036    1.4728   -0.2499 C.ar    1  LIG1       -0.0040
     19 C          -7.3827    2.6368   -0.1983 C.ar    1  LIG1        0.1390
     20 C          -6.8442    3.7550    0.4359 C.ar    1  LIG1        0.0730
     21 N          -5.6291    3.7380    1.0111 N.ar    1  LIG1       -0.2172
     22 H          -7.0019    0.5852   -0.7289 H       1  LIG1        0.0663
     23 H          -7.3867    4.6925    0.5038 H       1  LIG1        0.0868
     24 O          -3.7156    2.6440    1.6102 O.3     1  LIG1       -0.4919
     25 H          -3.6518    3.5302    2.0000 H       1  LIG1        0.2937
     26 O          -8.6151    2.5734   -0.7875 O.3     1  LIG1       -0.4936
     27 C          -9.4269    3.7354   -0.7388 C.3     1  LIG1        0.0789
     28 H         -10.3561    3.4770   -1.2485 H       1  LIG1        0.0660
     29 H          -9.6519    4.0297    0.2948 H       1  LIG1        0.0660
     30 H          -8.9556    4.5820   -1.2556 H       1  LIG1        0.0660
@<TRIPOS>BOND
     1    15    12    1
     2    13    12    1
     3    30    27    1
     4    28    27    1
     5    12    11    1
     6    12    14    1
     7    26    27    1
     8    26    19    1
     9    27    29    1
    10    22    18    1
    11    11     4    1
    12     7     3    1
    13    18    19   ar
    14    18    17   ar
    15     4     3   ar
    16     4     5   ar
    17     3     2   ar
    18    19    20   ar
    19     2     8    1
    20     2     1   ar
    21     5    17    1
    22     5     6   ar
    23    17    16   ar
    24    20    23    1
    25    20    21   ar
    26     1     6   ar
    27     1     9    1
    28    16    21   ar
    29    16    24    1
    30    10     9    1
    31    24    25    1
