@<TRIPOS>MOLECULE
mol_data/opt/b3lyp/geoms/mol2/6fl6fl6fl6fl-.out
 58 61 0 0 0
SMALL
GASTEIGER

@<TRIPOS>ATOM
      1 C          -4.6205   -2.3566    0.2897 C.ar    1  LIG1        0.2130
      2 C          -3.2442   -2.5387    0.1676 C.ar    1  LIG1        0.0033
      3 C          -2.4612   -1.3980    0.0106 C.ar    1  LIG1       -0.0128
      4 C          -3.0394   -0.1286   -0.0184 C.ar    1  LIG1        0.1464
      5 C          -4.4541   -0.0163    0.1229 C.ar    1  LIG1        0.1215
      6 N          -5.1743   -1.1529    0.2680 N.ar    1  LIG1       -0.2092
      7 H          -1.3892   -1.5105   -0.0913 H       1  LIG1        0.0656
      8 H          -2.7932   -3.5257    0.1899 H       1  LIG1        0.0672
      9 O          -5.5070   -3.3745    0.4397 O.3     1  LIG1       -0.4924
     10 H          -5.0325   -4.2159    0.4416 H       1  LIG1        0.2937
     11 O          -2.3027    1.0124   -0.1837 O.3     1  LIG1       -0.4930
     12 C          -0.8989    0.8986   -0.3725 C.3     1  LIG1        0.0789
     13 H          -0.5334    1.9170   -0.5084 H       1  LIG1        0.0660
     14 H          -0.4079    0.4538    0.5018 H       1  LIG1        0.0660
     15 H          -0.6594    0.3076   -1.2649 H       1  LIG1        0.0660
     16 C          -6.6665    1.2134    0.1796 C.ar    1  LIG1        0.2226
     17 C          -5.2386    1.2335    0.1189 C.ar    1  LIG1        0.0689
     18 C          -4.6656    2.5199    0.0690 C.ar    1  LIG1       -0.0034
     19 C          -5.4297    3.6777    0.0527 C.ar    1  LIG1        0.1470
     20 C          -6.8489    3.5702    0.0707 C.ar    1  LIG1        0.1215
     21 N          -7.3824    2.3341    0.1444 N.ar    1  LIG1       -0.2086
     22 H          -3.5925    2.5967    0.0483 H       1  LIG1        0.0663
     23 O          -7.3933    0.1019    0.2714 O.3     1  LIG1       -0.4919
     24 H          -6.7422   -0.6569    0.3083 H       1  LIG1        0.2937
     25 O          -4.8675    4.9298    0.0329 O.3     1  LIG1       -0.4929
     26 C          -3.4570    5.0434    0.1168 C.3     1  LIG1        0.0789
     27 H          -3.2441    6.1133    0.1334 H       1  LIG1        0.0660
     28 H          -3.0683    4.5834    1.0342 H       1  LIG1        0.0660
     29 H          -2.9590    4.5911   -0.7508 H       1  LIG1        0.0660
     30 C          -9.2097    4.4670    0.2900 C.ar    1  LIG1        0.2226
     31 C          -7.8133    4.6843    0.0371 C.ar    1  LIG1        0.0689
     32 C          -7.4436    6.0102   -0.2673 C.ar    1  LIG1       -0.0034
     33 C          -8.3800    7.0343   -0.2598 C.ar    1  LIG1        0.1470
     34 C          -9.7038    6.7278    0.1225 C.ar    1  LIG1        0.1215
     35 N         -10.0874    5.4703    0.3496 N.ar    1  LIG1       -0.2086
     36 H          -6.4180    6.2166   -0.5251 H       1  LIG1        0.0663
     37 O          -9.7346    3.2599    0.4988 O.3     1  LIG1       -0.4919
     38 H          -8.9879    2.6028    0.3849 H       1  LIG1        0.2937
     39 O          -8.1231    8.3223   -0.6394 O.3     1  LIG1       -0.4929
     40 C          -6.7737    8.7068   -0.8191 C.3     1  LIG1        0.0789
     41 H          -6.7892    9.7785   -1.0241 H       1  LIG1        0.0660
     42 H          -6.1759    8.5183    0.0823 H       1  LIG1        0.0660
     43 H          -6.3092    8.1881   -1.6693 H       1  LIG1        0.0660
     44 C         -10.6193    8.9644    0.9677 C.ar    1  LIG1        0.2220
     45 C         -10.7624    7.7648    0.2293 C.ar    1  LIG1        0.0688
     46 C         -12.0035    7.5438   -0.3559 C.ar    1  LIG1       -0.0040
     47 C         -13.0203    8.5024   -0.2553 C.ar    1  LIG1        0.1390
     48 C         -12.7512    9.6676    0.4603 C.ar    1  LIG1        0.0730
     49 N         -11.5710    9.8792    1.0689 N.ar    1  LIG1       -0.2172
     50 H         -12.1873    6.6214   -0.8953 H       1  LIG1        0.0663
     51 H         -13.4880   10.4570    0.5695 H       1  LIG1        0.0868
     52 O          -9.4762    9.1940    1.6621 O.3     1  LIG1       -0.4919
     53 H          -9.6218   10.0432    2.1084 H       1  LIG1        0.2937
     54 O         -14.2014    8.2093   -0.8808 O.3     1  LIG1       -0.4936
     55 C         -15.2513    9.1558   -0.7762 C.3     1  LIG1        0.0789
     56 H         -16.0962    8.7329   -1.3217 H       1  LIG1        0.0660
     57 H         -15.5440    9.3234    0.2689 H       1  LIG1        0.0660
     58 H         -14.9772   10.1190   -1.2273 H       1  LIG1        0.0660
@<TRIPOS>BOND
     1    43    40    1
     2    56    55    1
     3    15    12    1
     4    58    55    1
     5    41    40    1
     6    50    46    1
     7    54    55    1
     8    54    47    1
     9    40    39    1
    10    40    42    1
    11    55    57    1
    12    29    26    1
    13    39    33    1
    14    36    32    1
    15    13    12    1
    16    12    11    1
    17    12    14    1
    18    46    47   ar
    19    46    45   ar
    20    32    33   ar
    21    32    31   ar
    22    33    34   ar
    23    47    48   ar
    24    11     4    1
    25     7     3    1
    26     4     3   ar
    27     4     5   ar
    28     3     2   ar
    29    25    19    1
    30    25    26    1
    31    31    20    1
    32    31    30   ar
    33    22    18    1
    34    19    18   ar
    35    19    20   ar
    36    18    17   ar
    37    20    21   ar
    38    26    27    1
    39    26    28    1
    40    17     5    1
    41    17    16   ar
    42    34    45    1
    43    34    35   ar
    44     5     6   ar
    45    21    16   ar
    46     2     8    1
    47     2     1   ar
    48    16    23    1
    49    45    44   ar
    50     6     1   ar
    51    23    24    1
    52     1     9    1
    53    30    35   ar
    54    30    37    1
    55    38    37    1
    56     9    10    1
    57    48    51    1
    58    48    49   ar
    59    44    49   ar
    60    44    52    1
    61    52    53    1
