@<TRIPOS>MOLECULE
mol_data/opt/b3lyp/geoms/mol2/6fl6fl6fl6fl.out
 58 61 0 0 0
SMALL
GASTEIGER

@<TRIPOS>ATOM
      1 C          -4.6230   -2.4230   -0.0003 C.ar    1  LIG1        0.2130
      2 C          -3.2423   -2.6152   -0.0005 C.ar    1  LIG1        0.0033
      3 C          -2.4395   -1.4780   -0.0005 C.ar    1  LIG1       -0.0128
      4 C          -3.0028   -0.2010   -0.0005 C.ar    1  LIG1        0.1464
      5 C          -4.4231   -0.0790   -0.0003 C.ar    1  LIG1        0.1215
      6 N          -5.1624   -1.2126   -0.0003 N.ar    1  LIG1       -0.2092
      7 H          -1.3635   -1.5983   -0.0006 H       1  LIG1        0.0656
      8 H          -2.8031   -3.6076   -0.0005 H       1  LIG1        0.0672
      9 O          -5.5272   -3.4352   -0.0003 O.3     1  LIG1       -0.4924
     10 H          -5.0628   -4.2823   -0.0003 H       1  LIG1        0.2937
     11 O          -2.2450    0.9376   -0.0005 O.3     1  LIG1       -0.4930
     12 C          -0.8286    0.8171   -0.0007 C.3     1  LIG1        0.0789
     13 H          -0.4435    1.8373   -0.0007 H       1  LIG1        0.0660
     14 H          -0.4681    0.2961    0.8946 H       1  LIG1        0.0660
     15 H          -0.4683    0.2961   -0.8961 H       1  LIG1        0.0660
     16 C          -6.6268    1.1671   -0.0000 C.ar    1  LIG1        0.2226
     17 C          -5.1967    1.1781   -0.0002 C.ar    1  LIG1        0.0689
     18 C          -4.6144    2.4606   -0.0003 C.ar    1  LIG1       -0.0034
     19 C          -5.3690    3.6256   -0.0001 C.ar    1  LIG1        0.1470
     20 C          -6.7880    3.5303    0.0001 C.ar    1  LIG1        0.1215
     21 N          -7.3318    2.2949    0.0001 N.ar    1  LIG1       -0.2086
     22 H          -3.5406    2.5301   -0.0004 H       1  LIG1        0.0663
     23 O          -7.3646    0.0609    0.0000 O.3     1  LIG1       -0.4919
     24 H          -6.7202   -0.7063   -0.0001 H       1  LIG1        0.2937
     25 O          -4.7940    4.8726   -0.0002 O.3     1  LIG1       -0.4929
     26 C          -3.3788    4.9691   -0.0004 C.3     1  LIG1        0.0789
     27 H          -3.1518    6.0362   -0.0005 H       1  LIG1        0.0660
     28 H          -2.9413    4.5075    0.8939 H       1  LIG1        0.0660
     29 H          -2.9416    4.5075   -0.8949 H       1  LIG1        0.0660
     30 C          -9.1594    4.4020    0.0004 C.ar    1  LIG1        0.2226
     31 C          -7.7497    4.6441    0.0002 C.ar    1  LIG1        0.0689
     32 C          -7.3815    6.0036    0.0002 C.ar    1  LIG1       -0.0034
     33 C          -8.3134    7.0312    0.0004 C.ar    1  LIG1        0.1470
     34 C          -9.7020    6.7098    0.0005 C.ar    1  LIG1        0.1215
     35 N         -10.0366    5.4030    0.0006 N.ar    1  LIG1       -0.2086
     36 H          -6.3319    6.2421    0.0000 H       1  LIG1        0.0663
     37 O          -9.7036    3.1910    0.0005 O.3     1  LIG1       -0.4919
     38 H          -8.9344    2.5398    0.0003 H       1  LIG1        0.2937
     39 O          -7.9404    8.3534    0.0003 O.3     1  LIG1       -0.4929
     40 C          -6.5595    8.6724    0.0002 C.3     1  LIG1        0.0789
     41 H          -6.5052    9.7622    0.0002 H       1  LIG1        0.0660
     42 H          -6.0530    8.2865    0.8941 H       1  LIG1        0.0660
     43 H          -6.0533    8.2866   -0.8940 H       1  LIG1        0.0660
     44 C         -12.1936    7.1885    0.0009 C.ar    1  LIG1        0.2220
     45 C         -10.8340    7.6582    0.0007 C.ar    1  LIG1        0.0688
     46 C         -10.6580    9.0601    0.0007 C.ar    1  LIG1       -0.0040
     47 C         -11.7563    9.9072    0.0009 C.ar    1  LIG1        0.1390
     48 C         -13.0336    9.3314    0.0011 C.ar    1  LIG1        0.0730
     49 N         -13.2428    8.0235    0.0011 N.ar    1  LIG1       -0.2172
     50 H          -9.6575    9.4581    0.0006 H       1  LIG1        0.0663
     51 H         -13.9082    9.9804    0.0012 H       1  LIG1        0.0868
     52 O         -12.5217    5.8995    0.0010 O.3     1  LIG1       -0.4919
     53 H         -11.6576    5.3876    0.0008 H       1  LIG1        0.2937
     54 O         -11.7073   11.2786    0.0009 O.3     1  LIG1       -0.4936
     55 C         -10.4302   11.8877    0.0007 C.3     1  LIG1        0.0789
     56 H         -10.6063   12.9649    0.0008 H       1  LIG1        0.0660
     57 H          -9.8494   11.6182    0.8936 H       1  LIG1        0.0660
     58 H          -9.8497   11.6182   -0.8924 H       1  LIG1        0.0660
@<TRIPOS>BOND
     1    15    12    1
     2    29    26    1
     3    43    40    1
     4    58    55    1
     5    13    12    1
     6    12    11    1
     7    12    14    1
     8     7     3    1
     9     8     2    1
    10     3     2   ar
    11     3     4   ar
    12    11     4    1
    13    27    26    1
    14     2     1   ar
    15     4     5   ar
    16    26    25    1
    17    26    28    1
    18    22    18    1
    19    10     9    1
    20     1     9    1
    21     1     6   ar
    22     5     6   ar
    23     5    17    1
    24    18    17   ar
    25    18    19   ar
    26    25    19    1
    27    17    16   ar
    28    19    20   ar
    29    24    23    1
    30    16    23    1
    31    16    21   ar
    32    36    32    1
    33    20    21   ar
    34    20    31    1
    35    40    41    1
    36    40    39    1
    37    40    42    1
    38    32    31   ar
    39    32    33   ar
    40    31    30   ar
    41    39    33    1
    42    38    37    1
    43    33    34   ar
    44    30    37    1
    45    30    35   ar
    46    34    35   ar
    47    34    45    1
    48    50    46    1
    49    46    45   ar
    50    46    47   ar
    51    55    56    1
    52    55    54    1
    53    55    57    1
    54    45    44   ar
    55    53    52    1
    56    47    54    1
    57    47    48   ar
    58    44    52    1
    59    44    49   ar
    60    48    49   ar
    61    48    51    1
