@<TRIPOS>MOLECULE
mol_data/opt/b3lyp/geoms/mol2/6fl6fl6fl.out
 44 46 0 0 0
SMALL
GASTEIGER

@<TRIPOS>ATOM
      1 C          -4.5737   -2.3095   -0.0002 C.ar    1  LIG1        0.2130
      2 C          -3.1871   -2.4496   -0.0002 C.ar    1  LIG1        0.0033
      3 C          -2.4283   -1.2822   -0.0003 C.ar    1  LIG1       -0.0128
      4 C          -3.0396   -0.0280   -0.0003 C.ar    1  LIG1        0.1464
      5 C          -4.4640    0.0406   -0.0002 C.ar    1  LIG1        0.1215
      6 N          -5.1592   -1.1208   -0.0002 N.ar    1  LIG1       -0.2092
      7 H          -1.3485   -1.3616   -0.0003 H       1  LIG1        0.0656
      8 H          -2.7101   -3.4245   -0.0002 H       1  LIG1        0.0672
      9 O          -5.4393   -3.3561   -0.0001 O.3     1  LIG1       -0.4924
     10 H          -4.9418   -4.1841   -0.0001 H       1  LIG1        0.2937
     11 O          -2.3252    1.1387   -0.0003 O.3     1  LIG1       -0.4930
     12 C          -0.9058    1.0716   -0.0005 C.3     1  LIG1        0.0789
     13 H          -0.5589    2.1054   -0.0005 H       1  LIG1        0.0660
     14 H          -0.5256    0.5643    0.8947 H       1  LIG1        0.0660
     15 H          -0.5258    0.5643   -0.8958 H       1  LIG1        0.0660
     16 C          -6.7113    1.2058   -0.0001 C.ar    1  LIG1        0.2226
     17 C          -5.2838    1.2673   -0.0002 C.ar    1  LIG1        0.0689
     18 C          -4.7501    2.5711   -0.0002 C.ar    1  LIG1       -0.0034
     19 C          -5.5460    3.7077   -0.0002 C.ar    1  LIG1        0.1470
     20 C          -6.9635    3.5627   -0.0001 C.ar    1  LIG1        0.1215
     21 N          -7.4565    2.3073   -0.0000 N.ar    1  LIG1       -0.2086
     22 H          -3.6796    2.6800   -0.0003 H       1  LIG1        0.0663
     23 O          -7.4097    0.0728   -0.0000 O.3     1  LIG1       -0.4919
     24 H          -6.7388   -0.6700   -0.0000 H       1  LIG1        0.2937
     25 O          -5.0104    4.9720   -0.0003 O.3     1  LIG1       -0.4929
     26 C          -3.6004    5.1172   -0.0004 C.3     1  LIG1        0.0789
     27 H          -3.4115    6.1918   -0.0004 H       1  LIG1        0.0660
     28 H          -3.1460    4.6718    0.8939 H       1  LIG1        0.0660
     29 H          -3.1462    4.6718   -0.8947 H       1  LIG1        0.0660
     30 C          -9.3761    4.3476    0.0001 C.ar    1  LIG1        0.2220
     31 C          -7.9689    4.6441   -0.0000 C.ar    1  LIG1        0.0688
     32 C          -7.6194    6.0134   -0.0001 C.ar    1  LIG1       -0.0040
     33 C          -8.6037    6.9906   -0.0001 C.ar    1  LIG1        0.1390
     34 C          -9.9428    6.5781    0.0001 C.ar    1  LIG1        0.0730
     35 N         -10.3130    5.3065    0.0001 N.ar    1  LIG1       -0.2172
     36 H          -6.5771    6.2837   -0.0002 H       1  LIG1        0.0663
     37 H         -10.7299    7.3309    0.0001 H       1  LIG1        0.0868
     38 O          -9.8634    3.1093    0.0001 O.3     1  LIG1       -0.4919
     39 H          -9.0719    2.4927    0.0001 H       1  LIG1        0.2937
     40 O          -8.3847    8.3449   -0.0001 O.3     1  LIG1       -0.4936
     41 C          -7.0419    8.7911   -0.0003 C.3     1  LIG1        0.0789
     42 H          -7.0835    9.8817   -0.0003 H       1  LIG1        0.0660
     43 H          -6.4992    8.4518    0.8928 H       1  LIG1        0.0660
     44 H          -6.4994    8.4518   -0.8934 H       1  LIG1        0.0660
@<TRIPOS>BOND
     1    15    12    1
     2    29    26    1
     3    44    41    1
     4    13    12    1
     5    12    11    1
     6    12    14    1
     7    27    26    1
     8    26    25    1
     9    26    28    1
    10     7     3    1
    11    11     4    1
    12    42    41    1
    13    22    18    1
    14     3     4   ar
    15     3     2   ar
    16     4     5   ar
    17    41    40    1
    18    41    43    1
    19    25    19    1
    20    18    19   ar
    21    18    17   ar
    22     8     2    1
    23     2     1   ar
    24    36    32    1
    25    19    20   ar
    26     5    17    1
    27     5     6   ar
    28    17    16   ar
    29     1     6   ar
    30     1     9    1
    31    10     9    1
    32    32    33   ar
    33    32    31   ar
    34    40    33    1
    35    20    31    1
    36    20    21   ar
    37    16    21   ar
    38    16    23    1
    39    33    34   ar
    40    31    30   ar
    41    24    23    1
    42    39    38    1
    43    30    35   ar
    44    30    38    1
    45    34    37    1
    46    34    35   ar
