@<TRIPOS>MOLECULE
mol_data/opt/b3lyp/geoms/mol2/6ga.out
 12 12 0 0 0
SMALL
GASTEIGER

@<TRIPOS>ATOM
      1 C          -4.5280   -1.9579    0.0001 C.ar    1  LIG1        0.0939
      2 C          -3.1245   -1.9593   -0.0000 C.ar    1  LIG1       -0.0300
      3 C          -2.4713   -0.7313   -0.0002 C.ar    1  LIG1       -0.0578
      4 C          -3.2244    0.4439   -0.0003 C.ar    1  LIG1       -0.0435
      5 C          -4.6128    0.3286   -0.0002 C.ar    1  LIG1        0.0288
      6 N          -5.2608   -0.8424   -0.0000 N.ar    1  LIG1       -0.2490
      7 H          -1.3858   -0.6944   -0.0003 H       1  LIG1        0.0619
      8 H          -2.5642   -2.8878    0.0001 H       1  LIG1        0.0644
      9 H          -5.2417    1.2159   -0.0003 H       1  LIG1        0.0830
     10 S          -5.5093   -3.4542    0.0003 S.3     1  LIG1       -0.1234
     11 H          -4.4766   -4.3208    0.0003 H       1  LIG1        0.1086
     12 H          -2.7518    1.4208   -0.0004 H       1  LIG1        0.0633
@<TRIPOS>BOND
     1    12     4    1
     2     4     5   ar
     3     4     3   ar
     4     9     5    1
     5     7     3    1
     6     5     6   ar
     7     3     2   ar
     8     6     1   ar
     9     2     1   ar
    10     2     8    1
    11     1    10    1
    12    10    11    1
