@<TRIPOS>MOLECULE
mol_data/opt/b3lyp/geoms/mol2/6ga6ga.out
 22 23 0 0 0
SMALL
GASTEIGER

@<TRIPOS>ATOM
      1 C          -4.3352   -2.0570   -0.3213 C.ar    1  LIG1        0.0946
      2 C          -2.9773   -2.0146    0.0207 C.ar    1  LIG1       -0.0300
      3 C          -2.4524   -0.7846    0.4017 C.ar    1  LIG1       -0.0572
      4 C          -3.2675    0.3444    0.4108 C.ar    1  LIG1       -0.0355
      5 C          -4.6120    0.2168    0.0255 C.ar    1  LIG1        0.0748
      6 N          -5.1217   -0.9807   -0.3194 N.ar    1  LIG1       -0.2406
      7 H          -1.4109   -0.7079    0.6999 H       1  LIG1        0.0619
      8 H          -2.3619   -2.9068    0.0016 H       1  LIG1        0.0644
      9 S          -5.1784   -3.5536   -0.8135 S.3     1  LIG1       -0.1234
     10 H          -4.1437   -4.3910   -0.6033 H       1  LIG1        0.1086
     11 H          -2.8778    1.3011    0.7367 H       1  LIG1        0.0639
     12 C          -6.8743    1.4464    0.3432 C.ar    1  LIG1        0.1031
     13 C          -5.4973    1.4131   -0.0174 C.ar    1  LIG1        0.0320
     14 C          -4.9330    2.6356   -0.4150 C.ar    1  LIG1       -0.0486
     15 C          -5.6764    3.8093   -0.4065 C.ar    1  LIG1       -0.0429
     16 C          -6.9991    3.7281    0.0219 C.ar    1  LIG1        0.0289
     17 N          -7.5816    2.5831    0.3772 N.ar    1  LIG1       -0.2483
     18 H          -3.9004    2.6544   -0.7498 H       1  LIG1        0.0625
     19 H          -7.6259    4.6164    0.0724 H       1  LIG1        0.0830
     20 S          -7.8556    0.0508    0.8511 S.3     1  LIG1       -0.1228
     21 H          -6.9914   -0.8872    0.3994 H       1  LIG1        0.1086
     22 H          -5.2456    4.7537   -0.7211 H       1  LIG1        0.0633
@<TRIPOS>BOND
     1     9    10    1
     2     9     1    1
     3    18    14    1
     4    22    15    1
     5    14    15   ar
     6    14    13   ar
     7    15    16   ar
     8     1     6   ar
     9     1     2   ar
    10     6     5   ar
    11    13     5    1
    12    13    12   ar
    13     8     2    1
    14     2     3   ar
    15    16    19    1
    16    16    17   ar
    17     5     4   ar
    18    12    17   ar
    19    12    20    1
    20    21    20    1
    21     3     4   ar
    22     3     7    1
    23     4    11    1
