@<TRIPOS>MOLECULE
mol_data/opt/b3lyp/geoms/mol2/6ga6ga6ga-6ga-.out
 42 45 0 0 0
SMALL
GASTEIGER

@<TRIPOS>ATOM
      1 C          -3.8428   -2.1563   -0.3228 C.ar    1  LIG1        0.0946
      2 C          -2.5034   -1.9438    0.0302 C.ar    1  LIG1       -0.0300
      3 C          -2.1371   -0.6570    0.4084 C.ar    1  LIG1       -0.0572
      4 C          -3.0847    0.3638    0.4049 C.ar    1  LIG1       -0.0355
      5 C          -4.3996    0.0694    0.0100 C.ar    1  LIG1        0.0748
      6 N          -4.7547   -1.1837   -0.3324 N.ar    1  LIG1       -0.2406
      7 H          -1.1156   -0.4513    0.7140 H       1  LIG1        0.0619
      8 H          -1.7824   -2.7531    0.0206 H       1  LIG1        0.0644
      9 S          -4.4906   -3.7454   -0.8158 S.3     1  LIG1       -0.1234
     10 H          -3.3655   -4.4501   -0.5844 H       1  LIG1        0.1086
     11 H          -2.8169    1.3619    0.7293 H       1  LIG1        0.0639
     12 C          -6.8097    0.9962    0.2457 C.ar    1  LIG1        0.1038
     13 C          -5.4261    1.1438   -0.0463 C.ar    1  LIG1        0.0320
     14 C          -5.0205    2.4387   -0.4063 C.ar    1  LIG1       -0.0480
     15 C          -5.9032    3.5070   -0.4115 C.ar    1  LIG1       -0.0349
     16 C          -7.2359    3.2792   -0.0315 C.ar    1  LIG1        0.0748
     17 N          -7.6489    2.0372    0.2635 N.ar    1  LIG1       -0.2400
     18 H          -3.9933    2.6009   -0.7172 H       1  LIG1        0.0626
     19 S          -7.6305   -0.5203    0.6775 S.3     1  LIG1       -0.1227
     20 H          -6.6344   -1.3221    0.2266 H       1  LIG1        0.1086
     21 H          -5.5737    4.4861   -0.7369 H       1  LIG1        0.0639
     22 C          -9.6034    4.3200   -0.2218 C.ar    1  LIG1        0.1038
     23 C          -8.2071    4.3999    0.0405 C.ar    1  LIG1        0.0320
     24 C          -7.7312    5.6749    0.3875 C.ar    1  LIG1       -0.0480
     25 C          -8.5594    6.7850    0.4066 C.ar    1  LIG1       -0.0349
     26 C          -9.9092    6.6228    0.0513 C.ar    1  LIG1        0.0748
     27 N         -10.3894    5.4027   -0.2292 N.ar    1  LIG1       -0.2400
     28 H          -6.6917    5.7874    0.6788 H       1  LIG1        0.0626
     29 S         -10.5086    2.8449   -0.6207 S.3     1  LIG1       -0.1227
     30 H          -9.5253    1.9978   -0.2200 H       1  LIG1        0.1086
     31 H          -8.1765    7.7475    0.7229 H       1  LIG1        0.0639
     32 C         -12.2132    7.7907    0.3065 C.ar    1  LIG1        0.1031
     33 C         -10.8234    7.7938   -0.0119 C.ar    1  LIG1        0.0320
     34 C         -10.2794    9.0325   -0.3901 C.ar    1  LIG1       -0.0486
     35 C         -11.0512   10.1868   -0.4028 C.ar    1  LIG1       -0.0429
     36 C         -12.3845   10.0708   -0.0154 C.ar    1  LIG1        0.0289
     37 N         -12.9484    8.9114    0.3200 N.ar    1  LIG1       -0.2483
     38 H          -9.2388    9.0792   -0.6953 H       1  LIG1        0.0625
     39 H         -13.0349   10.9431    0.0168 H       1  LIG1        0.0830
     40 S         -13.1766    6.3723    0.7738 S.3     1  LIG1       -0.1228
     41 H         -12.2541    5.4603    0.3794 H       1  LIG1        0.1086
     42 H         -10.6351   11.1422   -0.7031 H       1  LIG1        0.0633
@<TRIPOS>BOND
     1     9    10    1
     2     9     1    1
     3    21    15    1
     4    18    14    1
     5    42    35    1
     6    38    34    1
     7    29    22    1
     8    29    30    1
     9    15    14   ar
    10    15    16   ar
    11    14    13   ar
    12    35    34   ar
    13    35    36   ar
    14    34    33   ar
    15     6     1   ar
    16     6     5   ar
    17     1     2   ar
    18    27    22   ar
    19    27    26   ar
    20    22    23   ar
    21    13     5    1
    22    13    12   ar
    23    16    23    1
    24    16    17   ar
    25    36    39    1
    26    36    37   ar
    27    33    26    1
    28    33    32   ar
    29     5     4   ar
    30     8     2    1
    31     2     3   ar
    32    23    24   ar
    33    26    25   ar
    34    20    19    1
    35    12    17   ar
    36    12    19    1
    37    32    37   ar
    38    32    40    1
    39    41    40    1
    40    24    25   ar
    41    24    28    1
    42     4     3   ar
    43     4    11    1
    44    25    31    1
    45     3     7    1
