@<TRIPOS>MOLECULE
mol_data/opt/b3lyp/geoms/mol2/6ga6ga-6ga-6ga-.out
 42 45 0 0 0
SMALL
GASTEIGER

@<TRIPOS>ATOM
      1 C          -3.8925   -2.1971    0.0592 C.ar    1  LIG1        0.0946
      2 C          -2.5124   -1.9546    0.0419 C.ar    1  LIG1       -0.0300
      3 C          -2.0955   -0.6294   -0.0160 C.ar    1  LIG1       -0.0572
      4 C          -3.0390    0.3950   -0.0331 C.ar    1  LIG1       -0.0355
      5 C          -4.4027    0.0641    0.0154 C.ar    1  LIG1        0.0748
      6 N          -4.8016   -1.2218    0.0469 N.ar    1  LIG1       -0.2406
      7 H          -1.0359   -0.3953   -0.0567 H       1  LIG1        0.0619
      8 H          -1.7964   -2.7683    0.0607 H       1  LIG1        0.0644
      9 S          -4.6038   -3.8338    0.1125 S.3     1  LIG1       -0.1234
     10 H          -3.4432   -4.5109    0.0104 H       1  LIG1        0.1086
     11 H          -2.7248    1.4286   -0.1118 H       1  LIG1        0.0639
     12 C          -6.7229    1.0695   -0.5576 C.ar    1  LIG1        0.1038
     13 C          -5.4357    1.1332    0.0423 C.ar    1  LIG1        0.0320
     14 C          -5.1389    2.3348    0.7050 C.ar    1  LIG1       -0.0480
     15 C          -6.0202    3.4041    0.7124 C.ar    1  LIG1       -0.0349
     16 C          -7.2374    3.2771    0.0226 C.ar    1  LIG1        0.0748
     17 N          -7.5564    2.1152   -0.5677 N.ar    1  LIG1       -0.2400
     18 H          -4.2050    2.4173    1.2517 H       1  LIG1        0.0626
     19 S          -7.4091   -0.3285   -1.4146 S.3     1  LIG1       -0.1227
     20 H          -6.5180   -1.2195   -0.9139 H       1  LIG1        0.1086
     21 H          -5.7832    4.3009    1.2713 H       1  LIG1        0.0639
     22 C          -9.6111    4.3138   -0.1220 C.ar    1  LIG1        0.1038
     23 C          -8.1923    4.4121   -0.0552 C.ar    1  LIG1        0.0320
     24 C          -7.6802    5.7192   -0.0179 C.ar    1  LIG1       -0.0480
     25 C          -8.5066    6.8304   -0.0135 C.ar    1  LIG1       -0.0349
     26 C          -9.8972    6.6342   -0.0423 C.ar    1  LIG1        0.0748
     27 N         -10.4026    5.3932   -0.0925 N.ar    1  LIG1       -0.2400
     28 H          -6.6049    5.8639   -0.0010 H       1  LIG1        0.0626
     29 S         -10.5520    2.8109   -0.2105 S.3     1  LIG1       -0.1227
     30 H          -9.4792    2.0207   -0.4755 H       1  LIG1        0.1086
     31 H          -8.0827    7.8254    0.0421 H       1  LIG1        0.0639
     32 C         -12.1067    7.8420    0.5837 C.ar    1  LIG1        0.1031
     33 C         -10.8257    7.7965   -0.0393 C.ar    1  LIG1        0.0320
     34 C         -10.4067    8.9771   -0.6747 C.ar    1  LIG1       -0.0486
     35 C         -11.1835   10.1279   -0.6445 C.ar    1  LIG1       -0.0429
     36 C         -12.3893   10.0701    0.0507 C.ar    1  LIG1        0.0289
     37 N         -12.8401    8.9621    0.6376 N.ar    1  LIG1       -0.2483
     38 H          -9.4647    8.9798   -1.2140 H       1  LIG1        0.0625
     39 H         -13.0305   10.9460    0.1314 H       1  LIG1        0.0830
     40 S         -12.9115    6.4916    1.4144 S.3     1  LIG1       -0.1228
     41 H         -12.1015    5.5330    0.9029 H       1  LIG1        0.1086
     42 H         -10.8659   11.0377   -1.1422 H       1  LIG1        0.0633
@<TRIPOS>BOND
     1    19    20    1
     2    19    12    1
     3    38    34    1
     4    42    35    1
     5    34    35   ar
     6    34    33   ar
     7    35    36   ar
     8    17    12   ar
     9    17    16   ar
    10    12    13   ar
    11    30    29    1
    12    29    22    1
    13    22    27   ar
    14    22    23   ar
    15    11     4    1
    16    27    26   ar
    17     7     3    1
    18    23    24   ar
    19    23    16    1
    20    26    33    1
    21    26    25   ar
    22    33    32   ar
    23     4     3   ar
    24     4     5   ar
    25    24    25   ar
    26    24    28    1
    27     3     2   ar
    28    25    31    1
    29    10     9    1
    30     5    13    1
    31     5     6   ar
    32    16    15   ar
    33     2     1   ar
    34     2     8    1
    35    13    14   ar
    36     6     1   ar
    37    36    39    1
    38    36    37   ar
    39     1     9    1
    40    32    37   ar
    41    32    40    1
    42    14    15   ar
    43    14    18    1
    44    15    21    1
    45    41    40    1
