@<TRIPOS>MOLECULE
mol_data/opt/b3lyp/geoms/mol2/6ga6ga-6ga6ga.out
 42 45 0 0 0
SMALL
GASTEIGER

@<TRIPOS>ATOM
      1 C          -3.8417   -2.1560    0.3116 C.ar    1  LIG1        0.0946
      2 C          -2.5041   -1.9443   -0.0489 C.ar    1  LIG1       -0.0300
      3 C          -2.1398   -0.6584   -0.4321 C.ar    1  LIG1       -0.0572
      4 C          -3.0873    0.3623   -0.4262 C.ar    1  LIG1       -0.0355
      5 C          -4.4001    0.0690   -0.0237 C.ar    1  LIG1        0.0748
      6 N          -4.7535   -1.1832    0.3236 N.ar    1  LIG1       -0.2406
      7 H          -1.1199   -0.4536   -0.7435 H       1  LIG1        0.0619
      8 H          -1.7831   -2.7537   -0.0410 H       1  LIG1        0.0644
      9 S          -4.4869   -3.7439    0.8117 S.3     1  LIG1       -0.1234
     10 H          -3.3630   -4.4490    0.5764 H       1  LIG1        0.1086
     11 H          -2.8212    1.3596   -0.7545 H       1  LIG1        0.0639
     12 C          -6.8115    0.9954   -0.2489 C.ar    1  LIG1        0.1038
     13 C          -5.4263    1.1436    0.0352 C.ar    1  LIG1        0.0320
     14 C          -5.0186    2.4394    0.3896 C.ar    1  LIG1       -0.0480
     15 C          -5.9011    3.5079    0.3965 C.ar    1  LIG1       -0.0349
     16 C          -7.2358    3.2792    0.0242 C.ar    1  LIG1        0.0748
     17 N          -7.6506    2.0365   -0.2652 N.ar    1  LIG1       -0.2400
     18 H          -3.9898    2.6024    0.6945 H       1  LIG1        0.0626
     19 S          -7.6349   -0.5223   -0.6717 S.3     1  LIG1       -0.1227
     20 H          -6.6360   -1.3229   -0.2248 H       1  LIG1        0.1086
     21 H          -5.5698    4.4879    0.7174 H       1  LIG1        0.0639
     22 C          -9.6021    4.3209    0.2247 C.ar    1  LIG1        0.1038
     23 C          -8.2073    4.3998   -0.0459 C.ar    1  LIG1        0.0320
     24 C          -7.7332    5.6738   -0.3992 C.ar    1  LIG1       -0.0480
     25 C          -8.5614    6.7839   -0.4169 C.ar    1  LIG1       -0.0349
     26 C          -9.9092    6.6230   -0.0535 C.ar    1  LIG1        0.0748
     27 N         -10.3879    5.4036    0.2333 N.ar    1  LIG1       -0.2400
     28 H          -6.6953    5.7854   -0.6964 H       1  LIG1        0.0626
     29 S         -10.5051    2.8470    0.6330 S.3     1  LIG1       -0.1227
     30 H          -9.5242    1.9987    0.2290 H       1  LIG1        0.1086
     31 H          -8.1801    7.7454   -0.7381 H       1  LIG1        0.0639
     32 C         -12.2143    7.7904   -0.2995 C.ar    1  LIG1        0.1031
     33 C         -10.8229    7.7942    0.0113 C.ar    1  LIG1        0.0320
     34 C         -10.2766    9.0338    0.3830 C.ar    1  LIG1       -0.0486
     35 C         -11.0482   10.1883    0.3965 C.ar    1  LIG1       -0.0429
     36 C         -12.3835   10.0714    0.0165 C.ar    1  LIG1        0.0289
     37 N         -12.9494    8.9112   -0.3125 N.ar    1  LIG1       -0.2483
     38 H          -9.2344    9.0813    0.6826 H       1  LIG1        0.0625
     39 H         -13.0338   10.9438   -0.0149 H       1  LIG1        0.0830
     40 S         -13.1805    6.3708   -0.7571 S.3     1  LIG1       -0.1228
     41 H         -12.2559    5.4598   -0.3652 H       1  LIG1        0.1086
     42 H         -10.6303   11.1446    0.6918 H       1  LIG1        0.0633
@<TRIPOS>BOND
     1    40    41    1
     2    40    32    1
     3    11     4    1
     4     7     3    1
     5    31    25    1
     6    28    24    1
     7    19    12    1
     8    19    20    1
     9     3     4   ar
    10     3     2   ar
    11     4     5   ar
    12    25    24   ar
    13    25    26   ar
    14    24    23   ar
    15    37    32   ar
    16    37    36   ar
    17    32    33   ar
    18    17    12   ar
    19    17    16   ar
    20    12    13   ar
    21    26    33    1
    22    26    27   ar
    23     2     8    1
    24     2     1   ar
    25    23    16    1
    26    23    22   ar
    27     5    13    1
    28     5     6   ar
    29    39    36    1
    30    33    34   ar
    31    36    35   ar
    32    16    15   ar
    33    13    14   ar
    34    22    27   ar
    35    22    29    1
    36    30    29    1
    37     1     6   ar
    38     1     9    1
    39    34    35   ar
    40    34    38    1
    41    14    15   ar
    42    14    18    1
    43    35    42    1
    44    15    21    1
    45    10     9    1
