@<TRIPOS>MOLECULE
mol_data/opt/b3lyp/geoms/mol2/6ga6ga6ga.out
 32 34 0 0 0
SMALL
GASTEIGER

@<TRIPOS>ATOM
      1 C          -4.1809   -2.1982   -0.0005 C.ar    1  LIG1        0.0946
      2 C          -2.7875   -2.0858   -0.0001 C.ar    1  LIG1       -0.0300
      3 C          -2.2599   -0.7987    0.0004 C.ar    1  LIG1       -0.0572
      4 C          -3.1033    0.3061    0.0004 C.ar    1  LIG1       -0.0355
      5 C          -4.4998    0.1151   -0.0002 C.ar    1  LIG1        0.0748
      6 N          -4.9918   -1.1408   -0.0006 N.ar    1  LIG1       -0.2406
      7 H          -1.1836   -0.6546    0.0008 H       1  LIG1        0.0619
      8 H          -2.1466   -2.9596   -0.0001 H       1  LIG1        0.0644
      9 S          -5.0409   -3.7633   -0.0011 S.3     1  LIG1       -0.1234
     10 H          -3.9416   -4.5420   -0.0009 H       1  LIG1        0.1086
     11 H          -2.6642    1.2935    0.0008 H       1  LIG1        0.0639
     12 C          -6.8750    1.1961   -0.0002 C.ar    1  LIG1        0.1038
     13 C          -5.4503    1.2629   -0.0003 C.ar    1  LIG1        0.0320
     14 C          -4.9399    2.5760   -0.0004 C.ar    1  LIG1       -0.0480
     15 C          -5.7438    3.6976   -0.0004 C.ar    1  LIG1       -0.0349
     16 C          -7.1447    3.5394   -0.0003 C.ar    1  LIG1        0.0748
     17 N          -7.6416    2.2955   -0.0001 N.ar    1  LIG1       -0.2400
     18 H          -3.8695    2.7377   -0.0006 H       1  LIG1        0.0626
     19 S          -7.8810   -0.2647   -0.0000 S.3     1  LIG1       -0.1227
     20 H          -6.8136   -1.1137   -0.0003 H       1  LIG1        0.1086
     21 H          -5.2709    4.6696   -0.0005 H       1  LIG1        0.0639
     22 C          -9.5086    4.6482    0.0004 C.ar    1  LIG1        0.1031
     23 C          -8.0763    4.7030   -0.0002 C.ar    1  LIG1        0.0320
     24 C          -7.5277    6.0011   -0.0008 C.ar    1  LIG1       -0.0486
     25 C          -8.3209    7.1368   -0.0007 C.ar    1  LIG1       -0.0429
     26 C          -9.7027    6.9545   -0.0000 C.ar    1  LIG1        0.0289
     27 N         -10.2721    5.7548    0.0005 N.ar    1  LIG1       -0.2483
     28 H          -6.4531    6.1328   -0.0014 H       1  LIG1        0.0625
     29 H         -10.3811    7.8062    0.0001 H       1  LIG1        0.0830
     30 S         -10.5303    3.2011    0.0012 S.3     1  LIG1       -0.1228
     31 H          -9.4820    2.3312    0.0008 H       1  LIG1        0.1086
     32 H          -7.8836    8.1291   -0.0012 H       1  LIG1        0.0633
@<TRIPOS>BOND
     1    28    24    1
     2    32    25    1
     3     9    10    1
     4     9     1    1
     5    24    25   ar
     6    24    23   ar
     7    25    26   ar
     8    18    14    1
     9     6     1   ar
    10     6     5   ar
    11     1     2   ar
    12    21    15    1
    13    15    14   ar
    14    15    16   ar
    15    14    13   ar
    16    20    19    1
    17    13    12   ar
    18    13     5    1
    19    16    23    1
    20    16    17   ar
    21    23    22   ar
    22    12    17   ar
    23    12    19    1
    24     5     4   ar
    25     2     8    1
    26     2     3   ar
    27    26    29    1
    28    26    27   ar
    29     4     3   ar
    30     4    11    1
    31     3     7    1
    32    22    27   ar
    33    22    30    1
    34    31    30    1
