@<TRIPOS>MOLECULE
mol_data/opt/b3lyp/geoms/mol2/6ga6ga6ga-.out
 32 34 0 0 0
SMALL
GASTEIGER

@<TRIPOS>ATOM
      1 C          -4.1399   -2.1576   -0.2033 C.ar    1  LIG1        0.0946
      2 C          -2.7695   -2.0085    0.0477 C.ar    1  LIG1       -0.0300
      3 C          -2.3033   -0.7257    0.3133 C.ar    1  LIG1       -0.0572
      4 C          -3.1873    0.3502    0.3014 C.ar    1  LIG1       -0.0355
      5 C          -4.5414    0.1154    0.0123 C.ar    1  LIG1        0.0748
      6 N          -4.9919   -1.1322   -0.2208 N.ar    1  LIG1       -0.2406
      7 H          -1.2530   -0.5659    0.5381 H       1  LIG1        0.0619
      8 H          -2.0997   -2.8608    0.0469 H       1  LIG1        0.0644
      9 S          -4.9125   -3.7313   -0.5438 S.3     1  LIG1       -0.1234
     10 H          -3.8172   -4.4896   -0.3402 H       1  LIG1        0.1086
     11 H          -2.8402    1.3483    0.5393 H       1  LIG1        0.0639
     12 C          -6.8686    1.2110    0.3422 C.ar    1  LIG1        0.1038
     13 C          -5.5030    1.2476   -0.0506 C.ar    1  LIG1        0.0320
     14 C          -5.0459    2.4873   -0.5253 C.ar    1  LIG1       -0.0480
     15 C          -5.8602    3.6083   -0.5441 C.ar    1  LIG1       -0.0349
     16 C          -7.1731    3.4941   -0.0577 C.ar    1  LIG1        0.0748
     17 N          -7.6395    2.3035    0.3474 N.ar    1  LIG1       -0.2400
     18 H          -4.0354    2.5613   -0.9149 H       1  LIG1        0.0626
     19 S          -7.7500   -0.2187    0.9273 S.3     1  LIG1       -0.1227
     20 H          -6.8381   -1.1126    0.4729 H       1  LIG1        0.1086
     21 H          -5.4970    4.5411   -0.9575 H       1  LIG1        0.0639
     22 C          -9.4760    4.6832   -0.1904 C.ar    1  LIG1        0.1031
     23 C          -8.0644    4.6824    0.0084 C.ar    1  LIG1        0.0320
     24 C          -7.4752    5.9324    0.2599 C.ar    1  LIG1       -0.0486
     25 C          -8.2297    7.0982    0.2654 C.ar    1  LIG1       -0.0429
     26 C          -9.5926    6.9811    0.0011 C.ar    1  LIG1        0.0289
     27 N         -10.1967    5.8130   -0.2118 N.ar    1  LIG1       -0.2483
     28 H          -6.4115    5.9800    0.4713 H       1  LIG1        0.0625
     29 H         -10.2332    7.8606   -0.0302 H       1  LIG1        0.0830
     30 S         -10.4920    3.2551   -0.4866 S.3     1  LIG1       -0.1228
     31 H          -9.5523    2.3526   -0.1126 H       1  LIG1        0.1086
     32 H          -7.7783    8.0633    0.4682 H       1  LIG1        0.0633
@<TRIPOS>BOND
     1    21    15    1
     2    18    14    1
     3    15    14   ar
     4    15    16   ar
     5     9    10    1
     6     9     1    1
     7    14    13   ar
     8    30    22    1
     9    30    31    1
    10     6     1   ar
    11     6     5   ar
    12    27    22   ar
    13    27    26   ar
    14     1     2   ar
    15    22    23   ar
    16    16    23    1
    17    16    17   ar
    18    13     5    1
    19    13    12   ar
    20    29    26    1
    21    26    25   ar
    22    23    24   ar
    23     5     4   ar
    24     8     2    1
    25     2     3   ar
    26    24    25   ar
    27    24    28    1
    28    25    32    1
    29     4     3   ar
    30     4    11    1
    31     3     7    1
    32    12    17   ar
    33    12    19    1
    34    20    19    1
