@<TRIPOS>MOLECULE
mol_data/opt/b3lyp/geoms/mol2/6ga6ga-6ga-6ga.out
 42 45 0 0 0
SMALL
GASTEIGER

@<TRIPOS>ATOM
      1 C          -3.8955   -2.1989    0.0622 C.ar    1  LIG1        0.0946
      2 C          -2.5153   -1.9572    0.0390 C.ar    1  LIG1       -0.0300
      3 C          -2.0979   -0.6325   -0.0246 C.ar    1  LIG1       -0.0572
      4 C          -3.0408    0.3924   -0.0411 C.ar    1  LIG1       -0.0355
      5 C          -4.4045    0.0624    0.0136 C.ar    1  LIG1        0.0748
      6 N          -4.8040   -1.2231    0.0505 N.ar    1  LIG1       -0.2406
      7 H          -1.0383   -0.3991   -0.0700 H       1  LIG1        0.0619
      8 H          -1.7997   -2.7713    0.0574 H       1  LIG1        0.0644
      9 S          -4.6075   -3.8349    0.1232 S.3     1  LIG1       -0.1234
     10 H          -3.4478   -4.5131    0.0187 H       1  LIG1        0.1086
     11 H          -2.7264    1.4256   -0.1241 H       1  LIG1        0.0639
     12 C          -6.7261    1.0678   -0.5539 C.ar    1  LIG1        0.1038
     13 C          -5.4368    1.1323    0.0411 C.ar    1  LIG1        0.0320
     14 C          -5.1370    2.3353    0.6999 C.ar    1  LIG1       -0.0480
     15 C          -6.0177    3.4051    0.7078 C.ar    1  LIG1       -0.0349
     16 C          -7.2375    3.2770    0.0228 C.ar    1  LIG1        0.0748
     17 N          -7.5592    2.1138   -0.5635 N.ar    1  LIG1       -0.2400
     18 H          -4.2010    2.4186    1.2430 H       1  LIG1        0.0626
     19 S          -7.4158   -0.3320   -1.4054 S.3     1  LIG1       -0.1227
     20 H          -6.5242   -1.2224   -0.9045 H       1  LIG1        0.1086
     21 H          -5.7782    4.3032    1.2635 H       1  LIG1        0.0639
     22 C          -9.6112    4.3146   -0.1156 C.ar    1  LIG1        0.1038
     23 C          -8.1922    4.4123   -0.0541 C.ar    1  LIG1        0.0320
     24 C          -7.6792    5.7192   -0.0218 C.ar    1  LIG1       -0.0480
     25 C          -8.5051    6.8308   -0.0171 C.ar    1  LIG1       -0.0349
     26 C          -9.8959    6.6353   -0.0406 C.ar    1  LIG1        0.0748
     27 N         -10.4021    5.3945   -0.0859 N.ar    1  LIG1       -0.2400
     28 H          -6.6038    5.8634   -0.0090 H       1  LIG1        0.0626
     29 S         -10.5531    2.8120   -0.1968 S.3     1  LIG1       -0.1227
     30 H          -9.4818    2.0205   -0.4641 H       1  LIG1        0.1086
     31 H          -8.0805    7.8258    0.0347 H       1  LIG1        0.0639
     32 C         -12.1027    7.8460    0.5897 C.ar    1  LIG1        0.1031
     33 C         -10.8237    7.7982   -0.0371 C.ar    1  LIG1        0.0320
     34 C         -10.4058    8.9771   -0.6763 C.ar    1  LIG1       -0.0486
     35 C         -11.1816   10.1286   -0.6461 C.ar    1  LIG1       -0.0429
     36 C         -12.3852   10.0732    0.0530 C.ar    1  LIG1        0.0289
     37 N         -12.8351    8.9668    0.6436 N.ar    1  LIG1       -0.2483
     38 H          -9.4655    8.9781   -1.2186 H       1  LIG1        0.0625
     39 H         -13.0255   10.9497    0.1339 H       1  LIG1        0.0830
     40 S         -12.9061    6.4978    1.4254 S.3     1  LIG1       -0.1228
     41 H         -12.0978    5.5377    0.9140 H       1  LIG1        0.1086
     42 H         -10.8649   11.0371   -1.1468 H       1  LIG1        0.0633
@<TRIPOS>BOND
     1    19    20    1
     2    19    12    1
     3    38    34    1
     4    42    35    1
     5    34    35   ar
     6    34    33   ar
     7    35    36   ar
     8    17    12   ar
     9    17    16   ar
    10    12    13   ar
    11    30    29    1
    12    29    22    1
    13    11     4    1
    14    22    27   ar
    15    22    23   ar
    16    27    26   ar
    17     7     3    1
    18    23    24   ar
    19    23    16    1
    20     4     3   ar
    21     4     5   ar
    22    26    33    1
    23    26    25   ar
    24    33    32   ar
    25     3     2   ar
    26    24    25   ar
    27    24    28    1
    28    25    31    1
    29     5    13    1
    30     5     6   ar
    31    10     9    1
    32    16    15   ar
    33     2     8    1
    34     2     1   ar
    35    13    14   ar
    36     6     1   ar
    37    36    39    1
    38    36    37   ar
    39     1     9    1
    40    32    37   ar
    41    32    40    1
    42    14    15   ar
    43    14    18    1
    44    15    21    1
    45    41    40    1
