@<TRIPOS>MOLECULE
mol_data/opt/b3lyp/geoms/mol2/6ga6ga6ga-6ga.out
 42 45 0 0 0
SMALL
GASTEIGER

@<TRIPOS>ATOM
      1 C          -3.8416   -2.1563   -0.3102 C.ar    1  LIG1        0.0946
      2 C          -2.5036   -1.9438    0.0481 C.ar    1  LIG1       -0.0300
      3 C          -2.1388   -0.6570    0.4278 C.ar    1  LIG1       -0.0572
      4 C          -3.0863    0.3637    0.4207 C.ar    1  LIG1       -0.0355
      5 C          -4.3997    0.0694    0.0208 C.ar    1  LIG1        0.0748
      6 N          -4.7535   -1.1836   -0.3232 N.ar    1  LIG1       -0.2406
      7 H          -1.1184   -0.4515    0.7373 H       1  LIG1        0.0619
      8 H          -1.7826   -2.7532    0.0412 H       1  LIG1        0.0644
      9 S          -4.4876   -3.7454   -0.8056 S.3     1  LIG1       -0.1234
     10 H          -3.3629   -4.4497   -0.5718 H       1  LIG1        0.1086
     11 H          -2.8198    1.3618    0.7463 H       1  LIG1        0.0639
     12 C          -6.8106    0.9963    0.2479 C.ar    1  LIG1        0.1038
     13 C          -5.4260    1.1438   -0.0392 C.ar    1  LIG1        0.0320
     14 C          -5.0190    2.4387   -0.3977 C.ar    1  LIG1       -0.0480
     15 C          -5.9016    3.5071   -0.4059 C.ar    1  LIG1       -0.0349
     16 C          -7.2356    3.2793   -0.0306 C.ar    1  LIG1        0.0748
     17 N          -7.6498    2.0373    0.2629 N.ar    1  LIG1       -0.2400
     18 H          -3.9907    2.6009   -0.7049 H       1  LIG1        0.0626
     19 S          -7.6331   -0.5202    0.6762 S.3     1  LIG1       -0.1227
     20 H          -6.6352   -1.3220    0.2293 H       1  LIG1        0.1086
     21 H          -5.5708    4.4862   -0.7300 H       1  LIG1        0.0639
     22 C          -9.6024    4.3200   -0.2293 C.ar    1  LIG1        0.1038
     23 C          -8.2071    4.4000    0.0383 C.ar    1  LIG1        0.0320
     24 C          -7.7326    5.6750    0.3872 C.ar    1  LIG1       -0.0480
     25 C          -8.5610    6.7850    0.4035 C.ar    1  LIG1       -0.0349
     26 C          -9.9095    6.6228    0.0432 C.ar    1  LIG1        0.0748
     27 N         -10.3885    5.4026   -0.2393 N.ar    1  LIG1       -0.2400
     28 H          -6.6941    5.7877    0.6820 H       1  LIG1        0.0626
     29 S         -10.5058    2.8450   -0.6321 S.3     1  LIG1       -0.1227
     30 H          -9.5240    1.9979   -0.2279 H       1  LIG1        0.1086
     31 H          -8.1793    7.7474    0.7213 H       1  LIG1        0.0639
     32 C         -12.2144    7.7904    0.2907 C.ar    1  LIG1        0.1031
     33 C         -10.8235    7.7937   -0.0226 C.ar    1  LIG1        0.0320
     34 C         -10.2782    9.0325   -0.3982 C.ar    1  LIG1       -0.0486
     35 C         -11.0499   10.1869   -0.4128 C.ar    1  LIG1       -0.0429
     36 C         -12.3845   10.0707   -0.0300 C.ar    1  LIG1        0.0289
     37 N         -12.9496    8.9112    0.3026 N.ar    1  LIG1       -0.2483
     38 H          -9.2365    9.0795   -0.6998 H       1  LIG1        0.0625
     39 H         -13.0349   10.9430    0.0007 H       1  LIG1        0.0830
     40 S         -13.1799    6.3716    0.7529 S.3     1  LIG1       -0.1228
     41 H         -12.2555    5.4599    0.3621 H       1  LIG1        0.1086
     42 H         -10.6328   11.1425   -0.7111 H       1  LIG1        0.0633
@<TRIPOS>BOND
     1     9    10    1
     2     9     1    1
     3    21    15    1
     4    42    35    1
     5    18    14    1
     6    38    34    1
     7    29    22    1
     8    29    30    1
     9    35    34   ar
    10    35    36   ar
    11    15    14   ar
    12    15    16   ar
    13    34    33   ar
    14    14    13   ar
    15     6     1   ar
    16     6     5   ar
    17     1     2   ar
    18    27    22   ar
    19    27    26   ar
    20    22    23   ar
    21    13     5    1
    22    13    12   ar
    23    16    23    1
    24    16    17   ar
    25    36    39    1
    26    36    37   ar
    27    33    26    1
    28    33    32   ar
    29     5     4   ar
    30    23    24   ar
    31     8     2    1
    32    26    25   ar
    33     2     3   ar
    34    20    19    1
    35    12    17   ar
    36    12    19    1
    37    32    37   ar
    38    32    40    1
    39    41    40    1
    40    24    25   ar
    41    24    28    1
    42    25    31    1
    43     4     3   ar
    44     4    11    1
    45     3     7    1
