@<TRIPOS>MOLECULE
mol_data/opt/b3lyp/geoms/mol2/6ga6ga-.out
 22 23 0 0 0
SMALL
GASTEIGER

@<TRIPOS>ATOM
      1 C          -4.3382   -2.0585    0.3121 C.ar    1  LIG1        0.0946
      2 C          -2.9771   -2.0146   -0.0169 C.ar    1  LIG1       -0.0300
      3 C          -2.4485   -0.7827   -0.3866 C.ar    1  LIG1       -0.0572
      4 C          -3.2635    0.3464   -0.3977 C.ar    1  LIG1       -0.0355
      5 C          -4.6116    0.2170   -0.0259 C.ar    1  LIG1        0.0748
      6 N          -5.1246   -0.9822    0.3081 N.ar    1  LIG1       -0.2406
      7 H          -1.4042   -0.7046   -0.6744 H       1  LIG1        0.0619
      8 H          -2.3620   -2.9071    0.0034 H       1  LIG1        0.0644
      9 S          -5.1863   -3.5580    0.7888 S.3     1  LIG1       -0.1234
     10 H          -4.1490   -4.3941    0.5863 H       1  LIG1        0.1086
     11 H          -2.8706    1.3049   -0.7149 H       1  LIG1        0.0639
     12 C          -6.8707    1.4484   -0.3596 C.ar    1  LIG1        0.1031
     13 C          -5.4974    1.4132    0.0144 C.ar    1  LIG1        0.0320
     14 C          -4.9372    2.6334    0.4246 C.ar    1  LIG1       -0.0486
     15 C          -5.6806    3.8071    0.4153 C.ar    1  LIG1       -0.0429
     16 C          -6.9991    3.7282   -0.0263 C.ar    1  LIG1        0.0289
     17 N          -7.5779    2.5851   -0.3938 N.ar    1  LIG1       -0.2483
     18 H          -3.9080    2.6503    0.7695 H       1  LIG1        0.0625
     19 H          -7.6257    4.6168   -0.0778 H       1  LIG1        0.0830
     20 S          -7.8462    0.0560   -0.8858 S.3     1  LIG1       -0.1228
     21 H          -6.9878   -0.8845   -0.4285 H       1  LIG1        0.1086
     22 H          -5.2530    4.7497    0.7394 H       1  LIG1        0.0633
@<TRIPOS>BOND
     1    20    21    1
     2    20    12    1
     3    11     4    1
     4     7     3    1
     5     4     3   ar
     6     4     5   ar
     7    17    12   ar
     8    17    16   ar
     9     3     2   ar
    10    12    13   ar
    11    19    16    1
    12    16    15   ar
    13     5    13    1
    14     5     6   ar
    15     2     8    1
    16     2     1   ar
    17    13    14   ar
    18     6     1   ar
    19     1     9    1
    20    15    14   ar
    21    15    22    1
    22    14    18    1
    23    10     9    1
