@<TRIPOS>MOLECULE
mol_data/opt/b3lyp/geoms/mol2/6ga6ga-6ga.out
 32 34 0 0 0
SMALL
GASTEIGER

@<TRIPOS>ATOM
      1 C          -4.1414   -2.1583    0.1960 C.ar    1  LIG1        0.0946
      2 C          -2.7686   -2.0079   -0.0407 C.ar    1  LIG1       -0.0300
      3 C          -2.2999   -0.7236   -0.2948 C.ar    1  LIG1       -0.0572
      4 C          -3.1839    0.3522   -0.2857 C.ar    1  LIG1       -0.0355
      5 C          -4.5408    0.1159   -0.0112 C.ar    1  LIG1        0.0748
      6 N          -4.9935   -1.1330    0.2107 N.ar    1  LIG1       -0.2406
      7 H          -1.2473   -0.5627   -0.5083 H       1  LIG1        0.0619
      8 H          -2.0988   -2.8602   -0.0379 H       1  LIG1        0.0644
      9 S          -4.9172   -3.7338    0.5205 S.3     1  LIG1       -0.1234
     10 H          -3.8201   -4.4910    0.3234 H       1  LIG1        0.1086
     11 H          -2.8345    1.3516   -0.5148 H       1  LIG1        0.0639
     12 C          -6.8646    1.2133   -0.3585 C.ar    1  LIG1        0.1038
     13 C          -5.5031    1.2476    0.0484 C.ar    1  LIG1        0.0320
     14 C          -5.0510    2.4846    0.5351 C.ar    1  LIG1       -0.0480
     15 C          -5.8655    3.6053    0.5521 C.ar    1  LIG1       -0.0349
     16 C          -7.1734    3.4940    0.0519 C.ar    1  LIG1        0.0748
     17 N          -7.6354    2.3058   -0.3651 N.ar    1  LIG1       -0.2400
     18 H          -4.0445    2.5563    0.9354 H       1  LIG1        0.0626
     19 S          -7.7394   -0.2128   -0.9614 S.3     1  LIG1       -0.1227
     20 H          -6.8327   -1.1094   -0.5020 H       1  LIG1        0.1086
     21 H          -5.5064    4.5357    0.9747 H       1  LIG1        0.0639
     22 C          -9.4780    4.6811    0.1675 C.ar    1  LIG1        0.1031
     23 C          -8.0644    4.6823   -0.0166 C.ar    1  LIG1        0.0320
     24 C          -7.4734    5.9342   -0.2542 C.ar    1  LIG1       -0.0486
     25 C          -8.2287    7.0995   -0.2607 C.ar    1  LIG1       -0.0429
     26 C          -9.5942    6.9800   -0.0117 C.ar    1  LIG1        0.0289
     27 N         -10.1998    5.8103    0.1880 N.ar    1  LIG1       -0.2483
     28 H          -6.4076    5.9838   -0.4539 H       1  LIG1        0.0625
     29 H         -10.2357    7.8589    0.0180 H       1  LIG1        0.0830
     30 S         -10.4962    3.2507    0.4449 S.3     1  LIG1       -0.1228
     31 H          -9.5523    2.3509    0.0753 H       1  LIG1        0.1086
     32 H          -7.7758    8.0661   -0.4528 H       1  LIG1        0.0633
@<TRIPOS>BOND
     1    19    20    1
     2    19    12    1
     3    11     4    1
     4     7     3    1
     5    28    24    1
     6    32    25    1
     7    17    12   ar
     8    17    16   ar
     9    12    13   ar
    10     3     4   ar
    11     3     2   ar
    12     4     5   ar
    13    25    24   ar
    14    25    26   ar
    15    24    23   ar
    16     2     8    1
    17     2     1   ar
    18    23    16    1
    19    23    22   ar
    20    26    29    1
    21    26    27   ar
    22     5    13    1
    23     5     6   ar
    24    13    14   ar
    25    16    15   ar
    26    31    30    1
    27    22    27   ar
    28    22    30    1
    29     1     6   ar
    30     1     9    1
    31    10     9    1
    32    14    15   ar
    33    14    18    1
    34    15    21    1
