@<TRIPOS>MOLECULE
mol_data/opt/b3lyp/geoms/mol2/6ga6ga-6ga-.out
 32 34 0 0 0
SMALL
GASTEIGER

@<TRIPOS>ATOM
      1 C          -4.1416   -2.1588    0.1944 C.ar    1  LIG1        0.0946
      2 C          -2.7674   -2.0069   -0.0328 C.ar    1  LIG1       -0.0300
      3 C          -2.2977   -0.7215   -0.2791 C.ar    1  LIG1       -0.0572
      4 C          -3.1822    0.3539   -0.2718 C.ar    1  LIG1       -0.0355
      5 C          -4.5408    0.1159   -0.0070 C.ar    1  LIG1        0.0748
      6 N          -4.9943   -1.1340    0.2073 N.ar    1  LIG1       -0.2406
      7 H          -1.2438   -0.5593   -0.4853 H       1  LIG1        0.0619
      8 H          -2.0973   -2.8590   -0.0288 H       1  LIG1        0.0644
      9 S          -4.9187   -3.7359    0.5082 S.3     1  LIG1       -0.1234
     10 H          -3.8202   -4.4920    0.3144 H       1  LIG1        0.1086
     11 H          -2.8319    1.3542   -0.4950 H       1  LIG1        0.0639
     12 C          -6.8629    1.2137   -0.3651 C.ar    1  LIG1        0.1038
     13 C          -5.5039    1.2472    0.0502 C.ar    1  LIG1        0.0320
     14 C          -5.0552    2.4828    0.5434 C.ar    1  LIG1       -0.0480
     15 C          -5.8701    3.6033    0.5584 C.ar    1  LIG1       -0.0349
     16 C          -7.1746    3.4933    0.0493 C.ar    1  LIG1        0.0748
     17 N          -7.6339    2.3060   -0.3736 N.ar    1  LIG1       -0.2400
     18 H          -4.0513    2.5535    0.9504 H       1  LIG1        0.0626
     19 S          -7.7342   -0.2114   -0.9766 S.3     1  LIG1       -0.1227
     20 H          -6.8289   -1.1088   -0.5159 H       1  LIG1        0.1086
     21 H          -5.5142    4.5326    0.9860 H       1  LIG1        0.0639
     22 C          -9.4798    4.6809    0.1531 C.ar    1  LIG1        0.1031
     23 C          -8.0649    4.6818   -0.0213 C.ar    1  LIG1        0.0320
     24 C          -7.4718    5.9340   -0.2519 C.ar    1  LIG1       -0.0486
     25 C          -8.2263    7.0998   -0.2603 C.ar    1  LIG1       -0.0429
     26 C          -9.5935    6.9803   -0.0208 C.ar    1  LIG1        0.0289
     27 N         -10.2010    5.8104    0.1716 N.ar    1  LIG1       -0.2483
     28 H          -6.4046    5.9834   -0.4446 H       1  LIG1        0.0625
     29 H         -10.2347    7.8595    0.0069 H       1  LIG1        0.0830
     30 S         -10.5003    3.2505    0.4198 S.3     1  LIG1       -0.1228
     31 H          -9.5543    2.3513    0.0537 H       1  LIG1        0.1086
     32 H          -7.7717    8.0667   -0.4470 H       1  LIG1        0.0633
@<TRIPOS>BOND
     1    19    20    1
     2    19    12    1
     3    11     4    1
     4     7     3    1
     5    32    25    1
     6    28    24    1
     7    17    12   ar
     8    17    16   ar
     9    12    13   ar
    10     3     4   ar
    11     3     2   ar
    12     4     5   ar
    13    25    24   ar
    14    25    26   ar
    15    24    23   ar
    16     2     8    1
    17     2     1   ar
    18    23    16    1
    19    23    22   ar
    20    26    29    1
    21    26    27   ar
    22     5    13    1
    23     5     6   ar
    24    16    15   ar
    25    13    14   ar
    26    31    30    1
    27    22    27   ar
    28    22    30    1
    29     1     6   ar
    30     1     9    1
    31    10     9    1
    32    14    15   ar
    33    14    18    1
    34    15    21    1
