@<TRIPOS>MOLECULE
mol_data/opt/b3lyp/geoms/mol2/6ga6ga6ga6ga-.out
 42 45 0 0 0
SMALL
GASTEIGER

@<TRIPOS>ATOM
      1 C          -3.8453   -2.1587    0.3098 C.ar    1  LIG1        0.0946
      2 C          -2.5042   -1.9449   -0.0363 C.ar    1  LIG1       -0.0300
      3 C          -2.1359   -0.6565   -0.4068 C.ar    1  LIG1       -0.0572
      4 C          -3.0831    0.3646   -0.4029 C.ar    1  LIG1       -0.0355
      5 C          -4.3999    0.0688   -0.0154 C.ar    1  LIG1        0.0748
      6 N          -4.7569   -1.1857    0.3197 N.ar    1  LIG1       -0.2406
      7 H          -1.1129   -0.4497   -0.7068 H       1  LIG1        0.0619
      8 H          -1.7835   -2.7546   -0.0272 H       1  LIG1        0.0644
      9 S          -4.4956   -3.7498    0.7923 S.3     1  LIG1       -0.1234
     10 H          -3.3694   -4.4536    0.5640 H       1  LIG1        0.1086
     11 H          -2.8135    1.3641   -0.7214 H       1  LIG1        0.0639
     12 C          -6.8088    0.9974   -0.2578 C.ar    1  LIG1        0.1038
     13 C          -5.4265    1.1433    0.0412 C.ar    1  LIG1        0.0320
     14 C          -5.0223    2.4364    0.4090 C.ar    1  LIG1       -0.0480
     15 C          -5.9049    3.5049    0.4152 C.ar    1  LIG1       -0.0349
     16 C          -7.2359    3.2792    0.0281 C.ar    1  LIG1        0.0748
     17 N          -7.6477    2.0386   -0.2746 N.ar    1  LIG1       -0.2400
     18 H          -3.9966    2.5971    0.7252 H       1  LIG1        0.0626
     19 S          -7.6278   -0.5170   -0.7005 S.3     1  LIG1       -0.1227
     20 H          -6.6342   -1.3211   -0.2484 H       1  LIG1        0.1086
     21 H          -5.5766    4.4824    0.7466 H       1  LIG1        0.0639
     22 C          -9.6043    4.3193    0.2119 C.ar    1  LIG1        0.1038
     23 C          -8.2068    4.4004   -0.0432 C.ar    1  LIG1        0.0320
     24 C          -7.7291    5.6772   -0.3814 C.ar    1  LIG1       -0.0480
     25 C          -8.5572    6.7874   -0.3990 C.ar    1  LIG1       -0.0349
     26 C          -9.9087    6.6236   -0.0511 C.ar    1  LIG1        0.0748
     27 N         -10.3902    5.4020    0.2209 N.ar    1  LIG1       -0.2400
     28 H          -6.6882    5.7912   -0.6668 H       1  LIG1        0.0626
     29 S         -10.5116    2.8424    0.5989 S.3     1  LIG1       -0.1227
     30 H          -9.5262    1.9972    0.1994 H       1  LIG1        0.1086
     31 H          -8.1726    7.7514   -0.7086 H       1  LIG1        0.0639
     32 C         -12.2110    7.7932   -0.3126 C.ar    1  LIG1        0.1031
     33 C         -10.8230    7.7943    0.0132 C.ar    1  LIG1        0.0320
     34 C         -10.2809    9.0308    0.4011 C.ar    1  LIG1       -0.0486
     35 C         -11.0525   10.1853    0.4156 C.ar    1  LIG1       -0.0429
     36 C         -12.3836   10.0716    0.0201 C.ar    1  LIG1        0.0289
     37 N         -12.9459    8.9142   -0.3245 N.ar    1  LIG1       -0.2483
     38 H          -9.2421    9.0757    0.7125 H       1  LIG1        0.0625
     39 H         -13.0335   10.9443   -0.0112 H       1  LIG1        0.0830
     40 S         -13.1722    6.3774   -0.7923 S.3     1  LIG1       -0.1228
     41 H         -12.2522    5.4632   -0.3973 H       1  LIG1        0.1086
     42 H         -10.6380   11.1391    0.7235 H       1  LIG1        0.0633
@<TRIPOS>BOND
     1    40    41    1
     2    40    32    1
     3    11     4    1
     4    31    25    1
     5     7     3    1
     6    19    12    1
     7    19    20    1
     8    28    24    1
     9     3     4   ar
    10     3     2   ar
    11     4     5   ar
    12    25    24   ar
    13    25    26   ar
    14    24    23   ar
    15    37    32   ar
    16    37    36   ar
    17    32    33   ar
    18    17    12   ar
    19    17    16   ar
    20    12    13   ar
    21    26    33    1
    22    26    27   ar
    23    23    16    1
    24    23    22   ar
    25     2     8    1
    26     2     1   ar
    27     5    13    1
    28     5     6   ar
    29    39    36    1
    30    33    34   ar
    31    36    35   ar
    32    16    15   ar
    33    13    14   ar
    34    30    29    1
    35    22    27   ar
    36    22    29    1
    37     1     6   ar
    38     1     9    1
    39    34    35   ar
    40    34    38    1
    41    14    15   ar
    42    14    18    1
    43    15    21    1
    44    35    42    1
    45    10     9    1
