@<TRIPOS>MOLECULE
mol_data/opt/b3lyp/geoms/mol2/6ga6ga-6ga6ga-.out
 42 45 0 0 0
SMALL
GASTEIGER

@<TRIPOS>ATOM
      1 C          -3.8450   -2.1581    0.3099 C.ar    1  LIG1        0.0946
      2 C          -2.5030   -1.9434   -0.0315 C.ar    1  LIG1       -0.0300
      3 C          -2.1339   -0.6544   -0.3993 C.ar    1  LIG1       -0.0572
      4 C          -3.0815    0.3663   -0.3972 C.ar    1  LIG1       -0.0355
      5 C          -4.3994    0.0695   -0.0142 C.ar    1  LIG1        0.0748
      6 N          -4.7571   -1.1855    0.3181 N.ar    1  LIG1       -0.2406
      7 H          -1.1100   -0.4469   -0.6957 H       1  LIG1        0.0619
      8 H          -1.7819   -2.7528   -0.0210 H       1  LIG1        0.0644
      9 S          -4.4964   -3.7501    0.7883 S.3     1  LIG1       -0.1234
     10 H          -3.3695   -4.4533    0.5616 H       1  LIG1        0.1086
     11 H          -2.8113    1.3663   -0.7137 H       1  LIG1        0.0639
     12 C          -6.8077    0.9976   -0.2633 C.ar    1  LIG1        0.1038
     13 C          -5.4265    1.1436    0.0404 C.ar    1  LIG1        0.0320
     14 C          -5.0237    2.4364    0.4110 C.ar    1  LIG1       -0.0480
     15 C          -5.9065    3.5046    0.4153 C.ar    1  LIG1       -0.0349
     16 C          -7.2361    3.2790    0.0235 C.ar    1  LIG1        0.0748
     17 N          -7.6468    2.0387   -0.2818 N.ar    1  LIG1       -0.2400
     18 H          -3.9990    2.5968    0.7308 H       1  LIG1        0.0626
     19 S          -7.6252   -0.5164   -0.7098 S.3     1  LIG1       -0.1227
     20 H          -6.6323   -1.3208   -0.2564 H       1  LIG1        0.1086
     21 H          -5.5795    4.4818    0.7489 H       1  LIG1        0.0639
     22 C          -9.6051    4.3186    0.2012 C.ar    1  LIG1        0.1038
     23 C          -8.2069    4.4001   -0.0498 C.ar    1  LIG1        0.0320
     24 C          -7.7283    5.6772   -0.3853 C.ar    1  LIG1       -0.0480
     25 C          -8.5565    6.7874   -0.4041 C.ar    1  LIG1       -0.0349
     26 C          -9.9090    6.6231   -0.0603 C.ar    1  LIG1        0.0748
     27 N         -10.3912    5.4012    0.2090 N.ar    1  LIG1       -0.2400
     28 H          -6.6865    5.7916   -0.6674 H       1  LIG1        0.0626
     29 S         -10.5134    2.8411    0.5837 S.3     1  LIG1       -0.1227
     30 H          -9.5266    1.9965    0.1864 H       1  LIG1        0.1086
     31 H          -8.1711    7.7518   -0.7115 H       1  LIG1        0.0639
     32 C         -12.2107    7.7926   -0.3271 C.ar    1  LIG1        0.1031
     33 C         -10.8236    7.7936    0.0027 C.ar    1  LIG1        0.0320
     34 C         -10.2827    9.0298    0.3931 C.ar    1  LIG1       -0.0486
     35 C         -11.0545   10.1842    0.4065 C.ar    1  LIG1       -0.0429
     36 C         -12.3845   10.0707    0.0072 C.ar    1  LIG1        0.0289
     37 N         -12.9457    8.9135   -0.3400 N.ar    1  LIG1       -0.2483
     38 H          -9.2447    9.0746    0.7072 H       1  LIG1        0.0625
     39 H         -13.0345   10.9433   -0.0251 H       1  LIG1        0.0830
     40 S         -13.1704    6.3772   -0.8107 S.3     1  LIG1       -0.1228
     41 H         -12.2511    5.4627   -0.4146 H       1  LIG1        0.1086
     42 H         -10.6409   11.1377    0.7162 H       1  LIG1        0.0633
@<TRIPOS>BOND
     1    40    41    1
     2    40    32    1
     3    11     4    1
     4    31    25    1
     5    19    12    1
     6    19    20    1
     7     7     3    1
     8    28    24    1
     9    25    24   ar
    10    25    26   ar
    11     3     4   ar
    12     3     2   ar
    13     4     5   ar
    14    24    23   ar
    15    37    32   ar
    16    37    36   ar
    17    32    33   ar
    18    17    12   ar
    19    17    16   ar
    20    12    13   ar
    21    26    33    1
    22    26    27   ar
    23    23    16    1
    24    23    22   ar
    25     2     8    1
    26     2     1   ar
    27    39    36    1
    28     5    13    1
    29     5     6   ar
    30    33    34   ar
    31    36    35   ar
    32    16    15   ar
    33    13    14   ar
    34    30    29    1
    35    22    27   ar
    36    22    29    1
    37     1     6   ar
    38     1     9    1
    39    34    35   ar
    40    34    38    1
    41    35    42    1
    42    14    15   ar
    43    14    18    1
    44    15    21    1
    45    10     9    1
