@<TRIPOS>MOLECULE
mol_data/opt/b3lyp/geoms/mol2/6gd.out
 13 13 0 0 0
SMALL
GASTEIGER

@<TRIPOS>ATOM
      1 C          -4.5461   -2.0023    0.0001 C.ar    1  LIG1        0.0940
      2 C          -3.1401   -2.0003   -0.0000 C.ar    1  LIG1       -0.0288
      3 C          -2.4852   -0.7794   -0.0002 C.ar    1  LIG1       -0.0404
      4 C          -3.2435    0.4039   -0.0003 C.ar    1  LIG1        0.0699
      5 C          -4.6433    0.2861   -0.0002 C.ar    1  LIG1        0.0462
      6 N          -5.2787   -0.8830   -0.0000 N.ar    1  LIG1       -0.2477
      7 H          -1.4014   -0.7318   -0.0002 H       1  LIG1        0.0632
      8 H          -2.5773   -2.9268    0.0001 H       1  LIG1        0.0644
      9 H          -5.2651    1.1779   -0.0003 H       1  LIG1        0.0843
     10 S          -5.5240   -3.4876    0.0003 S.3     1  LIG1       -0.1234
     11 H          -4.4914   -4.3544    0.0003 H       1  LIG1        0.1086
     12 N          -2.1144    2.7386   -0.0006 N.1     1  LIG1       -0.1908
     13 C          -2.6197    1.6904   -0.0004 C.1     1  LIG1        0.1007
@<TRIPOS>BOND
     1    12    13    3
     2    13     4    1
     3     4     5   ar
     4     4     3   ar
     5     9     5    1
     6     7     3    1
     7     5     6   ar
     8     3     2   ar
     9     6     1   ar
    10     2     1   ar
    11     2     8    1
    12     1    10    1
    13    10    11    1
