@<TRIPOS>MOLECULE
mol_data/opt/b3lyp/geoms/mol2/6gd6gd-6gd.out
 35 37 0 0 0
SMALL
GASTEIGER

@<TRIPOS>ATOM
      1 C          -4.1636   -2.1472    0.2553 C.ar    1  LIG1        0.0947
      2 C          -2.8003   -2.0496   -0.0670 C.ar    1  LIG1       -0.0288
      3 C          -2.3106   -0.8051   -0.4191 C.ar    1  LIG1       -0.0398
      4 C          -3.1622    0.3147   -0.4189 C.ar    1  LIG1        0.0778
      5 C          -4.5140    0.1301   -0.0378 C.ar    1  LIG1        0.0921
      6 N          -4.9783   -1.0893    0.2673 N.ar    1  LIG1       -0.2393
      7 H          -1.2715   -0.6821   -0.7056 H       1  LIG1        0.0632
      8 H          -2.1523   -2.9182   -0.0565 H       1  LIG1        0.0644
      9 S          -4.9691   -3.6680    0.6924 S.3     1  LIG1       -0.1234
     10 H          -3.9060   -4.4707    0.4880 H       1  LIG1        0.1086
     11 N          -2.1788    2.5815   -1.2073 N.1     1  LIG1       -0.1908
     12 C          -2.6396    1.5757   -0.8468 C.1     1  LIG1        0.1013
     13 C          -6.8033    1.2569   -0.4376 C.ar    1  LIG1        0.1039
     14 C          -5.4680    1.2692    0.0529 C.ar    1  LIG1        0.0345
     15 C          -5.0583    2.4473    0.6775 C.ar    1  LIG1       -0.0305
     16 C          -5.8893    3.5726    0.7442 C.ar    1  LIG1        0.0785
     17 C          -7.1576    3.5012    0.1173 C.ar    1  LIG1        0.0921
     18 N          -7.5721    2.3499   -0.4186 N.ar    1  LIG1       -0.2387
     19 H          -4.0807    2.5021    1.1422 H       1  LIG1        0.0638
     20 S          -7.6350   -0.1208   -1.1786 S.3     1  LIG1       -0.1227
     21 H          -6.7931   -1.0581   -0.6897 H       1  LIG1        0.1086
     22 N          -5.0440    5.6170    2.0982 N.1     1  LIG1       -0.1908
     23 C          -5.4393    4.7144    1.4797 C.1     1  LIG1        0.1013
     24 C          -9.4724    4.6351    0.2719 C.ar    1  LIG1        0.1032
     25 C          -8.0679    4.6742    0.0292 C.ar    1  LIG1        0.0345
     26 C          -7.5217    5.9145   -0.3138 C.ar    1  LIG1       -0.0311
     27 C          -8.3246    7.0588   -0.3646 C.ar    1  LIG1        0.0705
     28 C          -9.6814    6.9131   -0.0340 C.ar    1  LIG1        0.0462
     29 N         -10.2283    5.7427    0.2645 N.ar    1  LIG1       -0.2471
     30 H          -6.4678    5.9982   -0.5522 H       1  LIG1        0.0638
     31 H         -10.3404    7.7778   -0.0253 H       1  LIG1        0.0843
     32 S         -10.4307    3.1992    0.6699 S.3     1  LIG1       -0.1228
     33 H          -9.5119    2.2979    0.2610 H       1  LIG1        0.1086
     34 N          -7.3748    9.3738   -1.0443 N.1     1  LIG1       -0.1908
     35 C          -7.7926    8.3326   -0.7366 C.1     1  LIG1        0.1007
@<TRIPOS>BOND
     1    11    12    3
     2    20    21    1
     3    20    13    1
     4    34    35    3
     5    12     4    1
     6    35    27    1
     7     7     3    1
     8    30    26    1
     9    13    18   ar
    10    13    14   ar
    11     3     4   ar
    12     3     2   ar
    13     4     5   ar
    14    18    17   ar
    15    27    26   ar
    16    27    28   ar
    17    26    25   ar
    18     2     8    1
    19     2     1   ar
    20     5    14    1
    21     5     6   ar
    22    28    31    1
    23    28    29   ar
    24    25    17    1
    25    25    24   ar
    26    14    15   ar
    27    17    16   ar
    28     1     6   ar
    29     1     9    1
    30    33    32    1
    31    29    24   ar
    32    24    32    1
    33    10     9    1
    34    15    16   ar
    35    15    19    1
    36    16    23    1
    37    23    22    3
