@<TRIPOS>MOLECULE
mol_data/opt/b3lyp/geoms/mol2/6gd6gd-6gd6gd.out
 46 49 0 0 0
SMALL
GASTEIGER

@<TRIPOS>ATOM
      1 C          -3.8893   -2.1429    0.4885 C.ar    1  LIG1        0.0947
      2 C          -2.5602   -2.0126    0.0539 C.ar    1  LIG1       -0.0288
      3 C          -2.1636   -0.7849   -0.4442 C.ar    1  LIG1       -0.0398
      4 C          -3.0708    0.2900   -0.4774 C.ar    1  LIG1        0.0778
      5 C          -4.3793    0.0790    0.0217 C.ar    1  LIG1        0.0921
      6 N          -4.7556   -1.1266    0.4688 N.ar    1  LIG1       -0.2393
      7 H          -1.1561   -0.6415   -0.8201 H       1  LIG1        0.0632
      8 H          -1.8682   -2.8457    0.0911 H       1  LIG1        0.0644
      9 S          -4.5791   -3.6512    1.1203 S.3     1  LIG1       -0.1234
     10 H          -3.4933   -4.4200    0.9063 H       1  LIG1        0.1086
     11 N          -2.2719    2.5202   -1.5337 N.1     1  LIG1       -0.1908
     12 C          -2.6487    1.5297   -1.0531 C.1     1  LIG1        0.1013
     13 C          -6.7492    1.0540   -0.2975 C.ar    1  LIG1        0.1039
     14 C          -5.3839    1.1764    0.0832 C.ar    1  LIG1        0.0345
     15 C          -4.9924    2.4268    0.5616 C.ar    1  LIG1       -0.0305
     16 C          -5.8742    3.5147    0.5868 C.ar    1  LIG1        0.0785
     17 C          -7.1790    3.3245    0.0699 C.ar    1  LIG1        0.0921
     18 N          -7.5707    2.1086   -0.3210 N.ar    1  LIG1       -0.2387
     19 H          -3.9877    2.5709    0.9412 H       1  LIG1        0.0638
     20 S          -7.5577   -0.4264   -0.8367 S.3     1  LIG1       -0.1227
     21 H          -6.6346   -1.2690   -0.3211 H       1  LIG1        0.1086
     22 N          -5.0537    5.7228    1.6726 N.1     1  LIG1       -0.1908
     23 C          -5.4356    4.7429    1.1749 C.1     1  LIG1        0.1013
     24 C          -9.5406    4.3540    0.2554 C.ar    1  LIG1        0.1039
     25 C          -8.1534    4.4399   -0.0539 C.ar    1  LIG1        0.0345
     26 C          -7.7078    5.6765   -0.5240 C.ar    1  LIG1       -0.0305
     27 C          -8.5606    6.7836   -0.6066 C.ar    1  LIG1        0.0785
     28 C          -9.8947    6.6306   -0.1534 C.ar    1  LIG1        0.0921
     29 N         -10.3352    5.4291    0.2279 N.ar    1  LIG1       -0.2387
     30 H          -6.6823    5.7922   -0.8548 H       1  LIG1        0.0638
     31 S         -10.4173    2.9016    0.7608 S.3     1  LIG1       -0.1227
     32 H          -9.4769    2.0300    0.3284 H       1  LIG1        0.1086
     33 N          -7.6267    8.9546   -1.6755 N.1     1  LIG1       -0.1908
     34 C          -8.0619    7.9930   -1.1861 C.1     1  LIG1        0.1013
     35 C         -12.2111    7.7217   -0.4924 C.ar    1  LIG1        0.1032
     36 C         -10.8460    7.7718   -0.0828 C.ar    1  LIG1        0.0345
     37 C         -10.3834    8.9914    0.4205 C.ar    1  LIG1       -0.0311
     38 C         -11.2226   10.1095    0.4666 C.ar    1  LIG1        0.0705
     39 C         -12.5264    9.9616   -0.0332 C.ar    1  LIG1        0.0462
     40 N         -12.9975    8.8082   -0.4864 N.ar    1  LIG1       -0.2471
     41 H          -9.3678    9.0784    0.7885 H       1  LIG1        0.0638
     42 H         -13.2070   10.8093   -0.0511 H       1  LIG1        0.0843
     43 S         -13.0711    6.3032   -1.1132 S.3     1  LIG1       -0.1228
     44 H         -12.1768    5.3922   -0.6716 H       1  LIG1        0.1086
     45 N         -10.4341   12.3811    1.4368 N.1     1  LIG1       -0.1908
     46 C         -10.7788   11.3597    0.9996 C.1     1  LIG1        0.1007
@<TRIPOS>BOND
     1    33    34    3
     2    11    12    3
     3    34    27    1
     4    43    44    1
     5    43    35    1
     6    12     4    1
     7    30    26    1
     8    20    21    1
     9    20    13    1
    10     7     3    1
    11    27    26   ar
    12    27    28   ar
    13    26    25   ar
    14    35    40   ar
    15    35    36   ar
    16    40    39   ar
    17     4     3   ar
    18     4     5   ar
    19     3     2   ar
    20    18    13   ar
    21    18    17   ar
    22    13    14   ar
    23    28    36    1
    24    28    29   ar
    25    36    37   ar
    26    25    17    1
    27    25    24   ar
    28    42    39    1
    29    39    38   ar
    30     5    14    1
    31     5     6   ar
    32     2     8    1
    33     2     1   ar
    34    17    16   ar
    35    14    15   ar
    36    29    24   ar
    37    24    31    1
    38    32    31    1
    39    37    38   ar
    40    37    41    1
    41    38    46    1
    42     6     1   ar
    43     1     9    1
    44    15    16   ar
    45    15    19    1
    46    16    23    1
    47    10     9    1
    48    46    45    3
    49    23    22    3
