@<TRIPOS>MOLECULE
mol_data/opt/b3lyp/geoms/mol2/6gd6gd-6gd6gd-.out
 46 49 0 0 0
SMALL
GASTEIGER

@<TRIPOS>ATOM
      1 C          -3.9017   -2.1504    0.4832 C.ar    1  LIG1        0.0947
      2 C          -2.5653   -2.0165    0.0724 C.ar    1  LIG1       -0.0288
      3 C          -2.1596   -0.7839   -0.4057 C.ar    1  LIG1       -0.0398
      4 C          -3.0654    0.2921   -0.4426 C.ar    1  LIG1        0.0778
      5 C          -4.3822    0.0768    0.0319 C.ar    1  LIG1        0.0921
      6 N          -4.7668   -1.1332    0.4597 N.ar    1  LIG1       -0.2393
      7 H          -1.1459   -0.6374   -0.7630 H       1  LIG1        0.0632
      8 H          -1.8747   -2.8506    0.1123 H       1  LIG1        0.0644
      9 S          -4.6030   -3.6647    1.0874 S.3     1  LIG1       -0.1234
     10 H          -3.5142   -4.4321    0.8835 H       1  LIG1        0.1086
     11 N          -2.2469    2.5327   -1.4610 N.1     1  LIG1       -0.1908
     12 C          -2.6326    1.5374   -0.9977 C.1     1  LIG1        0.1013
     13 C          -6.7460    1.0567   -0.3168 C.ar    1  LIG1        0.1039
     14 C          -5.3872    1.1742    0.0880 C.ar    1  LIG1        0.0345
     15 C          -5.0033    2.4193    0.5862 C.ar    1  LIG1       -0.0305
     16 C          -5.8849    3.5074    0.6081 C.ar    1  LIG1        0.0785
     17 C          -7.1809    3.3233    0.0674 C.ar    1  LIG1        0.0921
     18 N          -7.5666    2.1119   -0.3428 N.ar    1  LIG1       -0.2387
     19 H          -4.0050    2.5588    0.9841 H       1  LIG1        0.0638
     20 S          -7.5457   -0.4174   -0.8857 S.3     1  LIG1       -0.1227
     21 H          -6.6325   -1.2659   -0.3623 H       1  LIG1        0.1086
     22 N          -5.0825    5.7031    1.7317 N.1     1  LIG1       -0.1908
     23 C          -5.4561    4.7288    1.2169 C.1     1  LIG1        0.1013
     24 C          -9.5449    4.3528    0.2238 C.ar    1  LIG1        0.1039
     25 C          -8.1525    4.4407   -0.0608 C.ar    1  LIG1        0.0345
     26 C          -7.6980    5.6819   -0.5101 C.ar    1  LIG1       -0.0305
     27 C          -8.5484    6.7905   -0.5955 C.ar    1  LIG1        0.0785
     28 C          -9.8902    6.6340   -0.1668 C.ar    1  LIG1        0.0921
     29 N         -10.3380    5.4288    0.1941 N.ar    1  LIG1       -0.2387
     30 H          -6.6669    5.8001   -0.8222 H       1  LIG1        0.0638
     31 S         -10.4310    2.8959    0.6986 S.3     1  LIG1       -0.1227
     32 H          -9.4839    2.0283    0.2729 H       1  LIG1        0.1086
     33 N          -7.5947    8.9720   -1.6249 N.1     1  LIG1       -0.1908
     34 C          -8.0390    8.0056   -1.1533 C.1     1  LIG1        0.1013
     35 C         -12.1996    7.7306   -0.5339 C.ar    1  LIG1        0.1032
     36 C         -10.8418    7.7751   -0.1003 C.ar    1  LIG1        0.0345
     37 C         -10.3872    8.9890    0.4238 C.ar    1  LIG1       -0.0311
     38 C         -11.2263   10.1072    0.4674 C.ar    1  LIG1        0.0705
     39 C         -12.5213    9.9657   -0.0563 C.ar    1  LIG1        0.0462
     40 N         -12.9853    8.8175   -0.5299 N.ar    1  LIG1       -0.2471
     41 H          -9.3780    9.0712    0.8101 H       1  LIG1        0.0638
     42 H         -13.2010   10.8140   -0.0770 H       1  LIG1        0.0843
     43 S         -13.0497    6.3194   -1.1846 S.3     1  LIG1       -0.1228
     44 H         -12.1638    5.4030   -0.7373 H       1  LIG1        0.1086
     45 N         -10.4533   12.3677    1.4753 N.1     1  LIG1       -0.1908
     46 C         -10.7911   11.3512    1.0213 C.1     1  LIG1        0.1007
@<TRIPOS>BOND
     1    33    34    3
     2    11    12    3
     3    43    44    1
     4    43    35    1
     5    34    27    1
     6    12     4    1
     7    20    21    1
     8    20    13    1
     9    30    26    1
    10     7     3    1
    11    27    26   ar
    12    27    28   ar
    13    35    40   ar
    14    35    36   ar
    15    40    39   ar
    16    26    25   ar
    17     4     3   ar
    18     4     5   ar
    19     3     2   ar
    20    18    13   ar
    21    18    17   ar
    22    13    14   ar
    23    28    36    1
    24    28    29   ar
    25    36    37   ar
    26    42    39    1
    27    25    17    1
    28    25    24   ar
    29    39    38   ar
    30     5    14    1
    31     5     6   ar
    32    17    16   ar
    33     2     8    1
    34     2     1   ar
    35    14    15   ar
    36    29    24   ar
    37    24    31    1
    38    32    31    1
    39    37    38   ar
    40    37    41    1
    41     6     1   ar
    42    38    46    1
    43     1     9    1
    44    15    16   ar
    45    15    19    1
    46    16    23    1
    47    10     9    1
    48    46    45    3
    49    23    22    3
