@<TRIPOS>MOLECULE
mol_data/opt/b3lyp/geoms/mol2/6gd6gd-6gd-.out
 35 37 0 0 0
SMALL
GASTEIGER

@<TRIPOS>ATOM
      1 C          -4.1637   -2.1475    0.2569 C.ar    1  LIG1        0.0947
      2 C          -2.7981   -2.0482   -0.0551 C.ar    1  LIG1       -0.0288
      3 C          -2.3066   -0.8023   -0.3999 C.ar    1  LIG1       -0.0398
      4 C          -3.1589    0.3170   -0.4027 C.ar    1  LIG1        0.0778
      5 C          -4.5133    0.1305   -0.0317 C.ar    1  LIG1        0.0921
      6 N          -4.9790   -1.0900    0.2663 N.ar    1  LIG1       -0.2393
      7 H          -1.2656   -0.6780   -0.6786 H       1  LIG1        0.0632
      8 H          -2.1497   -2.9164   -0.0424 H       1  LIG1        0.0644
      9 S          -4.9715   -3.6698    0.6833 S.3     1  LIG1       -0.1234
     10 H          -3.9063   -4.4713    0.4852 H       1  LIG1        0.1086
     11 N          -2.1706    2.5862   -1.1780 N.1     1  LIG1       -0.1908
     12 C          -2.6338    1.5794   -0.8234 C.1     1  LIG1        0.1013
     13 C          -6.8006    1.2572   -0.4438 C.ar    1  LIG1        0.1039
     14 C          -5.4685    1.2689    0.0554 C.ar    1  LIG1        0.0345
     15 C          -5.0635    2.4457    0.6856 C.ar    1  LIG1       -0.0305
     16 C          -5.8952    3.5706    0.7494 C.ar    1  LIG1        0.0785
     17 C          -7.1592    3.5003    0.1136 C.ar    1  LIG1        0.0921
     18 N          -7.5698    2.3501   -0.4275 N.ar    1  LIG1       -0.2387
     19 H          -4.0891    2.4996    1.1570 H       1  LIG1        0.0638
     20 S          -7.6278   -0.1191   -1.1925 S.3     1  LIG1       -0.1227
     21 H          -6.7870   -1.0569   -0.7029 H       1  LIG1        0.1086
     22 N          -5.0605    5.6122    2.1142 N.1     1  LIG1       -0.1908
     23 C          -5.4508    4.7108    1.4906 C.1     1  LIG1        0.1013
     24 C          -9.4750    4.6339    0.2554 C.ar    1  LIG1        0.1032
     25 C          -8.0689    4.6734    0.0221 C.ar    1  LIG1        0.0345
     26 C          -7.5204    5.9143   -0.3151 C.ar    1  LIG1       -0.0311
     27 C          -8.3229    7.0588   -0.3691 C.ar    1  LIG1        0.0705
     28 C          -9.6818    6.9125   -0.0478 C.ar    1  LIG1        0.0462
     29 N         -10.2308    5.7417    0.2450 N.ar    1  LIG1       -0.2471
     30 H          -6.4649    5.9983   -0.5465 H       1  LIG1        0.0638
     31 H         -10.3409    7.7772   -0.0420 H       1  LIG1        0.0843
     32 S         -10.4357    3.1975    0.6447 S.3     1  LIG1       -0.1228
     33 H          -9.5144    2.2970    0.2395 H       1  LIG1        0.1086
     34 N          -7.3684    9.3749   -1.0383 N.1     1  LIG1       -0.1908
     35 C          -7.7884    8.3332   -0.7353 C.1     1  LIG1        0.1007
@<TRIPOS>BOND
     1    20    21    1
     2    20    13    1
     3    11    12    3
     4    34    35    3
     5    12     4    1
     6    35    27    1
     7     7     3    1
     8    30    26    1
     9    13    18   ar
    10    13    14   ar
    11    18    17   ar
    12     4     3   ar
    13     4     5   ar
    14     3     2   ar
    15    27    26   ar
    16    27    28   ar
    17    26    25   ar
    18     2     8    1
    19     2     1   ar
    20    28    31    1
    21    28    29   ar
    22     5    14    1
    23     5     6   ar
    24    25    17    1
    25    25    24   ar
    26    14    15   ar
    27    17    16   ar
    28    33    32    1
    29    29    24   ar
    30    24    32    1
    31     1     6   ar
    32     1     9    1
    33    10     9    1
    34    15    16   ar
    35    15    19    1
    36    16    23    1
    37    23    22    3
