@<TRIPOS>MOLECULE
mol_data/opt/b3lyp/geoms/mol2/6gd6gd6gd6gd-.out
 46 49 0 0 0
SMALL
GASTEIGER

@<TRIPOS>ATOM
      1 C          -3.9128   -2.1574    0.4774 C.ar    1  LIG1        0.0947
      2 C          -2.5744   -2.0239    0.0731 C.ar    1  LIG1       -0.0288
      3 C          -2.1648   -0.7901   -0.3984 C.ar    1  LIG1       -0.0398
      4 C          -3.0688    0.2874   -0.4352 C.ar    1  LIG1        0.0778
      5 C          -4.3881    0.0722    0.0327 C.ar    1  LIG1        0.0921
      6 N          -4.7764   -1.1388    0.4541 N.ar    1  LIG1       -0.2393
      7 H          -1.1492   -0.6437   -0.7506 H       1  LIG1        0.0632
      8 H          -1.8852   -2.8592    0.1130 H       1  LIG1        0.0644
      9 S          -4.6192   -3.6730    1.0722 S.3     1  LIG1       -0.1234
     10 H          -3.5307   -4.4413    0.8702 H       1  LIG1        0.1086
     11 N          -2.2427    2.5307   -1.4416 N.1     1  LIG1       -0.1908
     12 C          -2.6319    1.5342   -0.9837 C.1     1  LIG1        0.1013
     13 C          -6.7487    1.0573   -0.3226 C.ar    1  LIG1        0.1039
     14 C          -5.3916    1.1710    0.0888 C.ar    1  LIG1        0.0345
     15 C          -5.0080    2.4134    0.5938 C.ar    1  LIG1       -0.0305
     16 C          -5.8879    3.5028    0.6162 C.ar    1  LIG1        0.0785
     17 C          -7.1818    3.3230    0.0689 C.ar    1  LIG1        0.0921
     18 N          -7.5675    2.1139   -0.3481 N.ar    1  LIG1       -0.2387
     19 H          -4.0113    2.5497    0.9967 H       1  LIG1        0.0638
     20 S          -7.5482   -0.4132   -0.9010 S.3     1  LIG1       -0.1227
     21 H          -6.6384   -1.2654   -0.3775 H       1  LIG1        0.1086
     22 N          -5.0865    5.6927    1.7518 N.1     1  LIG1       -0.1908
     23 C          -5.4597    4.7211    1.2316 C.1     1  LIG1        0.1013
     24 C          -9.5450    4.3550    0.2191 C.ar    1  LIG1        0.1039
     25 C          -8.1513    4.4423   -0.0591 C.ar    1  LIG1        0.0345
     26 C          -7.6932    5.6848   -0.5011 C.ar    1  LIG1       -0.0305
     27 C          -8.5419    6.7949   -0.5854 C.ar    1  LIG1        0.0785
     28 C          -9.8857    6.6383   -0.1632 C.ar    1  LIG1        0.0921
     29 N         -10.3366    5.4322    0.1906 N.ar    1  LIG1       -0.2387
     30 H          -6.6606    5.8030   -0.8081 H       1  LIG1        0.0638
     31 S         -10.4352    2.8973    0.6838 S.3     1  LIG1       -0.1227
     32 H          -9.4872    2.0301    0.2589 H       1  LIG1        0.1086
     33 N          -7.5811    8.9796   -1.6013 N.1     1  LIG1       -0.1908
     34 C          -8.0285    8.0117   -1.1358 C.1     1  LIG1        0.1013
     35 C         -12.1919    7.7398   -0.5359 C.ar    1  LIG1        0.1032
     36 C         -10.8360    7.7805   -0.0960 C.ar    1  LIG1        0.0345
     37 C         -10.3820    8.9913    0.4356 C.ar    1  LIG1       -0.0311
     38 C         -11.2197   10.1105    0.4803 C.ar    1  LIG1        0.0705
     39 C         -12.5126    9.9732   -0.0498 C.ar    1  LIG1        0.0462
     40 N         -12.9761    8.8279   -0.5305 N.ar    1  LIG1       -0.2471
     41 H          -9.3744    9.0704    0.8267 H       1  LIG1        0.0638
     42 H         -13.1909   10.8227   -0.0697 H       1  LIG1        0.0843
     43 S         -13.0411    6.3327   -1.1965 S.3     1  LIG1       -0.1228
     44 H         -12.1585    5.4131   -0.7493 H       1  LIG1        0.1086
     45 N         -10.4479   12.3654    1.5016 N.1     1  LIG1       -0.1908
     46 C         -10.7851   11.3515    1.0416 C.1     1  LIG1        0.1007
@<TRIPOS>BOND
     1    33    34    3
     2    11    12    3
     3    43    44    1
     4    43    35    1
     5    34    27    1
     6    12     4    1
     7    20    21    1
     8    20    13    1
     9    30    26    1
    10     7     3    1
    11    27    26   ar
    12    27    28   ar
    13    35    40   ar
    14    35    36   ar
    15    40    39   ar
    16    26    25   ar
    17     4     3   ar
    18     4     5   ar
    19     3     2   ar
    20    18    13   ar
    21    18    17   ar
    22    13    14   ar
    23    28    36    1
    24    28    29   ar
    25    36    37   ar
    26    42    39    1
    27    25    17    1
    28    25    24   ar
    29    39    38   ar
    30     5    14    1
    31     5     6   ar
    32    17    16   ar
    33     2     8    1
    34     2     1   ar
    35    14    15   ar
    36    29    24   ar
    37    24    31    1
    38    32    31    1
    39    37    38   ar
    40    37    41    1
    41     6     1   ar
    42     1     9    1
    43    38    46    1
    44    15    16   ar
    45    15    19    1
    46    16    23    1
    47    10     9    1
    48    46    45    3
    49    23    22    3
