@<TRIPOS>MOLECULE
mol_data/opt/b3lyp/geoms/mol2/6gd6gd6gd.out
 35 37 0 0 0
SMALL
GASTEIGER

@<TRIPOS>ATOM
      1 C          -4.2895   -2.2051   -0.0070 C.ar    1  LIG1        0.0947
      2 C          -2.8904   -2.2017   -0.0033 C.ar    1  LIG1       -0.0288
      3 C          -2.2738   -0.9657    0.0027 C.ar    1  LIG1       -0.0398
      4 C          -3.0216    0.2271    0.0046 C.ar    1  LIG1        0.0778
      5 C          -4.4488    0.1450   -0.0003 C.ar    1  LIG1        0.0921
      6 N          -5.0030   -1.0811   -0.0054 N.ar    1  LIG1       -0.2393
      7 H          -1.1913   -0.8960    0.0064 H       1  LIG1        0.0632
      8 H          -2.3118   -3.1174   -0.0047 H       1  LIG1        0.0644
      9 S          -5.2713   -3.6870   -0.0143 S.3     1  LIG1       -0.1234
     10 H          -4.2395   -4.5527   -0.0136 H       1  LIG1        0.1086
     11 N          -1.4724    2.3049    0.0195 N.1     1  LIG1       -0.1908
     12 C          -2.2193    1.4116    0.0126 C.1     1  LIG1        0.1013
     13 C          -6.8180    1.2426    0.0005 C.ar    1  LIG1        0.1039
     14 C          -5.3858    1.3073   -0.0001 C.ar    1  LIG1        0.0345
     15 C          -4.8924    2.6178   -0.0007 C.ar    1  LIG1       -0.0305
     16 C          -5.6929    3.7638   -0.0003 C.ar    1  LIG1        0.0785
     17 C          -7.1132    3.6048    0.0007 C.ar    1  LIG1        0.0921
     18 N          -7.5696    2.3495    0.0012 N.ar    1  LIG1       -0.2387
     19 H          -3.8289    2.7972   -0.0016 H       1  LIG1        0.0638
     20 S          -7.8529   -0.1878    0.0006 S.3     1  LIG1       -0.1227
     21 H          -6.8013   -1.0543   -0.0013 H       1  LIG1        0.1086
     22 N          -4.2633    5.9284    0.0008 N.1     1  LIG1       -0.1908
     23 C          -4.9502    4.9882    0.0002 C.1     1  LIG1        0.1013
     24 C          -9.5542    4.5321    0.0077 C.ar    1  LIG1        0.1032
     25 C          -8.1221    4.7051    0.0010 C.ar    1  LIG1        0.0345
     26 C          -7.6857    6.0414   -0.0058 C.ar    1  LIG1       -0.0311
     27 C          -8.5769    7.1141   -0.0055 C.ar    1  LIG1        0.0705
     28 C          -9.9486    6.8180    0.0021 C.ar    1  LIG1        0.0462
     29 N         -10.4024    5.5787    0.0083 N.ar    1  LIG1       -0.2471
     30 H          -6.6341    6.2793   -0.0120 H       1  LIG1        0.0638
     31 H         -10.6889    7.6148    0.0030 H       1  LIG1        0.0843
     32 S         -10.4917    3.0408    0.0165 S.3     1  LIG1       -0.1228
     33 H          -9.4040    2.2285    0.0128 H       1  LIG1        0.1086
     34 N          -7.7722    9.5797   -0.0187 N.1     1  LIG1       -0.1908
     35 C          -8.1193    8.4694   -0.0128 C.1     1  LIG1        0.1007
@<TRIPOS>BOND
     1    34    35    3
     2     9    10    1
     3     9     1    1
     4    35    27    1
     5    30    26    1
     6     1     6   ar
     7     1     2   ar
     8    26    27   ar
     9    26    25   ar
    10    27    28   ar
    11     6     5   ar
    12     8     2    1
    13     2     3   ar
    14    19    15    1
    15    21    20    1
    16    15    16   ar
    17    15    14   ar
    18    16    23    1
    19    16    17   ar
    20     5    14    1
    21     5     4   ar
    22    14    13   ar
    23    23    22    3
    24    13    20    1
    25    13    18   ar
    26    17    25    1
    27    17    18   ar
    28    25    24   ar
    29    28    31    1
    30    28    29   ar
    31     3     4   ar
    32     3     7    1
    33     4    12    1
    34    24    29   ar
    35    24    32    1
    36    12    11    3
    37    33    32    1
