@<TRIPOS>MOLECULE
mol_data/opt/b3lyp/geoms/mol2/6gd6gd.out
 24 25 0 0 0
SMALL
GASTEIGER

@<TRIPOS>ATOM
      1 C          -4.3666   -2.0267   -0.5059 C.ar    1  LIG1        0.0947
      2 C          -3.0067   -2.0480   -0.1569 C.ar    1  LIG1       -0.0288
      3 C          -2.4532   -0.8807    0.3368 C.ar    1  LIG1       -0.0398
      4 C          -3.2390    0.2808    0.4495 C.ar    1  LIG1        0.0778
      5 C          -4.5918    0.2200    0.0333 C.ar    1  LIG1        0.0921
      6 N          -5.1193   -0.9285   -0.4116 N.ar    1  LIG1       -0.2393
      7 H          -1.4145   -0.8517    0.6486 H       1  LIG1        0.0632
      8 H          -2.4103   -2.9476   -0.2546 H       1  LIG1        0.0644
      9 S          -5.2503   -3.4408   -1.1186 S.3     1  LIG1       -0.1234
     10 H          -4.2360   -4.3204   -1.0007 H       1  LIG1        0.1086
     11 N          -2.1286    2.3806    1.4913 N.1     1  LIG1       -0.1908
     12 C          -2.6494    1.4538    1.0181 C.1     1  LIG1        0.1013
     13 C          -6.8044    1.4366    0.5717 C.ar    1  LIG1        0.1032
     14 C          -5.4772    1.4180    0.0551 C.ar    1  LIG1        0.0345
     15 C          -4.9864    2.6187   -0.4633 C.ar    1  LIG1       -0.0311
     16 C          -5.7615    3.7832   -0.4241 C.ar    1  LIG1        0.0705
     17 C          -7.0285    3.6981    0.1740 C.ar    1  LIG1        0.0462
     18 N          -7.5273    2.5627    0.6450 N.ar    1  LIG1       -0.2471
     19 H          -3.9982    2.6563   -0.9068 H       1  LIG1        0.0638
     20 H          -7.6567    4.5813    0.2591 H       1  LIG1        0.0843
     21 S          -7.6863    0.0515    1.2408 S.3     1  LIG1       -0.1228
     22 H          -6.8949   -0.8980    0.7001 H       1  LIG1        0.1086
     23 N          -4.9127    6.0230   -1.4172 N.1     1  LIG1       -0.1908
     24 C          -5.2868    5.0164   -0.9696 C.1     1  LIG1        0.1007
@<TRIPOS>BOND
     1    23    24    3
     2     9    10    1
     3     9     1    1
     4    24    16    1
     5    19    15    1
     6     1     6   ar
     7     1     2   ar
     8    15    16   ar
     9    15    14   ar
    10    16    17   ar
    11     6     5   ar
    12     8     2    1
    13     2     3   ar
    14     5    14    1
    15     5     4   ar
    16    14    13   ar
    17    17    20    1
    18    17    18   ar
    19     3     4   ar
    20     3     7    1
    21     4    12    1
    22    13    18   ar
    23    13    21    1
    24    22    21    1
    25    12    11    3
