@<TRIPOS>MOLECULE
mol_data/opt/b3lyp/geoms/mol2/6gd6gd-6gd-6gd-.out
 46 49 0 0 0
SMALL
GASTEIGER

@<TRIPOS>ATOM
      1 C          -3.9792   -2.2123   -0.1387 C.ar    1  LIG1        0.0947
      2 C          -2.5886   -2.0304   -0.2140 C.ar    1  LIG1       -0.0288
      3 C          -2.1112   -0.7336   -0.2698 C.ar    1  LIG1       -0.0398
      4 C          -3.0065    0.3507   -0.2222 C.ar    1  LIG1        0.0778
      5 C          -4.3902    0.0733   -0.1039 C.ar    1  LIG1        0.0921
      6 N          -4.8367   -1.1898   -0.0851 N.ar    1  LIG1       -0.2393
      7 H          -1.0474   -0.5407   -0.3585 H       1  LIG1        0.0632
      8 H          -1.9083   -2.8734   -0.2426 H       1  LIG1        0.0644
      9 S          -4.7672   -3.8019   -0.0962 S.3     1  LIG1       -0.1234
     10 H          -3.6472   -4.5348   -0.2527 H       1  LIG1        0.1086
     11 N          -2.0299    2.7431   -0.4463 N.1     1  LIG1       -0.1908
     12 C          -2.4876    1.6785   -0.3410 C.1     1  LIG1        0.1013
     13 C          -6.6395    1.2013   -0.6849 C.ar    1  LIG1        0.1039
     14 C          -5.4019    1.1591    0.0153 C.ar    1  LIG1        0.0345
     15 C          -5.1563    2.2217    0.8847 C.ar    1  LIG1       -0.0305
     16 C          -6.0389    3.3039    0.9946 C.ar    1  LIG1        0.0785
     17 C          -7.1809    3.3164    0.1568 C.ar    1  LIG1        0.0921
     18 N          -7.4501    2.2623   -0.6185 N.ar    1  LIG1       -0.2387
     19 H          -4.2709    2.2161    1.5097 H       1  LIG1        0.0638
     20 S          -7.2786   -0.0526   -1.7598 S.3     1  LIG1       -0.1227
     21 H          -6.4860   -1.0407   -1.2872 H       1  LIG1        0.1086
     22 N          -5.5309    5.1004    2.7951 N.1     1  LIG1       -0.1908
     23 C          -5.7713    4.3092    1.9765 C.1     1  LIG1        0.1013
     24 C          -9.5386    4.3666    0.0490 C.ar    1  LIG1        0.1039
     25 C          -8.1187    4.4691    0.0996 C.ar    1  LIG1        0.0345
     26 C          -7.5980    5.7637    0.1079 C.ar    1  LIG1       -0.0305
     27 C          -8.4269    6.8921    0.0943 C.ar    1  LIG1        0.0785
     28 C          -9.8282    6.6876    0.0859 C.ar    1  LIG1        0.0921
     29 N         -10.3259    5.4483    0.0744 N.ar    1  LIG1       -0.2387
     30 H          -6.5254    5.9161    0.1254 H       1  LIG1        0.0638
     31 S         -10.4850    2.8716    0.0002 S.3     1  LIG1       -0.1227
     32 H          -9.4501    2.0704   -0.3379 H       1  LIG1        0.1086
     33 N          -7.2922    9.2236    0.1663 N.1     1  LIG1       -0.1908
     34 C          -7.8204    8.1874    0.1350 C.1     1  LIG1        0.1013
     35 C         -11.9588    7.9091    0.8787 C.ar    1  LIG1        0.1032
     36 C         -10.7974    7.8176    0.0583 C.ar    1  LIG1        0.0345
     37 C         -10.5704    8.8712   -0.8308 C.ar    1  LIG1       -0.0311
     38 C         -11.4295    9.9752   -0.8639 C.ar    1  LIG1        0.0705
     39 C         -12.5012    9.9899    0.0423 C.ar    1  LIG1        0.0462
     40 N         -12.7542    8.9881    0.8739 N.ar    1  LIG1       -0.2471
     41 H          -9.7264    8.8397   -1.5097 H       1  LIG1        0.0638
     42 H         -13.1779   10.8400    0.0797 H       1  LIG1        0.0843
     43 S         -12.5118    6.6996    2.0501 S.3     1  LIG1       -0.1228
     44 H         -11.7794    5.6785    1.5590 H       1  LIG1        0.1086
     45 N         -11.0830   11.9298   -2.5322 N.1     1  LIG1       -0.1908
     46 C         -11.2301   11.0518   -1.7834 C.1     1  LIG1        0.1007
@<TRIPOS>BOND
     1    45    46    3
     2    46    38    1
     3    20    21    1
     4    20    13    1
     5    41    37    1
     6    38    37   ar
     7    38    39   ar
     8    37    36   ar
     9    13    18   ar
    10    13    14   ar
    11    18    17   ar
    12    11    12    3
    13     7     3    1
    14    12     4    1
    15    32    31    1
    16     3     4   ar
    17     3     2   ar
    18    10     9    1
    19     8     2    1
    20     4     5   ar
    21     2     1   ar
    22     1     9    1
    23     1     6   ar
    24     5     6   ar
    25     5    14    1
    26    31    24    1
    27    14    15   ar
    28    39    42    1
    29    39    40   ar
    30    24    29   ar
    31    24    25   ar
    32    36    28    1
    33    36    35   ar
    34    29    28   ar
    35    28    27   ar
    36    27    26   ar
    37    27    34    1
    38    25    26   ar
    39    25    17    1
    40    26    30    1
    41    34    33    3
    42    17    16   ar
    43    40    35   ar
    44    35    43    1
    45    15    16   ar
    46    15    19    1
    47    16    23    1
    48    44    43    1
    49    23    22    3
