@<TRIPOS>MOLECULE
mol_data/opt/b3lyp/geoms/mol2/6gd6gd-6gd-6gd.out
 46 49 0 0 0
SMALL
GASTEIGER

@<TRIPOS>ATOM
      1 C          -3.9775   -2.2118   -0.1269 C.ar    1  LIG1        0.0947
      2 C          -2.5885   -2.0299   -0.2273 C.ar    1  LIG1       -0.0288
      3 C          -2.1132   -0.7335   -0.3052 C.ar    1  LIG1       -0.0398
      4 C          -3.0084    0.3508   -0.2547 C.ar    1  LIG1        0.0778
      5 C          -4.3897    0.0738   -0.1103 C.ar    1  LIG1        0.0921
      6 N          -4.8348   -1.1892   -0.0702 N.ar    1  LIG1       -0.2393
      7 H          -1.0512   -0.5410   -0.4137 H       1  LIG1        0.0632
      8 H          -1.9081   -2.8728   -0.2580 H       1  LIG1        0.0644
      9 S          -4.7635   -3.8013   -0.0538 S.3     1  LIG1       -0.1234
     10 H          -3.6458   -4.5353   -0.2207 H       1  LIG1        0.1086
     11 N          -2.0373    2.7410   -0.5213 N.1     1  LIG1       -0.1908
     12 C          -2.4924    1.6774   -0.3966 C.1     1  LIG1        0.1013
     13 C          -6.6494    1.1940   -0.6661 C.ar    1  LIG1        0.1039
     14 C          -5.4003    1.1604    0.0138 C.ar    1  LIG1        0.0345
     15 C          -5.1410    2.2327    0.8671 C.ar    1  LIG1       -0.0305
     16 C          -6.0225    3.3155    0.9797 C.ar    1  LIG1        0.0785
     17 C          -7.1783    3.3182    0.1608 C.ar    1  LIG1        0.0921
     18 N          -7.4595    2.2552   -0.5980 N.ar    1  LIG1       -0.2387
     19 H          -4.2453    2.2346    1.4774 H       1  LIG1        0.0638
     20 S          -7.3054   -0.0723   -1.7160 S.3     1  LIG1       -0.1227
     21 H          -6.5043   -1.0546   -1.2456 H       1  LIG1        0.1086
     22 N          -5.4860    5.1316    2.7519 N.1     1  LIG1       -0.1908
     23 C          -5.7393    4.3315    1.9460 C.1     1  LIG1        0.1013
     24 C          -9.5381    4.3661    0.0796 C.ar    1  LIG1        0.1039
     25 C          -8.1175    4.4697    0.1062 C.ar    1  LIG1        0.0345
     26 C          -7.5975    5.7644    0.0914 C.ar    1  LIG1       -0.0305
     27 C          -8.4270    6.8924    0.0786 C.ar    1  LIG1        0.0785
     28 C          -9.8282    6.6873    0.0950 C.ar    1  LIG1        0.0921
     29 N         -10.3254    5.4477    0.1054 N.ar    1  LIG1       -0.2387
     30 H          -6.5249    5.9175    0.0898 H       1  LIG1        0.0638
     31 S         -10.4843    2.8704    0.0633 S.3     1  LIG1       -0.1227
     32 H          -9.4547    2.0660   -0.2833 H       1  LIG1        0.1086
     33 N          -7.2928    9.2250    0.1052 N.1     1  LIG1       -0.1908
     34 C          -7.8208    8.1883    0.0944 C.1     1  LIG1        0.1013
     35 C         -11.9459    7.9173    0.9089 C.ar    1  LIG1        0.1032
     36 C         -10.7983    7.8166    0.0703 C.ar    1  LIG1        0.0345
     37 C         -10.5867    8.8599   -0.8347 C.ar    1  LIG1       -0.0311
     38 C         -11.4469    9.9631   -0.8663 C.ar    1  LIG1        0.0705
     39 C         -12.5033    9.9880    0.0575 C.ar    1  LIG1        0.0462
     40 N         -12.7418    8.9959    0.9048 N.ar    1  LIG1       -0.2471
     41 H          -9.7540    8.8208   -1.5270 H       1  LIG1        0.0638
     42 H         -13.1797   10.8382    0.0963 H       1  LIG1        0.0843
     43 S         -12.4785    6.7213    2.1034 S.3     1  LIG1       -0.1228
     44 H         -11.7539    5.6947    1.6120 H       1  LIG1        0.1086
     45 N         -11.1293   11.8983   -2.5627 N.1     1  LIG1       -0.1908
     46 C         -11.2634   11.0290   -1.8013 C.1     1  LIG1        0.1007
@<TRIPOS>BOND
     1    45    46    3
     2    46    38    1
     3    20    21    1
     4    20    13    1
     5    41    37    1
     6    38    37   ar
     7    38    39   ar
     8    37    36   ar
     9    13    18   ar
    10    13    14   ar
    11    18    17   ar
    12    11    12    3
    13     7     3    1
    14    12     4    1
    15     3     4   ar
    16     3     2   ar
    17    32    31    1
    18     8     2    1
    19     4     5   ar
    20     2     1   ar
    21    10     9    1
    22     1     6   ar
    23     1     9    1
    24     5     6   ar
    25     5    14    1
    26    14    15   ar
    27    39    42    1
    28    39    40   ar
    29    31    24    1
    30    36    28    1
    31    36    35   ar
    32    27    26   ar
    33    27    34    1
    34    27    28   ar
    35    24    29   ar
    36    24    25   ar
    37    30    26    1
    38    26    25   ar
    39    34    33    3
    40    28    29   ar
    41    25    17    1
    42    17    16   ar
    43    15    16   ar
    44    15    19    1
    45    40    35   ar
    46    35    43    1
    47    16    23    1
    48    44    43    1
    49    23    22    3
