@<TRIPOS>MOLECULE
mol_data/opt/b3lyp/geoms/mol2/6gd6gd6gd-6gd.out
 46 49 0 0 0
SMALL
GASTEIGER

@<TRIPOS>ATOM
      1 C          -3.8996   -2.1494   -0.4857 C.ar    1  LIG1        0.0947
      2 C          -2.5681   -2.0190   -0.0584 C.ar    1  LIG1       -0.0288
      3 C          -2.1676   -0.7898    0.4329 C.ar    1  LIG1       -0.0398
      4 C          -3.0733    0.2863    0.4664 C.ar    1  LIG1        0.0778
      5 C          -4.3846    0.0749   -0.0251 C.ar    1  LIG1        0.0921
      6 N          -4.7646   -1.1319   -0.4656 N.ar    1  LIG1       -0.2393
      7 H          -1.1581   -0.6462    0.8030 H       1  LIG1        0.0632
      8 H          -1.8774   -2.8531   -0.0958 H       1  LIG1        0.0644
      9 S          -4.5944   -3.6593   -1.1082 S.3     1  LIG1       -0.1234
     10 H          -3.5086   -4.4286   -0.8964 H       1  LIG1        0.1086
     11 N          -2.2662    2.5195    1.5098 N.1     1  LIG1       -0.1908
     12 C          -2.6467    1.5277    1.0351 C.1     1  LIG1        0.1013
     13 C          -6.7517    1.0541    0.3022 C.ar    1  LIG1        0.1039
     14 C          -5.3882    1.1733   -0.0856 C.ar    1  LIG1        0.0345
     15 C          -4.9976    2.4214   -0.5710 C.ar    1  LIG1       -0.0305
     16 C          -5.8781    3.5103   -0.5961 C.ar    1  LIG1        0.0785
     17 C          -7.1806    3.3236   -0.0720 C.ar    1  LIG1        0.0921
     18 N          -7.5718    2.1098    0.3256 N.ar    1  LIG1       -0.2387
     19 H          -3.9946    2.5628   -0.9562 H       1  LIG1        0.0638
     20 S          -7.5592   -0.4231    0.8516 S.3     1  LIG1       -0.1227
     21 H          -6.6402   -1.2688    0.3337 H       1  LIG1        0.1086
     22 N          -5.0602    5.7129   -1.6948 N.1     1  LIG1       -0.1908
     23 C          -5.4410    4.7355   -1.1913 C.1     1  LIG1        0.1013
     24 C          -9.5419    4.3555   -0.2499 C.ar    1  LIG1        0.1039
     25 C          -8.1530    4.4408    0.0521 C.ar    1  LIG1        0.0345
     26 C          -7.7034    5.6787    0.5149 C.ar    1  LIG1       -0.0305
     27 C          -8.5542    6.7873    0.5971 C.ar    1  LIG1        0.0785
     28 C          -9.8907    6.6344    0.1509 C.ar    1  LIG1        0.0921
     29 N         -10.3348    5.4318   -0.2230 N.ar    1  LIG1       -0.2387
     30 H          -6.6760    5.7944    0.8402 H       1  LIG1        0.0638
     31 S         -10.4230    2.9021   -0.7445 S.3     1  LIG1       -0.1227
     32 H          -9.4815    2.0312   -0.3131 H       1  LIG1        0.1086
     33 N          -7.6128    8.9615    1.6528 N.1     1  LIG1       -0.1908
     34 C          -8.0513    7.9984    1.1693 C.1     1  LIG1        0.1013
     35 C         -12.2037    7.7307    0.4963 C.ar    1  LIG1        0.1032
     36 C         -10.8405    7.7767    0.0801 C.ar    1  LIG1        0.0345
     37 C         -10.3783    8.9934   -0.4306 C.ar    1  LIG1       -0.0311
     38 C         -11.2157   10.1127   -0.4775 C.ar    1  LIG1        0.0705
     39 C         -12.5173    9.9692    0.0292 C.ar    1  LIG1        0.0462
     40 N         -12.9883    8.8185    0.4895 N.ar    1  LIG1       -0.2471
     41 H          -9.3642    9.0771   -0.8038 H       1  LIG1        0.0638
     42 H         -13.1964   10.8181    0.0468 H       1  LIG1        0.0843
     43 S         -13.0634    6.3161    1.1268 S.3     1  LIG1       -0.1228
     44 H         -12.1723    5.4019    0.6855 H       1  LIG1        0.1086
     45 N         -10.4280   12.3789   -1.4610 N.1     1  LIG1       -0.1908
     46 C         -10.7724   11.3598   -1.0178 C.1     1  LIG1        0.1007
@<TRIPOS>BOND
     1    22    23    3
     2    45    46    3
     3    23    16    1
     4     9    10    1
     5     9     1    1
     6    46    38    1
     7    19    15    1
     8    41    37    1
     9    31    32    1
    10    31    24    1
    11    16    15   ar
    12    16    17   ar
    13    15    14   ar
    14     1     6   ar
    15     1     2   ar
    16    38    37   ar
    17    38    39   ar
    18     6     5   ar
    19    37    36   ar
    20    24    29   ar
    21    24    25   ar
    22    29    28   ar
    23     8     2    1
    24    14     5    1
    25    14    13   ar
    26    17    25    1
    27    17    18   ar
    28     2     3   ar
    29     5     4   ar
    30    39    42    1
    31    39    40   ar
    32    25    26   ar
    33    36    28    1
    34    36    35   ar
    35    28    27   ar
    36    13    18   ar
    37    13    20    1
    38    21    20    1
    39     3     4   ar
    40     3     7    1
    41     4    12    1
    42    40    35   ar
    43    35    43    1
    44    26    27   ar
    45    26    30    1
    46    27    34    1
    47    44    43    1
    48    12    11    3
    49    34    33    3
