@<TRIPOS>MOLECULE
mol_data/opt/b3lyp/geoms/mol2/6gd6gd-.out
 24 25 0 0 0
SMALL
GASTEIGER

@<TRIPOS>ATOM
      1 C          -4.3712   -2.0287    0.4990 C.ar    1  LIG1        0.0947
      2 C          -3.0074   -2.0480    0.1659 C.ar    1  LIG1       -0.0288
      3 C          -2.4486   -0.8783   -0.3163 C.ar    1  LIG1       -0.0398
      4 C          -3.2336    0.2833   -0.4331 C.ar    1  LIG1        0.0778
      5 C          -4.5912    0.2203   -0.0330 C.ar    1  LIG1        0.0921
      6 N          -5.1233   -0.9303    0.4008 N.ar    1  LIG1       -0.2393
      7 H          -1.4064   -0.8475   -0.6158 H       1  LIG1        0.0632
      8 H          -2.4118   -2.9477    0.2665 H       1  LIG1        0.0644
      9 S          -5.2615   -3.4460    1.0951 S.3     1  LIG1       -0.1234
     10 H          -4.2450   -4.3242    0.9864 H       1  LIG1        0.1086
     11 N          -2.1118    2.3878   -1.4531 N.1     1  LIG1       -0.1908
     12 C          -2.6379    1.4590   -0.9899 C.1     1  LIG1        0.1013
     13 C          -6.7982    1.4381   -0.5908 C.ar    1  LIG1        0.1032
     14 C          -5.4768    1.4180   -0.0597 C.ar    1  LIG1        0.0345
     15 C          -4.9924    2.6168    0.4690 C.ar    1  LIG1       -0.0311
     16 C          -5.7676    3.7810    0.4262 C.ar    1  LIG1        0.0705
     17 C          -7.0280    3.6977   -0.1858 C.ar    1  LIG1        0.0462
     18 N          -7.5210    2.5642   -0.6671 N.ar    1  LIG1       -0.2471
     19 H          -4.0091    2.6530    0.9235 H       1  LIG1        0.0638
     20 H          -7.6558    4.5810   -0.2739 H       1  LIG1        0.0843
     21 S          -7.6717    0.0556   -1.2758 S.3     1  LIG1       -0.1228
     22 H          -6.8862   -0.8957   -0.7296 H       1  LIG1        0.1086
     23 N          -4.9309    6.0171    1.4377 N.1     1  LIG1       -0.1908
     24 C          -5.2995    5.0122    0.9820 C.1     1  LIG1        0.1007
@<TRIPOS>BOND
     1    11    12    3
     2    21    22    1
     3    21    13    1
     4    12     4    1
     5    18    13   ar
     6    18    17   ar
     7     7     3    1
     8    13    14   ar
     9     4     3   ar
    10     4     5   ar
    11     3     2   ar
    12    20    17    1
    13    17    16   ar
    14    14     5    1
    15    14    15   ar
    16     5     6   ar
    17     2     8    1
    18     2     1   ar
    19     6     1   ar
    20    16    15   ar
    21    16    24    1
    22    15    19    1
    23     1     9    1
    24    24    23    3
    25    10     9    1
