@<TRIPOS>MOLECULE
mol_data/opt/b3lyp/geoms/mol2/6gd6gd6gd6gd.out
 46 49 0 0 0
SMALL
GASTEIGER

@<TRIPOS>ATOM
      1 C          -3.8982   -2.1462   -0.5123 C.ar    1  LIG1        0.0947
      2 C          -2.5600   -2.0115   -0.1078 C.ar    1  LIG1       -0.0288
      3 C          -2.1534   -0.7794    0.3709 C.ar    1  LIG1       -0.0398
      4 C          -3.0603    0.2954    0.4145 C.ar    1  LIG1        0.0778
      5 C          -4.3792    0.0795   -0.0542 C.ar    1  LIG1        0.0921
      6 N          -4.7645   -1.1300   -0.4826 N.ar    1  LIG1       -0.2393
      7 H          -1.1381   -0.6323    0.7235 H       1  LIG1        0.0632
      8 H          -1.8685   -2.8446   -0.1529 H       1  LIG1        0.0644
      9 S          -4.6009   -3.6601   -1.1155 S.3     1  LIG1       -0.1234
     10 H          -3.5097   -4.4263   -0.9202 H       1  LIG1        0.1086
     11 N          -2.2402    2.5346    1.4347 N.1     1  LIG1       -0.1908
     12 C          -2.6266    1.5400    0.9706 C.1     1  LIG1        0.1013
     13 C          -6.7421    1.0565    0.3072 C.ar    1  LIG1        0.1039
     14 C          -5.3855    1.1760   -0.1037 C.ar    1  LIG1        0.0345
     15 C          -5.0051    2.4225   -0.6010 C.ar    1  LIG1       -0.0305
     16 C          -5.8878    3.5098   -0.6166 C.ar    1  LIG1        0.0785
     17 C          -7.1811    3.3234   -0.0702 C.ar    1  LIG1        0.0921
     18 N          -7.5636    2.1107    0.3394 N.ar    1  LIG1       -0.2387
     19 H          -4.0088    2.5637   -1.0034 H       1  LIG1        0.0638
     20 S          -7.5385   -0.4203    0.8764 S.3     1  LIG1       -0.1227
     21 H          -6.6255   -1.2668    0.3499 H       1  LIG1        0.1086
     22 N          -5.0921    5.7085   -1.7389 N.1     1  LIG1       -0.1908
     23 C          -5.4627    4.7330   -1.2245 C.1     1  LIG1        0.1013
     24 C          -9.5469    4.3509   -0.2140 C.ar    1  LIG1        0.1039
     25 C          -8.1532    4.4396    0.0646 C.ar    1  LIG1        0.0345
     26 C          -7.6978    5.6804    0.5138 C.ar    1  LIG1       -0.0305
     27 C          -8.5488    6.7883    0.6044 C.ar    1  LIG1        0.0785
     28 C          -9.8920    6.6313    0.1807 C.ar    1  LIG1        0.0921
     29 N         -10.3407    5.4264   -0.1799 N.ar    1  LIG1       -0.2387
     30 H          -6.6655    5.7990    0.8217 H       1  LIG1        0.0638
     31 S         -10.4340    2.8941   -0.6855 S.3     1  LIG1       -0.1227
     32 H          -9.4834    2.0268   -0.2667 H       1  LIG1        0.1086
     33 N          -7.5937    8.9694    1.6334 N.1     1  LIG1       -0.1908
     34 C          -8.0385    8.0031    1.1621 C.1     1  LIG1        0.1013
     35 C         -12.2000    7.7264    0.5588 C.ar    1  LIG1        0.1032
     36 C         -10.8445    7.7719    0.1185 C.ar    1  LIG1        0.0345
     37 C         -10.3930    8.9860   -0.4076 C.ar    1  LIG1       -0.0311
     38 C         -11.2331   10.1036   -0.4473 C.ar    1  LIG1        0.0705
     39 C         -12.5256    9.9612    0.0824 C.ar    1  LIG1        0.0462
     40 N         -12.9866    8.8128    0.5583 N.ar    1  LIG1       -0.2471
     41 H          -9.3856    9.0689   -0.7985 H       1  LIG1        0.0638
     42 H         -13.2058   10.8090    0.1061 H       1  LIG1        0.0843
     43 S         -13.0457    6.3150    1.2139 S.3     1  LIG1       -0.1228
     44 H         -12.1613    5.3989    0.7634 H       1  LIG1        0.1086
     45 N         -10.4662   12.3647   -1.4584 N.1     1  LIG1       -0.1908
     46 C         -10.8013   11.3480   -1.0030 C.1     1  LIG1        0.1007
@<TRIPOS>BOND
     1    22    23    3
     2    45    46    3
     3    23    16    1
     4     9    10    1
     5     9     1    1
     6    19    15    1
     7    46    38    1
     8    41    37    1
     9    31    32    1
    10    31    24    1
    11    16    15   ar
    12    16    17   ar
    13    15    14   ar
    14     1     6   ar
    15     1     2   ar
    16     6     5   ar
    17    38    37   ar
    18    38    39   ar
    19    37    36   ar
    20    24    29   ar
    21    24    25   ar
    22    29    28   ar
    23     8     2    1
    24     2     3   ar
    25    14     5    1
    26    14    13   ar
    27    17    25    1
    28    17    18   ar
    29     5     4   ar
    30    25    26   ar
    31    39    42    1
    32    39    40   ar
    33    36    28    1
    34    36    35   ar
    35    28    27   ar
    36    13    18   ar
    37    13    20    1
    38    21    20    1
    39     3     4   ar
    40     3     7    1
    41     4    12    1
    42    26    27   ar
    43    26    30    1
    44    40    35   ar
    45    35    43    1
    46    27    34    1
    47    44    43    1
    48    12    11    3
    49    34    33    3
