@<TRIPOS>MOLECULE
mol_data/opt/b3lyp/geoms/mol2/6gd6gd6gd-.out
 35 37 0 0 0
SMALL
GASTEIGER

@<TRIPOS>ATOM
      1 C          -4.1681   -2.1490   -0.2621 C.ar    1  LIG1        0.0947
      2 C          -2.8083   -2.0554    0.0759 C.ar    1  LIG1       -0.0288
      3 C          -2.3208   -0.8135    0.4406 C.ar    1  LIG1       -0.0398
      4 C          -3.1708    0.3074    0.4376 C.ar    1  LIG1        0.0778
      5 C          -4.5185    0.1272    0.0401 C.ar    1  LIG1        0.0921
      6 N          -4.9810   -1.0898   -0.2771 N.ar    1  LIG1       -0.2393
      7 H          -1.2849   -0.6938    0.7395 H       1  LIG1        0.0632
      8 H          -2.1614   -2.9247    0.0675 H       1  LIG1        0.0644
      9 S          -4.9709   -3.6658   -0.7167 S.3     1  LIG1       -0.1234
     10 H          -3.9112   -4.4713   -0.5058 H       1  LIG1        0.1086
     11 N          -2.1921    2.5676    1.2508 N.1     1  LIG1       -0.1908
     12 C          -2.6509    1.5650    0.8789 C.1     1  LIG1        0.1013
     13 C          -6.8109    1.2550    0.4199 C.ar    1  LIG1        0.1039
     14 C          -5.4698    1.2683   -0.0545 C.ar    1  LIG1        0.0345
     15 C          -5.0509    2.4497   -0.6667 C.ar    1  LIG1       -0.0305
     16 C          -5.8791    3.5769   -0.7359 C.ar    1  LIG1        0.0785
     17 C          -7.1548    3.5036   -0.1242 C.ar    1  LIG1        0.0921
     18 N          -7.5776    2.3496    0.3991 N.ar    1  LIG1       -0.2387
     19 H          -4.0679    2.5058   -1.1197 H       1  LIG1        0.0638
     20 S          -7.6542   -0.1261    1.1412 S.3     1  LIG1       -0.1227
     21 H          -6.8070   -1.0613    0.6576 H       1  LIG1        0.1086
     22 N          -5.0153    5.6286   -2.0670 N.1     1  LIG1       -0.1908
     23 C          -5.4189    4.7226   -1.4588 C.1     1  LIG1        0.1013
     24 C          -9.4653    4.6433   -0.2990 C.ar    1  LIG1        0.1032
     25 C          -8.0638    4.6778   -0.0389 C.ar    1  LIG1        0.0345
     26 C          -7.5194    5.9145    0.3194 C.ar    1  LIG1       -0.0311
     27 C          -8.3205    7.0601    0.3685 C.ar    1  LIG1        0.0705
     28 C          -9.6734    6.9196    0.0204 C.ar    1  LIG1        0.0462
     29 N         -10.2191    5.7524   -0.2930 N.ar    1  LIG1       -0.2471
     30 H          -6.4682    5.9943    0.5712 H       1  LIG1        0.0638
     31 H         -10.3306    7.7857    0.0098 H       1  LIG1        0.0843
     32 S         -10.4215    3.2121   -0.7186 S.3     1  LIG1       -0.1228
     33 H          -9.5094    2.3062   -0.3045 H       1  LIG1        0.1086
     34 N          -7.3744    9.3683    1.0761 N.1     1  LIG1       -0.1908
     35 C          -7.7906    8.3302    0.7560 C.1     1  LIG1        0.1007
@<TRIPOS>BOND
     1    22    23    3
     2    23    16    1
     3    19    15    1
     4    16    15   ar
     5    16    17   ar
     6    32    33    1
     7    32    24    1
     8     9    10    1
     9     9     1    1
    10    15    14   ar
    11    24    29   ar
    12    24    25   ar
    13    29    28   ar
    14     6     1   ar
    15     6     5   ar
    16     1     2   ar
    17    17    25    1
    18    17    18   ar
    19    14     5    1
    20    14    13   ar
    21    25    26   ar
    22    31    28    1
    23    28    27   ar
    24     5     4   ar
    25     8     2    1
    26     2     3   ar
    27    26    27   ar
    28    26    30    1
    29    27    35    1
    30    18    13   ar
    31    13    20    1
    32     4     3   ar
    33     4    12    1
    34     3     7    1
    35    21    20    1
    36    35    34    3
    37    12    11    3
