@<TRIPOS>MOLECULE
mol_data/opt/b3lyp/geoms/mol2/6gd6gd6gd-6gd-.out
 46 49 0 0 0
SMALL
GASTEIGER

@<TRIPOS>ATOM
      1 C          -3.8937   -2.1458   -0.4863 C.ar    1  LIG1        0.0947
      2 C          -2.5647   -2.0163   -0.0509 C.ar    1  LIG1       -0.0288
      3 C          -2.1674   -0.7887    0.4467 C.ar    1  LIG1       -0.0398
      4 C          -3.0737    0.2870    0.4787 C.ar    1  LIG1        0.0778
      5 C          -4.3821    0.0768   -0.0209 C.ar    1  LIG1        0.0921
      6 N          -4.7592   -1.1287   -0.4676 N.ar    1  LIG1       -0.2393
      7 H          -1.1601   -0.6459    0.8230 H       1  LIG1        0.0632
      8 H          -1.8735   -2.8500   -0.0873 H       1  LIG1        0.0644
      9 S          -4.5845   -3.6538   -1.1176 S.3     1  LIG1       -0.1234
     10 H          -3.4995   -4.4235   -0.9025 H       1  LIG1        0.1086
     11 N          -2.2734    2.5170    1.5342 N.1     1  LIG1       -0.1908
     12 C          -2.6509    1.5267    1.0540 C.1     1  LIG1        0.1013
     13 C          -6.7514    1.0538    0.2962 C.ar    1  LIG1        0.1039
     14 C          -5.3858    1.1750   -0.0836 C.ar    1  LIG1        0.0345
     15 C          -4.9931    2.4249   -0.5625 C.ar    1  LIG1       -0.0305
     16 C          -5.8741    3.5134   -0.5890 C.ar    1  LIG1        0.0785
     17 C          -7.1794    3.3243   -0.0729 C.ar    1  LIG1        0.0921
     18 N          -7.5722    2.1089    0.3185 N.ar    1  LIG1       -0.2387
     19 H          -3.9880    2.5681   -0.9416 H       1  LIG1        0.0638
     20 S          -7.5611   -0.4257    0.8360 S.3     1  LIG1       -0.1227
     21 H          -6.6389   -1.2692    0.3204 H       1  LIG1        0.1086
     22 N          -5.0515    5.7200   -1.6759 N.1     1  LIG1       -0.1908
     23 C          -5.4344    4.7408   -1.1777 C.1     1  LIG1        0.1013
     24 C          -9.5402    4.3554   -0.2603 C.ar    1  LIG1        0.1039
     25 C          -8.1531    4.4405    0.0496 C.ar    1  LIG1        0.0345
     26 C          -7.7068    5.6771    0.5191 C.ar    1  LIG1       -0.0305
     27 C          -8.5588    6.7848    0.6005 C.ar    1  LIG1        0.0785
     28 C          -9.8929    6.6326    0.1467 C.ar    1  LIG1        0.0921
     29 N         -10.3340    5.4310   -0.2340 N.ar    1  LIG1       -0.2387
     30 H          -6.6814    5.7923    0.8504 H       1  LIG1        0.0638
     31 S         -10.4178    2.9032   -0.7651 S.3     1  LIG1       -0.1227
     32 H          -9.4781    2.0313   -0.3316 H       1  LIG1        0.1086
     33 N          -7.6241    8.9561    1.6682 N.1     1  LIG1       -0.1908
     34 C          -8.0596    7.9943    1.1793 C.1     1  LIG1        0.1013
     35 C         -12.2085    7.7257    0.4840 C.ar    1  LIG1        0.1032
     36 C         -10.8432    7.7743    0.0748 C.ar    1  LIG1        0.0345
     37 C         -10.3795    8.9932   -0.4293 C.ar    1  LIG1       -0.0311
     38 C         -11.2178   10.1119   -0.4765 C.ar    1  LIG1        0.0705
     39 C         -12.5218    9.9654    0.0230 C.ar    1  LIG1        0.0462
     40 N         -12.9940    8.8127    0.4769 N.ar    1  LIG1       -0.2471
     41 H          -9.3637    9.0792   -0.7970 H       1  LIG1        0.0638
     42 H         -13.2018   10.8136    0.0400 H       1  LIG1        0.0843
     43 S         -13.0698    6.3083    1.1056 S.3     1  LIG1       -0.1228
     44 H         -12.1761    5.3963    0.6652 H       1  LIG1        0.1086
     45 N         -10.4273   12.3822   -1.4483 N.1     1  LIG1       -0.1908
     46 C         -10.7729   11.3613   -1.0104 C.1     1  LIG1        0.1007
@<TRIPOS>BOND
     1    22    23    3
     2    45    46    3
     3    23    16    1
     4     9    10    1
     5     9     1    1
     6    46    38    1
     7    19    15    1
     8    41    37    1
     9    31    32    1
    10    31    24    1
    11    16    15   ar
    12    16    17   ar
    13    15    14   ar
    14     1     6   ar
    15     1     2   ar
    16    38    37   ar
    17    38    39   ar
    18     6     5   ar
    19    37    36   ar
    20    24    29   ar
    21    24    25   ar
    22    29    28   ar
    23     8     2    1
    24    14     5    1
    25    14    13   ar
    26    17    25    1
    27    17    18   ar
    28     2     3   ar
    29     5     4   ar
    30    39    42    1
    31    39    40   ar
    32    25    26   ar
    33    36    28    1
    34    36    35   ar
    35    28    27   ar
    36    13    18   ar
    37    13    20    1
    38    21    20    1
    39     3     4   ar
    40     3     7    1
    41    40    35   ar
    42     4    12    1
    43    35    43    1
    44    26    27   ar
    45    26    30    1
    46    27    34    1
    47    44    43    1
    48    12    11    3
    49    34    33    3
