@<TRIPOS>MOLECULE
mol_data/opt/b3lyp/geoms/mol2/6ge.out
 14 14 0 0 0
SMALL
GASTEIGER

@<TRIPOS>ATOM
      1 C          -4.5518   -2.0137    0.0001 C.ar    1  LIG1        0.0940
      2 C          -3.1479   -2.0126   -0.0000 C.ar    1  LIG1       -0.0289
      3 C          -2.4923   -0.7908   -0.0002 C.ar    1  LIG1       -0.0424
      4 C          -3.2401    0.4011   -0.0003 C.ar    1  LIG1        0.0428
      5 C          -4.6413    0.2740   -0.0002 C.ar    1  LIG1        0.0442
      6 N          -5.2812   -0.8943   -0.0000 N.ar    1  LIG1       -0.2478
      7 H          -1.4080   -0.7471   -0.0002 H       1  LIG1        0.0631
      8 H          -2.5854   -2.9403    0.0001 H       1  LIG1        0.0644
      9 H          -5.2626    1.1656   -0.0003 H       1  LIG1        0.0842
     10 S          -5.5332   -3.5036    0.0003 S.3     1  LIG1       -0.1234
     11 H          -4.5012   -4.3710    0.0003 H       1  LIG1        0.1086
     12 C          -2.6181    1.6836   -0.0004 C.1     1  LIG1       -0.0681
     13 C          -2.0928    2.7738   -0.0006 C.1     1  LIG1       -0.1139
     14 H          -1.6328    3.7348   -0.0006 H       1  LIG1        0.1232
@<TRIPOS>BOND
     1    14    13    1
     2    13    12    3
     3    12     4    1
     4     4     5   ar
     5     4     3   ar
     6     9     5    1
     7     7     3    1
     8     5     6   ar
     9     3     2   ar
    10     6     1   ar
    11     2     1   ar
    12     2     8    1
    13     1    10    1
    14    10    11    1
