@<TRIPOS>MOLECULE
mol_data/opt/b3lyp/geoms/mol2/6ge6ge.out
 26 27 0 0 0
SMALL
GASTEIGER

@<TRIPOS>ATOM
      1 C          -4.4018   -1.9890   -0.6200 C.ar    1  LIG1        0.0947
      2 C          -3.0237   -2.0227   -0.3633 C.ar    1  LIG1       -0.0288
      3 C          -2.4363   -0.8698    0.1275 C.ar    1  LIG1       -0.0418
      4 C          -3.1993    0.2965    0.3328 C.ar    1  LIG1        0.0508
      5 C          -4.5792    0.2396    0.0043 C.ar    1  LIG1        0.0901
      6 N          -5.1406   -0.8948   -0.4412 N.ar    1  LIG1       -0.2394
      7 H          -1.3785   -0.8530    0.3683 H       1  LIG1        0.0631
      8 H          -2.4374   -2.9195   -0.5282 H       1  LIG1        0.0644
      9 S          -5.3301   -3.3874   -1.2203 S.3     1  LIG1       -0.1234
     10 H          -4.3146   -4.2730   -1.1882 H       1  LIG1        0.1086
     11 C          -2.5653    1.4463    0.8908 C.1     1  LIG1       -0.0675
     12 C          -1.9745    2.3842    1.3765 C.1     1  LIG1       -0.1138
     13 H          -1.4791    3.2247    1.8053 H       1  LIG1        0.1232
     14 C          -6.7459    1.4343    0.7378 C.ar    1  LIG1        0.1032
     15 C          -5.4657    1.4323    0.1204 C.ar    1  LIG1        0.0343
     16 C          -5.0234    2.6454   -0.4128 C.ar    1  LIG1       -0.0331
     17 C          -5.7919    3.8120   -0.2990 C.ar    1  LIG1        0.0434
     18 C          -7.0109    3.6982    0.3912 C.ar    1  LIG1        0.0442
     19 N          -7.4694    2.5521    0.8811 N.ar    1  LIG1       -0.2471
     20 H          -4.0688    2.6909   -0.9234 H       1  LIG1        0.0638
     21 H          -7.6374    4.5751    0.5370 H       1  LIG1        0.0842
     22 S          -7.5570    0.0251    1.4606 S.3     1  LIG1       -0.1228
     23 H          -6.8212   -0.9066    0.8193 H       1  LIG1        0.1086
     24 C          -5.3609    5.0563   -0.8451 C.1     1  LIG1       -0.0681
     25 C          -5.0007    6.1159   -1.3056 C.1     1  LIG1       -0.1139
     26 H          -4.6868    7.0491   -1.7126 H       1  LIG1        0.1232
@<TRIPOS>BOND
     1    26    25    1
     2    25    24    3
     3     9    10    1
     4     9     1    1
     5    20    16    1
     6    24    17    1
     7     1     6   ar
     8     1     2   ar
     9     8     2    1
    10     6     5   ar
    11    16    17   ar
    12    16    15   ar
    13     2     3   ar
    14    17    18   ar
    15     5    15    1
    16     5     4   ar
    17    15    14   ar
    18     3     4   ar
    19     3     7    1
    20     4    11    1
    21    18    21    1
    22    18    19   ar
    23    14    19   ar
    24    14    22    1
    25    23    22    1
    26    11    12    3
    27    12    13    1
