@<TRIPOS>MOLECULE
mol_data/opt/b3lyp/geoms/mol2/6ge6ge6ge6ge.out
 50 53 0 0 0
SMALL
GASTEIGER

@<TRIPOS>ATOM
      1 C          -3.6814   -1.6917   -1.6304 C.ar    1  LIG1        0.0947
      2 C          -2.6838   -2.0348   -0.7061 C.ar    1  LIG1       -0.0288
      3 C          -2.5897   -1.2750    0.4464 C.ar    1  LIG1       -0.0418
      4 C          -3.4503   -0.1801    0.6611 C.ar    1  LIG1        0.0508
      5 C          -4.3963    0.1127   -0.3557 C.ar    1  LIG1        0.0901
      6 N          -4.4992   -0.6547   -1.4517 N.ar    1  LIG1       -0.2394
      7 H          -1.8545   -1.5194    1.2059 H       1  LIG1        0.0631
      8 H          -2.0180   -2.8733   -0.8754 H       1  LIG1        0.0644
      9 S          -3.9758   -2.5815   -3.1453 S.3     1  LIG1       -0.1234
     10 H          -3.0710   -3.5568   -2.9299 H       1  LIG1        0.1086
     11 C          -3.3580    0.5381    1.8901 C.1     1  LIG1       -0.0675
     12 C          -3.2414    1.1000    2.9556 C.1     1  LIG1       -0.1138
     13 H          -3.1604    1.6091    3.8887 H       1  LIG1        0.1232
     14 C          -6.7044    1.2535   -0.5492 C.ar    1  LIG1        0.1039
     15 C          -5.3123    1.2846   -0.2695 C.ar    1  LIG1        0.0344
     16 C          -4.7967    2.5181    0.1252 C.ar    1  LIG1       -0.0325
     17 C          -5.6011    3.6595    0.2667 C.ar    1  LIG1        0.0514
     18 C          -6.9848    3.5099   -0.0039 C.ar    1  LIG1        0.0902
     19 N          -7.4814    2.3280   -0.3874 N.ar    1  LIG1       -0.2387
     20 H          -3.7397    2.6092    0.3433 H       1  LIG1        0.0638
     21 S          -7.6332   -0.1657   -1.0799 S.3     1  LIG1       -0.1227
     22 H          -6.5621   -0.8852   -1.4772 H       1  LIG1        0.1086
     23 C          -4.9978    4.8701    0.7211 C.1     1  LIG1       -0.0675
     24 C          -4.4336    5.8637    1.1199 C.1     1  LIG1       -0.1138
     25 H          -3.9618    6.7522    1.4719 H       1  LIG1        0.1232
     26 C          -9.2183    4.5817    0.7210 C.ar    1  LIG1        0.1039
     27 C          -7.9437    4.6450    0.0972 C.ar    1  LIG1        0.0344
     28 C          -7.5892    5.8820   -0.4397 C.ar    1  LIG1       -0.0325
     29 C          -8.4211    7.0082   -0.3458 C.ar    1  LIG1        0.0514
     30 C          -9.6543    6.8456    0.3345 C.ar    1  LIG1        0.0902
     31 N         -10.0012    5.6572    0.8421 N.ar    1  LIG1       -0.2387
     32 H          -6.6361    5.9927   -0.9417 H       1  LIG1        0.0638
     33 S          -9.9411    3.1420    1.4718 S.3     1  LIG1       -0.1227
     34 H          -9.1302    2.2540    0.8570 H       1  LIG1        0.1086
     35 C          -7.9611    8.2464   -0.8861 C.1     1  LIG1       -0.0675
     36 C          -7.5126    9.2690   -1.3530 C.1     1  LIG1       -0.1138
     37 H          -7.1421   10.1828   -1.7570 H       1  LIG1        0.1232
     38 C         -11.2882    8.2982    1.7058 C.ar    1  LIG1        0.1032
     39 C         -10.6276    7.9633    0.4920 C.ar    1  LIG1        0.0343
     40 C         -10.9268    8.7508   -0.6227 C.ar    1  LIG1       -0.0331
     41 C         -11.7975    9.8451   -0.5264 C.ar    1  LIG1        0.0434
     42 C         -12.3317   10.1154    0.7448 C.ar    1  LIG1        0.0442
     43 N         -12.0914    9.3644    1.8134 N.ar    1  LIG1       -0.2471
     44 H         -10.4794    8.5167   -1.5811 H       1  LIG1        0.0638
     45 H         -12.9890   10.9700    0.8882 H       1  LIG1        0.0842
     46 S         -11.1232    7.4336    3.2517 S.3     1  LIG1       -0.1228
     47 H         -10.6492    6.2879    2.7172 H       1  LIG1        0.1086
     48 C         -12.1210   10.6536   -1.6551 C.1     1  LIG1       -0.0681
     49 C         -12.3991   11.3448   -2.6089 C.1     1  LIG1       -0.1139
     50 H         -12.6479   11.9518   -3.4483 H       1  LIG1        0.1232
@<TRIPOS>BOND
     1    50    49    1
     2     9    10    1
     3     9     1    1
     4    49    48    3
     5    37    36    1
     6    48    41    1
     7     1     6   ar
     8     1     2   ar
     9    44    40    1
    10    22    21    1
    11     6     5   ar
    12    36    35    3
    13    21    14    1
    14    32    28    1
    15    35    29    1
    16     8     2    1
    17     2     3   ar
    18    40    41   ar
    19    40    39   ar
    20    14    19   ar
    21    14    15   ar
    22    41    42   ar
    23    28    29   ar
    24    28    27   ar
    25    19    18   ar
    26     5    15    1
    27     5     4   ar
    28    29    30   ar
    29    15    16   ar
    30    18    27    1
    31    18    17   ar
    32    27    26   ar
    33    16    17   ar
    34    16    20    1
    35    17    23    1
    36    30    39    1
    37    30    31   ar
    38     3     4   ar
    39     3     7    1
    40    39    38   ar
    41     4    11    1
    42    26    31   ar
    43    26    33    1
    44    23    24    3
    45    42    45    1
    46    42    43   ar
    47    34    33    1
    48    24    25    1
    49    38    43   ar
    50    38    46    1
    51    11    12    3
    52    47    46    1
    53    12    13    1
