@<TRIPOS>MOLECULE
mol_data/opt/b3lyp/geoms/mol2/6ge6ge-6ge-6ge.out
 50 53 0 0 0
SMALL
GASTEIGER

@<TRIPOS>ATOM
      1 C          -4.0104   -2.1774   -0.2332 C.ar    1  LIG1        0.0947
      2 C          -2.6218   -2.0193   -0.3511 C.ar    1  LIG1       -0.0288
      3 C          -2.1281   -0.7292   -0.4302 C.ar    1  LIG1       -0.0418
      4 C          -2.9948    0.3800   -0.3668 C.ar    1  LIG1        0.0508
      5 C          -4.3800    0.1157   -0.2072 C.ar    1  LIG1        0.0901
      6 N          -4.8464   -1.1420   -0.1637 N.ar    1  LIG1       -0.2394
      7 H          -1.0639   -0.5558   -0.5501 H       1  LIG1        0.0631
      8 H          -1.9556   -2.8734   -0.3925 H       1  LIG1        0.0644
      9 S          -4.8232   -3.7602   -0.1517 S.3     1  LIG1       -0.1234
     10 H          -3.7210   -4.5106   -0.3474 H       1  LIG1        0.1086
     11 C          -2.4475    1.6900   -0.5067 C.1     1  LIG1       -0.0675
     12 C          -1.9238    2.7725   -0.6429 C.1     1  LIG1       -0.1138
     13 H          -1.4844    3.7361   -0.7629 H       1  LIG1        0.1232
     14 C          -6.6331    1.2621   -0.7322 C.ar    1  LIG1        0.1039
     15 C          -5.3799    1.2104   -0.0664 C.ar    1  LIG1        0.0344
     16 C          -5.1064    2.2707    0.7972 C.ar    1  LIG1       -0.0325
     17 C          -5.9752    3.3626    0.9469 C.ar    1  LIG1        0.0514
     18 C          -7.1459    3.3694    0.1456 C.ar    1  LIG1        0.0902
     19 N          -7.4408    2.3201   -0.6305 N.ar    1  LIG1       -0.2387
     20 H          -4.1982    2.2573    1.3875 H       1  LIG1        0.0638
     21 S          -7.2962    0.0173   -1.8138 S.3     1  LIG1       -0.1227
     22 H          -6.5123   -0.9819   -1.3509 H       1  LIG1        0.1086
     23 C          -5.6585    4.3644    1.9124 C.1     1  LIG1       -0.0675
     24 C          -5.3473    5.1769    2.7537 C.1     1  LIG1       -0.1138
     25 H          -5.0994    5.9031    3.4934 H       1  LIG1        0.1232
     26 C          -9.5123    4.4063    0.1374 C.ar    1  LIG1        0.1039
     27 C          -8.0945    4.5157    0.1249 C.ar    1  LIG1        0.0344
     28 C          -7.5840    5.8134    0.1022 C.ar    1  LIG1       -0.0325
     29 C          -8.4092    6.9477    0.1217 C.ar    1  LIG1        0.0514
     30 C          -9.8087    6.7262    0.1778 C.ar    1  LIG1        0.0902
     31 N         -10.3023    5.4831    0.1907 N.ar    1  LIG1       -0.2387
     32 H          -6.5119    5.9638    0.0769 H       1  LIG1        0.0638
     33 S         -10.4456    2.8957    0.1421 S.3     1  LIG1       -0.1227
     34 H          -9.4222    2.1130   -0.2698 H       1  LIG1        0.1086
     35 C          -7.8005    8.2385    0.1361 C.1     1  LIG1       -0.0675
     36 C          -7.2275    9.3044    0.1569 C.1     1  LIG1       -0.1138
     37 H          -6.7498   10.2567    0.1762 H       1  LIG1        0.1232
     38 C         -11.9021    7.9383    1.0761 C.ar    1  LIG1        0.1032
     39 C         -10.7903    7.8474    0.1943 C.ar    1  LIG1        0.0343
     40 C         -10.6248    8.8943   -0.7160 C.ar    1  LIG1       -0.0331
     41 C         -11.4885    9.9984   -0.7185 C.ar    1  LIG1        0.0434
     42 C         -12.5075   10.0035    0.2489 C.ar    1  LIG1        0.0442
     43 N         -12.7082    9.0076    1.1043 N.ar    1  LIG1       -0.2471
     44 H          -9.8152    8.8583   -1.4348 H       1  LIG1        0.0638
     45 H         -13.1897   10.8478    0.3163 H       1  LIG1        0.0842
     46 S         -12.3651    6.7267    2.2933 S.3     1  LIG1       -0.1228
     47 H         -11.6796    5.7051    1.7371 H       1  LIG1        0.1086
     48 C         -11.3403   11.0704   -1.6466 C.1     1  LIG1       -0.0681
     49 C         -11.2198   11.9842   -2.4310 C.1     1  LIG1       -0.1139
     50 H         -11.1177   12.7875   -3.1232 H       1  LIG1        0.1232
@<TRIPOS>BOND
     1    50    49    1
     2    49    48    3
     3    21    22    1
     4    21    14    1
     5    48    41    1
     6    44    40    1
     7    13    12    1
     8    14    19   ar
     9    14    15   ar
    10    41    40   ar
    11    41    42   ar
    12    40    39   ar
    13    12    11    3
    14    19    18   ar
    15     7     3    1
    16    11     4    1
    17     3     4   ar
    18     3     2   ar
    19     8     2    1
    20     4     5   ar
    21     2     1   ar
    22    10     9    1
    23    34    33    1
    24     1     6   ar
    25     1     9    1
    26     5     6   ar
    27     5    15    1
    28    15    16   ar
    29    32    28    1
    30    28    29   ar
    31    28    27   ar
    32    29    35    1
    33    29    30   ar
    34    27    26   ar
    35    27    18    1
    36    35    36    3
    37    26    33    1
    38    26    31   ar
    39    18    17   ar
    40    36    37    1
    41    30    31   ar
    42    30    39    1
    43    39    38   ar
    44    42    45    1
    45    42    43   ar
    46    16    17   ar
    47    16    20    1
    48    17    23    1
    49    38    43   ar
    50    38    46    1
    51    47    46    1
    52    23    24    3
    53    24    25    1
