@<TRIPOS>MOLECULE
mol_data/opt/b3lyp/geoms/mol2/6ge6ge6ge-6ge.out
 50 53 0 0 0
SMALL
GASTEIGER

@<TRIPOS>ATOM
      1 C          -3.9175   -2.1099   -0.5781 C.ar    1  LIG1        0.0947
      2 C          -2.5784   -1.9978   -0.1768 C.ar    1  LIG1       -0.0288
      3 C          -2.1584   -0.7768    0.3203 C.ar    1  LIG1       -0.0418
      4 C          -3.0445    0.3164    0.3916 C.ar    1  LIG1        0.0508
      5 C          -4.3686    0.1130   -0.0770 C.ar    1  LIG1        0.0901
      6 N          -4.7694   -1.0863   -0.5265 N.ar    1  LIG1       -0.2394
      7 H          -1.1394   -0.6482    0.6697 H       1  LIG1        0.0631
      8 H          -1.8958   -2.8376   -0.2387 H       1  LIG1        0.0644
      9 S          -4.6395   -3.6109   -1.2093 S.3     1  LIG1       -0.1234
     10 H          -3.5594   -4.3940   -1.0189 H       1  LIG1        0.1086
     11 C          -2.5835    1.5399    0.9623 C.1     1  LIG1       -0.0675
     12 C          -2.1364    2.5451    1.4664 C.1     1  LIG1       -0.1138
     13 H          -1.7645    3.4403    1.9097 H       1  LIG1        0.1232
     14 C          -6.7235    1.0977    0.3104 C.ar    1  LIG1        0.1039
     15 C          -5.3715    1.2135   -0.1077 C.ar    1  LIG1        0.0344
     16 C          -4.9924    2.4615   -0.6017 C.ar    1  LIG1       -0.0325
     17 C          -5.8651    3.5602   -0.6190 C.ar    1  LIG1        0.0514
     18 C          -7.1605    3.3641   -0.0747 C.ar    1  LIG1        0.0902
     19 N          -7.5438    2.1506    0.3386 N.ar    1  LIG1       -0.2387
     20 H          -3.9937    2.5970   -0.9985 H       1  LIG1        0.0638
     21 S          -7.5132   -0.3811    0.9005 S.3     1  LIG1       -0.1227
     22 H          -6.6201   -1.2296    0.3441 H       1  LIG1        0.1086
     23 C          -5.4214    4.7798   -1.2121 C.1     1  LIG1       -0.0675
     24 C          -4.9946    5.7828   -1.7381 C.1     1  LIG1       -0.1138
     25 H          -4.6425    6.6757   -2.2013 H       1  LIG1        0.1232
     26 C          -9.5335    4.3756   -0.2209 C.ar    1  LIG1        0.1039
     27 C          -8.1433    4.4725    0.0603 C.ar    1  LIG1        0.0344
     28 C          -7.7021    5.7144    0.5189 C.ar    1  LIG1       -0.0325
     29 C          -8.5536    6.8239    0.6239 C.ar    1  LIG1        0.0514
     30 C          -9.8977    6.6480    0.2041 C.ar    1  LIG1        0.0902
     31 N         -10.3369    5.4414   -0.1696 N.ar    1  LIG1       -0.2387
     32 H          -6.6683    5.8351    0.8185 H       1  LIG1        0.0638
     33 S         -10.4025    2.9097   -0.7200 S.3     1  LIG1       -0.1227
     34 H          -9.4499    2.0509   -0.2864 H       1  LIG1        0.1086
     35 C          -8.0395    8.0353    1.1763 C.1     1  LIG1       -0.0675
     36 C          -7.5531    9.0312    1.6626 C.1     1  LIG1       -0.1138
     37 H          -7.1519    9.9199    2.0923 H       1  LIG1        0.1232
     38 C         -12.2188    7.7076    0.6099 C.ar    1  LIG1        0.1032
     39 C         -10.8707    7.7741    0.1573 C.ar    1  LIG1        0.0343
     40 C         -10.4464    8.9967   -0.3710 C.ar    1  LIG1       -0.0331
     41 C         -11.2964   10.1101   -0.4039 C.ar    1  LIG1        0.0434
     42 C         -12.5816    9.9365    0.1379 C.ar    1  LIG1        0.0442
     43 N         -13.0232    8.7796    0.6159 N.ar    1  LIG1       -0.2471
     44 H          -9.4414    9.0909   -0.7640 H       1  LIG1        0.0638
     45 H         -13.2761   10.7730    0.1692 H       1  LIG1        0.0842
     46 S         -13.0280    6.2725    1.2753 S.3     1  LIG1       -0.1228
     47 H         -12.1405    5.3782    0.7854 H       1  LIG1        0.1086
     48 C         -10.8825   11.3607   -0.9491 C.1     1  LIG1       -0.0681
     49 C         -10.5379   12.4256   -1.4095 C.1     1  LIG1       -0.1139
     50 H         -10.2385   13.3633   -1.8169 H       1  LIG1        0.1232
@<TRIPOS>BOND
     1    25    24    1
     2    50    49    1
     3    24    23    3
     4    49    48    3
     5    23    17    1
     6     9    10    1
     7     9     1    1
     8    20    16    1
     9    48    41    1
    10    44    40    1
    11    33    34    1
    12    33    26    1
    13    17    16   ar
    14    17    18   ar
    15    16    15   ar
    16     1     6   ar
    17     1     2   ar
    18     6     5   ar
    19    41    40   ar
    20    41    42   ar
    21    40    39   ar
    22     8     2    1
    23    26    31   ar
    24    26    27   ar
    25     2     3   ar
    26    31    30   ar
    27    15     5    1
    28    15    14   ar
    29     5     4   ar
    30    18    27    1
    31    18    19   ar
    32    27    28   ar
    33    42    45    1
    34    42    43   ar
    35    39    30    1
    36    39    38   ar
    37    30    29   ar
    38    14    19   ar
    39    14    21    1
    40     3     4   ar
    41     3     7    1
    42    22    21    1
    43     4    11    1
    44    28    29   ar
    45    28    32    1
    46    38    43   ar
    47    38    46    1
    48    29    35    1
    49    47    46    1
    50    11    12    3
    51    35    36    3
    52    12    13    1
    53    36    37    1
