@<TRIPOS>MOLECULE
mol_data/opt/b3lyp/geoms/mol2/6ge6ge-.out
 26 27 0 0 0
SMALL
GASTEIGER

@<TRIPOS>ATOM
      1 C          -4.4080   -1.9920    0.6098 C.ar    1  LIG1        0.0947
      2 C          -3.0277   -2.0249    0.3653 C.ar    1  LIG1       -0.0288
      3 C          -2.4355   -0.8697   -0.1143 C.ar    1  LIG1       -0.0418
      4 C          -3.1963    0.2978   -0.3204 C.ar    1  LIG1        0.0508
      5 C          -4.5792    0.2398   -0.0049 C.ar    1  LIG1        0.0901
      6 N          -5.1450   -0.8967    0.4298 N.ar    1  LIG1       -0.2394
      7 H          -1.3755   -0.8520   -0.3453 H       1  LIG1        0.0631
      8 H          -2.4432   -2.9227    0.5309 H       1  LIG1        0.0644
      9 S          -5.3422   -3.3932    1.1944 S.3     1  LIG1       -0.1234
     10 H          -4.3263   -4.2786    1.1684 H       1  LIG1        0.1086
     11 C          -2.5569    1.4504   -0.8666 C.1     1  LIG1       -0.0675
     12 C          -1.9615    2.3906   -1.3421 C.1     1  LIG1       -0.1138
     13 H          -1.4620    3.2332   -1.7620 H       1  LIG1        0.1232
     14 C          -6.7386    1.4385   -0.7526 C.ar    1  LIG1        0.1032
     15 C          -5.4644    1.4331   -0.1230 C.ar    1  LIG1        0.0343
     16 C          -5.0272    2.6435    0.4207 C.ar    1  LIG1       -0.0331
     17 C          -5.7946    3.8106    0.3056 C.ar    1  LIG1        0.0434
     18 C          -7.0070    3.7004   -0.3966 C.ar    1  LIG1        0.0442
     19 N          -7.4607    2.5570   -0.8970 N.ar    1  LIG1       -0.2471
     20 H          -4.0775    2.6863    0.9406 H       1  LIG1        0.0638
     21 H          -7.6322    4.5780   -0.5436 H       1  LIG1        0.0842
     22 S          -7.5426    0.0331   -1.4906 S.3     1  LIG1       -0.1228
     23 H          -6.8124   -0.9020   -0.8480 H       1  LIG1        0.1086
     24 C          -5.3688    5.0520    0.8624 C.1     1  LIG1       -0.0681
     25 C          -5.0129    6.1092    1.3318 C.1     1  LIG1       -0.1139
     26 H          -4.7029    7.0401    1.7469 H       1  LIG1        0.1232
@<TRIPOS>BOND
     1    13    12    1
     2    22    23    1
     3    22    14    1
     4    12    11    3
     5    19    14   ar
     6    19    18   ar
     7    11     4    1
     8    14    15   ar
     9    21    18    1
    10    18    17   ar
    11     7     3    1
    12     4     3   ar
    13     4     5   ar
    14    15     5    1
    15    15    16   ar
    16     3     2   ar
    17     5     6   ar
    18    17    16   ar
    19    17    24    1
    20     2     8    1
    21     2     1   ar
    22    16    20    1
    23     6     1   ar
    24     1     9    1
    25    24    25    3
    26    10     9    1
    27    25    26    1
