@<TRIPOS>MOLECULE
mol_data/opt/b3lyp/geoms/mol2/6ge6ge-6ge-6ge-.out
 50 53 0 0 0
SMALL
GASTEIGER

@<TRIPOS>ATOM
      1 C          -4.0093   -2.1770   -0.2330 C.ar    1  LIG1        0.0947
      2 C          -2.6190   -2.0185   -0.3271 C.ar    1  LIG1       -0.0288
      3 C          -2.1237   -0.7280   -0.3877 C.ar    1  LIG1       -0.0418
      4 C          -2.9910    0.3810   -0.3292 C.ar    1  LIG1        0.0508
      5 C          -4.3787    0.1159   -0.1942 C.ar    1  LIG1        0.0901
      6 N          -4.8461   -1.1418   -0.1686 N.ar    1  LIG1       -0.2394
      7 H          -1.0577   -0.5541   -0.4889 H       1  LIG1        0.0631
      8 H          -1.9524   -2.8725   -0.3648 H       1  LIG1        0.0644
      9 S          -4.8237   -3.7601   -0.1775 S.3     1  LIG1       -0.1234
     10 H          -3.7188   -4.5093   -0.3618 H       1  LIG1        0.1086
     11 C          -2.4413    1.6918   -0.4495 C.1     1  LIG1       -0.0675
     12 C          -1.9154    2.7753   -0.5682 C.1     1  LIG1       -0.1138
     13 H          -1.4740    3.7398   -0.6732 H       1  LIG1        0.1232
     14 C          -6.6226    1.2679   -0.7463 C.ar    1  LIG1        0.1039
     15 C          -5.3804    1.2100   -0.0608 C.ar    1  LIG1        0.0344
     16 C          -5.1205    2.2628    0.8162 C.ar    1  LIG1       -0.0325
     17 C          -5.9912    3.3538    0.9611 C.ar    1  LIG1        0.0514
     18 C          -7.1488    3.3679    0.1409 C.ar    1  LIG1        0.0902
     19 N          -7.4315    2.3254   -0.6487 N.ar    1  LIG1       -0.2387
     20 H          -4.2220    2.2438    1.4210 H       1  LIG1        0.0638
     21 S          -7.2685    0.0327   -1.8490 S.3     1  LIG1       -0.1227
     22 H          -6.4932   -0.9709   -1.3812 H       1  LIG1        0.1086
     23 C          -5.6899    4.3472    1.9400 C.1     1  LIG1       -0.0675
     24 C          -5.3923    5.1524    2.7932 C.1     1  LIG1       -0.1138
     25 H          -5.1563    5.8721    3.5430 H       1  LIG1        0.1232
     26 C          -9.5142    4.4062    0.1037 C.ar    1  LIG1        0.1039
     27 C          -8.0965    4.5150    0.1146 C.ar    1  LIG1        0.0344
     28 C          -7.5852    5.8126    0.1110 C.ar    1  LIG1       -0.0325
     29 C          -8.4102    6.9471    0.1270 C.ar    1  LIG1        0.0514
     30 C          -9.8106    6.7258    0.1590 C.ar    1  LIG1        0.0902
     31 N         -10.3046    5.4828    0.1537 N.ar    1  LIG1       -0.2387
     32 H          -6.5128    5.9627    0.1041 H       1  LIG1        0.0638
     33 S         -10.4482    2.8960    0.0804 S.3     1  LIG1       -0.1227
     34 H          -9.4186    2.1160   -0.3205 H       1  LIG1        0.1086
     35 C          -7.8013    8.2373    0.1621 C.1     1  LIG1       -0.0675
     36 C          -7.2282    9.3026    0.2012 C.1     1  LIG1       -0.1138
     37 H          -6.7503   10.2544    0.2361 H       1  LIG1        0.1232
     38 C         -11.9181    7.9312    1.0334 C.ar    1  LIG1        0.1032
     39 C         -10.7917    7.8474    0.1694 C.ar    1  LIG1        0.0343
     40 C         -10.6106    8.9023   -0.7287 C.ar    1  LIG1       -0.0331
     41 C         -11.4735   10.0069   -0.7357 C.ar    1  LIG1        0.0434
     42 C         -12.5084   10.0041    0.2147 C.ar    1  LIG1        0.0442
     43 N         -12.7238    9.0009    1.0577 N.ar    1  LIG1       -0.2471
     44 H          -9.7893    8.8719   -1.4344 H       1  LIG1        0.0638
     45 H         -13.1912   10.8484    0.2782 H       1  LIG1        0.0842
     46 S         -12.4021    6.7093    2.2319 S.3     1  LIG1       -0.1228
     47 H         -11.7078    5.6922    1.6783 H       1  LIG1        0.1086
     48 C         -11.3094   11.0869   -1.6517 C.1     1  LIG1       -0.0681
     49 C         -11.1755   12.0076   -2.4258 C.1     1  LIG1       -0.1139
     50 H         -11.0616   12.8171   -3.1090 H       1  LIG1        0.1232
@<TRIPOS>BOND
     1    50    49    1
     2    49    48    3
     3    21    22    1
     4    21    14    1
     5    48    41    1
     6    44    40    1
     7    14    19   ar
     8    14    15   ar
     9    41    40   ar
    10    41    42   ar
    11    40    39   ar
    12    13    12    1
    13    19    18   ar
    14    12    11    3
    15     7     3    1
    16    11     4    1
    17     3     4   ar
    18     3     2   ar
    19     8     2    1
    20    10     9    1
    21     4     5   ar
    22     2     1   ar
    23    34    33    1
    24     1     9    1
    25     1     6   ar
    26     5     6   ar
    27     5    15    1
    28    15    16   ar
    29    33    26    1
    30    26    27   ar
    31    26    31   ar
    32    32    28    1
    33    28    27   ar
    34    28    29   ar
    35    27    18    1
    36    29    30   ar
    37    29    35    1
    38    18    17   ar
    39    31    30   ar
    40    30    39    1
    41    35    36    3
    42    39    38   ar
    43    36    37    1
    44    42    45    1
    45    42    43   ar
    46    16    17   ar
    47    16    20    1
    48    17    23    1
    49    38    43   ar
    50    38    46    1
    51    47    46    1
    52    23    24    3
    53    24    25    1
