@<TRIPOS>MOLECULE
mol_data/opt/b3lyp/geoms/mol2/6ge6ge6ge6ge-.out
 50 53 0 0 0
SMALL
GASTEIGER

@<TRIPOS>ATOM
      1 C          -3.9307   -2.1169    0.5765 C.ar    1  LIG1        0.0947
      2 C          -2.5861   -2.0031    0.1942 C.ar    1  LIG1       -0.0288
      3 C          -2.1584   -0.7787   -0.2877 C.ar    1  LIG1       -0.0418
      4 C          -3.0425    0.3159   -0.3625 C.ar    1  LIG1        0.0508
      5 C          -4.3731    0.1101    0.0862 C.ar    1  LIG1        0.0901
      6 N          -4.7810   -1.0923    0.5211 N.ar    1  LIG1       -0.2394
      7 H          -1.1346   -0.6484   -0.6221 H       1  LIG1        0.0631
      8 H          -1.9053   -2.8441    0.2589 H       1  LIG1        0.0644
      9 S          -4.6624   -3.6221    1.1864 S.3     1  LIG1       -0.1234
     10 H          -3.5804   -4.4047    1.0046 H       1  LIG1        0.1086
     11 C          -2.5728    1.5434   -0.9172 C.1     1  LIG1       -0.0675
     12 C          -2.1181    2.5521   -1.4074 C.1     1  LIG1       -0.1138
     13 H          -1.7395    3.4504   -1.8385 H       1  LIG1        0.1232
     14 C          -6.7217    1.0998   -0.3259 C.ar    1  LIG1        0.1039
     15 C          -5.3754    1.2113    0.1117 C.ar    1  LIG1        0.0344
     16 C          -5.0023    2.4550    0.6206 C.ar    1  LIG1       -0.0325
     17 C          -5.8743    3.5543    0.6344 C.ar    1  LIG1        0.0514
     18 C          -7.1623    3.3635    0.0708 C.ar    1  LIG1        0.0902
     19 N          -7.5407    2.1535   -0.3571 N.ar    1  LIG1       -0.2387
     20 H          -4.0090    2.5866    1.0321 H       1  LIG1        0.0638
     21 S          -7.5041   -0.3738   -0.9384 S.3     1  LIG1       -0.1227
     22 H          -6.6194   -1.2273   -0.3760 H       1  LIG1        0.1086
     23 C          -5.4379    4.7689    1.2430 C.1     1  LIG1       -0.0675
     24 C          -5.0174    5.7674    1.7825 C.1     1  LIG1       -0.1138
     25 H          -4.6709    6.6562    2.2576 H       1  LIG1        0.1232
     26 C          -9.5364    4.3759    0.1923 C.ar    1  LIG1        0.1039
     27 C          -8.1423    4.4737   -0.0690 C.ar    1  LIG1        0.0344
     28 C          -7.6939    5.7188   -0.5118 C.ar    1  LIG1       -0.0325
     29 C          -8.5430    6.8299   -0.6196 C.ar    1  LIG1        0.0514
     30 C          -9.8930    6.6519   -0.2196 C.ar    1  LIG1        0.0902
     31 N         -10.3381    5.4428    0.1385 N.ar    1  LIG1       -0.2387
     32 H          -6.6561    5.8409   -0.7962 H       1  LIG1        0.0638
     33 S         -10.4133    2.9068    0.6677 S.3     1  LIG1       -0.1227
     34 H          -9.4553    2.0507    0.2406 H       1  LIG1        0.1086
     35 C          -8.0206    8.0451   -1.1555 C.1     1  LIG1       -0.0675
     36 C          -7.5270    9.0444   -1.6274 C.1     1  LIG1       -0.1138
     37 H          -7.1196    9.9362   -2.0446 H       1  LIG1        0.1232
     38 C         -12.2077    7.7165   -0.6473 C.ar    1  LIG1        0.1032
     39 C         -10.8655    7.7784   -0.1769 C.ar    1  LIG1        0.0343
     40 C         -10.4473    8.9963    0.3668 C.ar    1  LIG1       -0.0331
     41 C         -11.2970   10.1100    0.3979 C.ar    1  LIG1        0.0434
     42 C         -12.5753    9.9417   -0.1616 C.ar    1  LIG1        0.0442
     43 N         -13.0114    8.7891   -0.6547 N.ar    1  LIG1       -0.2471
     44 H          -9.4474    9.0866    0.7736 H       1  LIG1        0.0638
     45 H         -13.2689   10.7789   -0.1948 H       1  LIG1        0.0842
     46 S         -13.0086    6.2877   -1.3359 S.3     1  LIG1       -0.1228
     47 H         -12.1294    5.3887   -0.8396 H       1  LIG1        0.1086
     48 C         -10.8894   11.3559    0.9583 C.1     1  LIG1       -0.0681
     49 C         -10.5502   12.4169    1.4318 C.1     1  LIG1       -0.1139
     50 H         -10.2554   13.3510    1.8507 H       1  LIG1        0.1232
@<TRIPOS>BOND
     1    37    36    1
     2    13    12    1
     3    36    35    3
     4    12    11    3
     5    46    47    1
     6    46    38    1
     7    35    29    1
     8    21    22    1
     9    21    14    1
    10    11     4    1
    11    32    28    1
    12    43    38   ar
    13    43    42   ar
    14    38    39   ar
    15     7     3    1
    16    29    28   ar
    17    29    30   ar
    18    28    27   ar
    19     4     3   ar
    20     4     5   ar
    21    19    14   ar
    22    19    18   ar
    23    14    15   ar
    24     3     2   ar
    25    30    39    1
    26    30    31   ar
    27    45    42    1
    28    39    40   ar
    29    42    41   ar
    30    27    18    1
    31    27    26   ar
    32    18    17   ar
    33     5    15    1
    34     5     6   ar
    35    15    16   ar
    36    31    26   ar
    37    26    33    1
    38     2     8    1
    39     2     1   ar
    40    34    33    1
    41    40    41   ar
    42    40    44    1
    43    41    48    1
    44     6     1   ar
    45     1     9    1
    46    16    17   ar
    47    16    20    1
    48    17    23    1
    49    48    49    3
    50    10     9    1
    51    23    24    3
    52    49    50    1
    53    24    25    1
