@<TRIPOS>MOLECULE
mol_data/opt/b3lyp/geoms/mol2/6ge6ge6ge-6ge-.out
 50 53 0 0 0
SMALL
GASTEIGER

@<TRIPOS>ATOM
      1 C          -3.9040   -2.1019   -0.5844 C.ar    1  LIG1        0.0947
      2 C          -2.5710   -1.9926   -0.1625 C.ar    1  LIG1       -0.0288
      3 C          -2.1593   -0.7759    0.3518 C.ar    1  LIG1       -0.0418
      4 C          -3.0472    0.3160    0.4201 C.ar    1  LIG1        0.0508
      5 C          -4.3642    0.1159   -0.0696 C.ar    1  LIG1        0.0901
      6 N          -4.7574   -1.0795   -0.5359 N.ar    1  LIG1       -0.2394
      7 H          -1.1456   -0.6499    0.7173 H       1  LIG1        0.0631
      8 H          -1.8869   -2.8314   -0.2221 H       1  LIG1        0.0644
      9 S          -4.6154   -3.5976   -1.2398 S.3     1  LIG1       -0.1234
     10 H          -3.5376   -4.3817   -1.0407 H       1  LIG1        0.1086
     11 C          -2.5957    1.5345    1.0087 C.1     1  LIG1       -0.0675
     12 C          -2.1568    2.5355    1.5284 C.1     1  LIG1       -0.1138
     13 H          -1.7924    3.4269    1.9853 H       1  LIG1        0.1232
     14 C          -6.7255    1.0955    0.2919 C.ar    1  LIG1        0.1039
     15 C          -5.3674    1.2161   -0.1050 C.ar    1  LIG1        0.0344
     16 C          -4.9820    2.4687   -0.5820 C.ar    1  LIG1       -0.0325
     17 C          -5.8552    3.5669   -0.6023 C.ar    1  LIG1        0.0514
     18 C          -7.1585    3.3650   -0.0793 C.ar    1  LIG1        0.0902
     19 N          -7.5469    2.1475    0.3172 N.ar    1  LIG1       -0.2387
     20 H          -3.9776    2.6085   -0.9627 H       1  LIG1        0.0638
     21 S          -7.5223   -0.3892    0.8570 S.3     1  LIG1       -0.1227
     22 H          -6.6209   -1.2319    0.3051 H       1  LIG1        0.1086
     23 C          -5.4037    4.7923   -1.1776 C.1     1  LIG1       -0.0675
     24 C          -4.9698    5.8003   -1.6878 C.1     1  LIG1       -0.1138
     25 H          -4.6116    6.6977   -2.1375 H       1  LIG1        0.1232
     26 C          -9.5298    4.3759   -0.2523 C.ar    1  LIG1        0.1039
     27 C          -8.1442    4.4713    0.0509 C.ar    1  LIG1        0.0344
     28 C          -7.7111    5.7093    0.5276 C.ar    1  LIG1       -0.0325
     29 C          -8.5651    6.8172    0.6297 C.ar    1  LIG1        0.0514
     30 C          -9.9026    6.6441    0.1878 C.ar    1  LIG1        0.0902
     31 N         -10.3349    5.4407   -0.2036 N.ar    1  LIG1       -0.2387
     32 H          -6.6821    5.8281    0.8439 H       1  LIG1        0.0638
     33 S         -10.3899    2.9140   -0.7779 S.3     1  LIG1       -0.1227
     34 H          -9.4432    2.0519   -0.3378 H       1  LIG1        0.1086
     35 C          -8.0607    8.0237    1.2012 C.1     1  LIG1       -0.0675
     36 C          -7.5828    9.0155    1.7042 C.1     1  LIG1       -0.1138
     37 H          -7.1893    9.9005    2.1482 H       1  LIG1        0.1232
     38 C         -12.2307    7.6981    0.5670 C.ar    1  LIG1        0.1032
     39 C         -10.8757    7.7699    0.1364 C.ar    1  LIG1        0.0343
     40 C         -10.4442    8.9976   -0.3738 C.ar    1  LIG1       -0.0331
     41 C         -11.2945   10.1107   -0.4097 C.ar    1  LIG1        0.0434
     42 C         -12.5880    9.9311    0.1101 C.ar    1  LIG1        0.0442
     43 N         -13.0361    8.7695    0.5703 N.ar    1  LIG1       -0.2471
     44 H          -9.4332    9.0962   -0.7502 H       1  LIG1        0.0638
     45 H         -13.2836   10.7668    0.1382 H       1  LIG1        0.0842
     46 S         -13.0490    6.2564    1.2065 S.3     1  LIG1       -0.1228
     47 H         -12.1535    5.3674    0.7215 H       1  LIG1        0.1086
     48 C         -10.8732   11.3666   -0.9366 C.1     1  LIG1       -0.0681
     49 C         -10.5224   12.4360   -1.3817 C.1     1  LIG1       -0.1139
     50 H         -10.2174   13.3777   -1.7756 H       1  LIG1        0.1232
@<TRIPOS>BOND
     1    25    24    1
     2    50    49    1
     3    24    23    3
     4    49    48    3
     5     9    10    1
     6     9     1    1
     7    23    17    1
     8    20    16    1
     9    48    41    1
    10    33    34    1
    11    33    26    1
    12    44    40    1
    13    17    16   ar
    14    17    18   ar
    15     1     6   ar
    16     1     2   ar
    17    16    15   ar
    18     6     5   ar
    19    41    40   ar
    20    41    42   ar
    21    40    39   ar
    22    26    31   ar
    23    26    27   ar
    24     8     2    1
    25    31    30   ar
    26     2     3   ar
    27    15     5    1
    28    15    14   ar
    29    18    27    1
    30    18    19   ar
    31     5     4   ar
    32    27    28   ar
    33    42    45    1
    34    42    43   ar
    35    39    30    1
    36    39    38   ar
    37    30    29   ar
    38    14    19   ar
    39    14    21    1
    40    22    21    1
    41     3     4   ar
    42     3     7    1
    43     4    11    1
    44    28    29   ar
    45    28    32    1
    46    38    43   ar
    47    38    46    1
    48    29    35    1
    49    47    46    1
    50    11    12    3
    51    35    36    3
    52    12    13    1
    53    36    37    1
