@<TRIPOS>MOLECULE
mol_data/opt/b3lyp/geoms/mol2/6ge6ge-6ge-.out
 38 40 0 0 0
SMALL
GASTEIGER

@<TRIPOS>ATOM
      1 C          -4.1585   -2.1157    0.2801 C.ar    1  LIG1        0.0947
      2 C          -2.7910   -2.0224   -0.0162 C.ar    1  LIG1       -0.0288
      3 C          -2.2936   -0.7775   -0.3589 C.ar    1  LIG1       -0.0418
      4 C          -3.1330    0.3538   -0.3803 C.ar    1  LIG1        0.0508
      5 C          -4.4939    0.1625   -0.0245 C.ar    1  LIG1        0.0901
      6 N          -4.9678   -1.0571    0.2746 N.ar    1  LIG1       -0.2394
      7 H          -1.2482   -0.6587   -0.6239 H       1  LIG1        0.0631
      8 H          -2.1448   -2.8925    0.0077 H       1  LIG1        0.0644
      9 S          -4.9770   -3.6396    0.7068 S.3     1  LIG1       -0.1234
     10 H          -3.9144   -4.4456    0.5124 H       1  LIG1        0.1086
     11 C          -2.5896    1.6061   -0.7944 C.1     1  LIG1       -0.0675
     12 C          -2.0724    2.6354   -1.1653 C.1     1  LIG1       -0.1138
     13 H          -1.6397    3.5534   -1.4909 H       1  LIG1        0.1232
     14 C          -6.7764    1.2836   -0.4729 C.ar    1  LIG1        0.1039
     15 C          -5.4558    1.2969    0.0487 C.ar    1  LIG1        0.0344
     16 C          -5.0691    2.4716    0.6938 C.ar    1  LIG1       -0.0325
     17 C          -5.9006    3.5995    0.7626 C.ar    1  LIG1        0.0514
     18 C          -7.1584    3.5154    0.1114 C.ar    1  LIG1        0.0902
     19 N          -7.5546    2.3679   -0.4504 N.ar    1  LIG1       -0.2387
     20 H          -4.0982    2.5231    1.1717 H       1  LIG1        0.0638
     21 S          -7.5746   -0.0929   -1.2664 S.3     1  LIG1       -0.1227
     22 H          -6.7506   -1.0320   -0.7517 H       1  LIG1        0.1086
     23 C          -5.4597    4.7351    1.5057 C.1     1  LIG1       -0.0675
     24 C          -5.0395    5.6636    2.1584 C.1     1  LIG1       -0.1138
     25 H          -4.6954    6.4935    2.7315 H       1  LIG1        0.1232
     26 C          -9.4890    4.6189    0.2521 C.ar    1  LIG1        0.1032
     27 C          -8.0860    4.6765    0.0205 C.ar    1  LIG1        0.0343
     28 C          -7.5567    5.9249   -0.3185 C.ar    1  LIG1       -0.0331
     29 C          -8.3665    7.0669   -0.3780 C.ar    1  LIG1        0.0434
     30 C          -9.7244    6.8924   -0.0598 C.ar    1  LIG1        0.0442
     31 N         -10.2609    5.7143    0.2342 N.ar    1  LIG1       -0.2471
     32 H          -6.5004    6.0173   -0.5404 H       1  LIG1        0.0638
     33 H         -10.3967    7.7474   -0.0582 H       1  LIG1        0.0842
     34 S         -10.4235    3.1608    0.6508 S.3     1  LIG1       -0.1228
     35 H          -9.4936    2.2801    0.2197 H       1  LIG1        0.1086
     36 C          -7.8449    8.3452   -0.7331 C.1     1  LIG1       -0.0681
     37 C          -7.4094    9.4338   -1.0332 C.1     1  LIG1       -0.1139
     38 H          -7.0293   10.3927   -1.2998 H       1  LIG1        0.1232
@<TRIPOS>BOND
     1    13    12    1
     2    38    37    1
     3    21    22    1
     4    21    14    1
     5    12    11    3
     6    37    36    3
     7    11     4    1
     8    36    29    1
     9     7     3    1
    10    32    28    1
    11    14    19   ar
    12    14    15   ar
    13    19    18   ar
    14     4     3   ar
    15     4     5   ar
    16    29    28   ar
    17    29    30   ar
    18     3     2   ar
    19    28    27   ar
    20    30    33    1
    21    30    31   ar
    22     5    15    1
    23     5     6   ar
    24     2     8    1
    25     2     1   ar
    26    27    18    1
    27    27    26   ar
    28    15    16   ar
    29    18    17   ar
    30    35    34    1
    31    31    26   ar
    32    26    34    1
    33     6     1   ar
    34     1     9    1
    35    10     9    1
    36    16    17   ar
    37    16    20    1
    38    17    23    1
    39    23    24    3
    40    24    25    1
