@<TRIPOS>MOLECULE
mol_data/opt/b3lyp/geoms/mol2/6ge6ge-6ge6ge.out
 50 53 0 0 0
SMALL
GASTEIGER

@<TRIPOS>ATOM
      1 C          -3.8999   -2.0996    0.5900 C.ar    1  LIG1        0.0947
      2 C          -2.5658   -1.9885    0.1718 C.ar    1  LIG1       -0.0288
      3 C          -2.1540   -0.7709   -0.3401 C.ar    1  LIG1       -0.0418
      4 C          -3.0429    0.3201   -0.4096 C.ar    1  LIG1        0.0508
      5 C          -4.3609    0.1183    0.0763 C.ar    1  LIG1        0.0901
      6 N          -4.7541   -1.0780    0.5404 N.ar    1  LIG1       -0.2394
      7 H          -1.1394   -0.6434   -0.7026 H       1  LIG1        0.0631
      8 H          -1.8811   -2.8267    0.2325 H       1  LIG1        0.0644
      9 S          -4.6115   -3.5968    1.2419 S.3     1  LIG1       -0.1234
     10 H          -3.5322   -4.3794    1.0452 H       1  LIG1        0.1086
     11 C          -2.5910    1.5397   -0.9957 C.1     1  LIG1       -0.0675
     12 C          -2.1517    2.5417   -1.5133 C.1     1  LIG1       -0.1138
     13 H          -1.7869    3.4338   -1.9683 H       1  LIG1        0.1232
     14 C          -6.7220    1.0960   -0.2913 C.ar    1  LIG1        0.1039
     15 C          -5.3654    1.2174    0.1101 C.ar    1  LIG1        0.0344
     16 C          -4.9827    2.4700    0.5895 C.ar    1  LIG1       -0.0325
     17 C          -5.8570    3.5674    0.6080 C.ar    1  LIG1        0.0514
     18 C          -7.1583    3.3648    0.0803 C.ar    1  LIG1        0.0902
     19 N          -7.5443    2.1473   -0.3186 N.ar    1  LIG1       -0.2387
     20 H          -3.9796    2.6103    0.9735 H       1  LIG1        0.0638
     21 S          -7.5161   -0.3890   -0.8596 S.3     1  LIG1       -0.1227
     22 H          -6.6146   -1.2314   -0.3074 H       1  LIG1        0.1086
     23 C          -5.4087    4.7925    1.1861 C.1     1  LIG1       -0.0675
     24 C          -4.9777    5.8004    1.6990 C.1     1  LIG1       -0.1138
     25 H          -4.6218    6.6976    2.1510 H       1  LIG1        0.1232
     26 C          -9.5309    4.3740    0.2457 C.ar    1  LIG1        0.1039
     27 C          -8.1443    4.4705   -0.0526 C.ar    1  LIG1        0.0344
     28 C          -7.7104    5.7091   -0.5267 C.ar    1  LIG1       -0.0325
     29 C          -8.5647    6.8165   -0.6311 C.ar    1  LIG1        0.0514
     30 C          -9.9037    6.6421   -0.1943 C.ar    1  LIG1        0.0902
     31 N         -10.3366    5.4382    0.1948 N.ar    1  LIG1       -0.2387
     32 H          -6.6803    5.8288   -0.8393 H       1  LIG1        0.0638
     33 S         -10.3918    2.9111    0.7673 S.3     1  LIG1       -0.1227
     34 H          -9.4430    2.0500    0.3302 H       1  LIG1        0.1086
     35 C          -8.0590    8.0239   -1.1996 C.1     1  LIG1       -0.0675
     36 C          -7.5798    9.0164   -1.6999 C.1     1  LIG1       -0.1138
     37 H          -7.1851    9.9020   -2.1416 H       1  LIG1        0.1232
     38 C         -12.2310    7.6946   -0.5818 C.ar    1  LIG1        0.1032
     39 C         -10.8778    7.7671   -0.1456 C.ar    1  LIG1        0.0343
     40 C         -10.4494    8.9947    0.3675 C.ar    1  LIG1       -0.0331
     41 C         -11.3008   10.1070    0.4010 C.ar    1  LIG1        0.0434
     42 C         -12.5919    9.9269   -0.1243 C.ar    1  LIG1        0.0442
     43 N         -13.0372    8.7654   -0.5875 N.ar    1  LIG1       -0.2471
     44 H          -9.4400    9.0938    0.7480 H       1  LIG1        0.0638
     45 H         -13.2881   10.7620   -0.1545 H       1  LIG1        0.0842
     46 S         -13.0453    6.2529   -1.2260 S.3     1  LIG1       -0.1228
     47 H         -12.1512    5.3641   -0.7383 H       1  LIG1        0.1086
     48 C         -10.8826   11.3628    0.9307 C.1     1  LIG1       -0.0681
     49 C         -10.5345   12.4321    1.3782 C.1     1  LIG1       -0.1139
     50 H         -10.2317   13.3736    1.7742 H       1  LIG1        0.1232
@<TRIPOS>BOND
     1    37    36    1
     2    13    12    1
     3    36    35    3
     4    12    11    3
     5    46    47    1
     6    46    38    1
     7    35    29    1
     8    11     4    1
     9    21    22    1
    10    21    14    1
    11    32    28    1
    12     7     3    1
    13    29    28   ar
    14    29    30   ar
    15    43    38   ar
    16    43    42   ar
    17    38    39   ar
    18    28    27   ar
    19     4     3   ar
    20     4     5   ar
    21     3     2   ar
    22    19    14   ar
    23    19    18   ar
    24    14    15   ar
    25    30    39    1
    26    30    31   ar
    27    45    42    1
    28    39    40   ar
    29    42    41   ar
    30    27    18    1
    31    27    26   ar
    32     5    15    1
    33     5     6   ar
    34    18    17   ar
    35    15    16   ar
    36     2     8    1
    37     2     1   ar
    38    31    26   ar
    39    26    33    1
    40    34    33    1
    41    40    41   ar
    42    40    44    1
    43    41    48    1
    44     6     1   ar
    45    16    17   ar
    46    16    20    1
    47     1     9    1
    48    17    23    1
    49    48    49    3
    50    10     9    1
    51    23    24    3
    52    49    50    1
    53    24    25    1
