@<TRIPOS>MOLECULE
mol_data/opt/b3lyp/geoms/mol2/6ge6ge-6ge.out
 38 40 0 0 0
SMALL
GASTEIGER

@<TRIPOS>ATOM
      1 C          -4.1635   -2.1175    0.2767 C.ar    1  LIG1        0.0947
      2 C          -2.8005   -2.0284   -0.0408 C.ar    1  LIG1       -0.0288
      3 C          -2.3060   -0.7863   -0.3977 C.ar    1  LIG1       -0.0418
      4 C          -3.1437    0.3464   -0.4123 C.ar    1  LIG1        0.0508
      5 C          -4.4993    0.1597   -0.0350 C.ar    1  LIG1        0.0901
      6 N          -4.9709   -1.0574    0.2776 N.ar    1  LIG1       -0.2394
      7 H          -1.2647   -0.6710   -0.6792 H       1  LIG1        0.0631
      8 H          -2.1558   -2.8996   -0.0223 H       1  LIG1        0.0644
      9 S          -4.9781   -3.6376    0.7241 S.3     1  LIG1       -0.1234
     10 H          -3.9201   -4.4466    0.5176 H       1  LIG1        0.1086
     11 C          -2.6042    1.5955   -0.8411 C.1     1  LIG1       -0.0675
     12 C          -2.0908    2.6219   -1.2252 C.1     1  LIG1       -0.1138
     13 H          -1.6617    3.5375   -1.5622 H       1  LIG1        0.1232
     14 C          -6.7862    1.2829   -0.4548 C.ar    1  LIG1        0.1039
     15 C          -5.4578    1.2963    0.0465 C.ar    1  LIG1        0.0344
     16 C          -5.0591    2.4736    0.6796 C.ar    1  LIG1       -0.0325
     17 C          -5.8874    3.6034    0.7551 C.ar    1  LIG1        0.0514
     18 C          -7.1551    3.5185    0.1236 C.ar    1  LIG1        0.0902
     19 N          -7.5620    2.3688   -0.4261 N.ar    1  LIG1       -0.2387
     20 H          -4.0810    2.5257    1.1424 H       1  LIG1        0.0638
     21 S          -7.5988   -0.0961   -1.2290 S.3     1  LIG1       -0.1227
     22 H          -6.7695   -1.0342   -0.7207 H       1  LIG1        0.1086
     23 C          -5.4330    4.7421    1.4854 C.1     1  LIG1       -0.0675
     24 C          -5.0010    5.6732    2.1266 C.1     1  LIG1       -0.1138
     25 H          -4.6465    6.5052    2.6902 H       1  LIG1        0.1232
     26 C          -9.4812    4.6270    0.2941 C.ar    1  LIG1        0.1032
     27 C          -8.0819    4.6809    0.0407 C.ar    1  LIG1        0.0343
     28 C          -7.5556    5.9265   -0.3129 C.ar    1  LIG1       -0.0331
     29 C          -8.3643    7.0696   -0.3660 C.ar    1  LIG1        0.0434
     30 C          -9.7175    6.8992   -0.0261 C.ar    1  LIG1        0.0442
     31 N         -10.2514    5.7236    0.2824 N.ar    1  LIG1       -0.2471
     32 H          -6.5027    6.0158   -0.5513 H       1  LIG1        0.0638
     33 H         -10.3882    7.7554   -0.0187 H       1  LIG1        0.0842
     34 S         -10.4119    3.1725    0.7149 S.3     1  LIG1       -0.1228
     35 H          -9.4904    2.2880    0.2738 H       1  LIG1        0.1086
     36 C          -7.8462    8.3451   -0.7358 C.1     1  LIG1       -0.0681
     37 C          -7.4135    9.4313   -1.0485 C.1     1  LIG1       -0.1139
     38 H          -7.0360   10.3881   -1.3260 H       1  LIG1        0.1232
@<TRIPOS>BOND
     1    13    12    1
     2    38    37    1
     3    21    22    1
     4    21    14    1
     5    12    11    3
     6    37    36    3
     7    11     4    1
     8    36    29    1
     9     7     3    1
    10    32    28    1
    11    14    19   ar
    12    14    15   ar
    13    19    18   ar
    14     4     3   ar
    15     4     5   ar
    16     3     2   ar
    17    29    28   ar
    18    29    30   ar
    19    28    27   ar
    20     2     8    1
    21     2     1   ar
    22     5    15    1
    23     5     6   ar
    24    30    33    1
    25    30    31   ar
    26    27    18    1
    27    27    26   ar
    28    15    16   ar
    29    18    17   ar
    30    35    34    1
    31     1     6   ar
    32     1     9    1
    33    31    26   ar
    34    26    34    1
    35    10     9    1
    36    16    17   ar
    37    16    20    1
    38    17    23    1
    39    23    24    3
    40    24    25    1
