@<TRIPOS>MOLECULE
mol_data/opt/b3lyp/geoms/mol2/6ge6ge-6ge6ge-.out
 50 53 0 0 0
SMALL
GASTEIGER

@<TRIPOS>ATOM
      1 C          -3.9187   -2.1104    0.5796 C.ar    1  LIG1        0.0947
      2 C          -2.5763   -1.9958    0.1900 C.ar    1  LIG1       -0.0288
      3 C          -2.1530   -0.7726   -0.2986 C.ar    1  LIG1       -0.0418
      4 C          -3.0392    0.3203   -0.3730 C.ar    1  LIG1        0.0508
      5 C          -4.3671    0.1142    0.0836 C.ar    1  LIG1        0.0901
      6 N          -4.7708   -1.0872    0.5249 N.ar    1  LIG1       -0.2394
      7 H          -1.1311   -0.6420   -0.6388 H       1  LIG1        0.0631
      8 H          -1.8937   -2.8355    0.2545 H       1  LIG1        0.0644
      9 S          -4.6450   -3.6145    1.1985 S.3     1  LIG1       -0.1234
     10 H          -3.5628   -4.3960    1.0141 H       1  LIG1        0.1086
     11 C          -2.5743    1.5463   -0.9349 C.1     1  LIG1       -0.0675
     12 C          -2.1236    2.5539   -1.4313 C.1     1  LIG1       -0.1138
     13 H          -1.7487    3.4510   -1.8680 H       1  LIG1        0.1232
     14 C          -6.7194    1.0992   -0.3193 C.ar    1  LIG1        0.1039
     15 C          -5.3709    1.2141    0.1104 C.ar    1  LIG1        0.0344
     16 C          -4.9966    2.4602    0.6127 C.ar    1  LIG1       -0.0325
     17 C          -5.8701    3.5583    0.6274 C.ar    1  LIG1        0.0514
     18 C          -7.1609    3.3637    0.0716 C.ar    1  LIG1        0.0902
     19 N          -7.5400    2.1516   -0.3497 N.ar    1  LIG1       -0.2387
     20 H          -4.0012    2.5946    1.0183 H       1  LIG1        0.0638
     21 S          -7.5030   -0.3777   -0.9222 S.3     1  LIG1       -0.1227
     22 H          -6.6145   -1.2279   -0.3610 H       1  LIG1        0.1086
     23 C          -5.4321    4.7757    1.2292 C.1     1  LIG1       -0.0675
     24 C          -5.0103    5.7767    1.7630 C.1     1  LIG1       -0.1138
     25 H          -4.6628    6.6677    2.2331 H       1  LIG1        0.1232
     26 C          -9.5355    4.3735    0.2026 C.ar    1  LIG1        0.1039
     27 C          -8.1431    4.4721   -0.0667 C.ar    1  LIG1        0.0344
     28 C          -7.6987    5.7161   -0.5166 C.ar    1  LIG1       -0.0325
     29 C          -8.5498    6.8257   -0.6240 C.ar    1  LIG1        0.0514
     30 C          -9.8973    6.6474   -0.2159 C.ar    1  LIG1        0.0902
     31 N         -10.3390    5.4392    0.1492 N.ar    1  LIG1       -0.2387
     32 H          -6.6626    5.8385   -0.8073 H       1  LIG1        0.0638
     33 S         -10.4080    2.9052    0.6882 S.3     1  LIG1       -0.1227
     34 H          -9.4514    2.0485    0.2592 H       1  LIG1        0.1086
     35 C          -8.0318    8.0395   -1.1672 C.1     1  LIG1       -0.0675
     36 C          -7.5418    9.0374   -1.6456 C.1     1  LIG1       -0.1138
     37 H          -7.1375    9.9281   -2.0683 H       1  LIG1        0.1232
     38 C         -12.2156    7.7077   -0.6356 C.ar    1  LIG1        0.1032
     39 C         -10.8711    7.7730   -0.1723 C.ar    1  LIG1        0.0343
     40 C         -10.4515    8.9935    0.3644 C.ar    1  LIG1       -0.0331
     41 C         -11.3024   10.1064    0.3954 C.ar    1  LIG1        0.0434
     42 C         -12.5833    9.9344   -0.1570 C.ar    1  LIG1        0.0442
     43 N         -13.0206    8.7793   -0.6433 N.ar    1  LIG1       -0.2471
     44 H          -9.4497    9.0866    0.7657 H       1  LIG1        0.0638
     45 H         -13.2780   10.7707   -0.1901 H       1  LIG1        0.0842
     46 S         -13.0187    6.2752   -1.3138 S.3     1  LIG1       -0.1228
     47 H         -12.1353    5.3791   -0.8199 H       1  LIG1        0.1086
     48 C         -10.8933   11.3549    0.9488 C.1     1  LIG1       -0.0681
     49 C         -10.5528   12.4181    1.4163 C.1     1  LIG1       -0.1139
     50 H         -10.2569   13.3542    1.8298 H       1  LIG1        0.1232
@<TRIPOS>BOND
     1    37    36    1
     2    13    12    1
     3    36    35    3
     4    12    11    3
     5    46    47    1
     6    46    38    1
     7    35    29    1
     8    11     4    1
     9    21    22    1
    10    21    14    1
    11    32    28    1
    12    43    38   ar
    13    43    42   ar
    14     7     3    1
    15    38    39   ar
    16    29    28   ar
    17    29    30   ar
    18    28    27   ar
    19     4     3   ar
    20     4     5   ar
    21    19    14   ar
    22    19    18   ar
    23    14    15   ar
    24     3     2   ar
    25    30    39    1
    26    30    31   ar
    27    45    42    1
    28    39    40   ar
    29    42    41   ar
    30    27    18    1
    31    27    26   ar
    32    18    17   ar
    33     5    15    1
    34     5     6   ar
    35    15    16   ar
    36    31    26   ar
    37     2     8    1
    38     2     1   ar
    39    26    33    1
    40    34    33    1
    41    40    41   ar
    42    40    44    1
    43    41    48    1
    44     6     1   ar
    45     1     9    1
    46    16    17   ar
    47    16    20    1
    48    17    23    1
    49    48    49    3
    50    10     9    1
    51    23    24    3
    52    49    50    1
    53    24    25    1
