@<TRIPOS>MOLECULE
mol_data/opt/b3lyp/geoms/mol2/6ge6ge6ge-.out
 38 40 0 0 0
SMALL
GASTEIGER

@<TRIPOS>ATOM
      1 C          -4.1666   -2.1180   -0.2816 C.ar    1  LIG1        0.0947
      2 C          -2.8083   -2.0333    0.0566 C.ar    1  LIG1       -0.0288
      3 C          -2.3173   -0.7945    0.4293 C.ar    1  LIG1       -0.0418
      4 C          -3.1533    0.3394    0.4396 C.ar    1  LIG1        0.0508
      5 C          -4.5035    0.1574    0.0409 C.ar    1  LIG1        0.0901
      6 N          -4.9722   -1.0567   -0.2871 N.ar    1  LIG1       -0.2394
      7 H          -1.2800   -0.6828    0.7270 H       1  LIG1        0.0631
      8 H          -2.1646   -2.9053    0.0414 H       1  LIG1        0.0644
      9 S          -4.9768   -3.6336   -0.7515 S.3     1  LIG1       -0.1234
     10 H          -3.9231   -4.4457   -0.5357 H       1  LIG1        0.1086
     11 C          -2.6185    1.5847    0.8851 C.1     1  LIG1       -0.0675
     12 C          -2.1095    2.6076    1.2839 C.1     1  LIG1       -0.1138
     13 H          -1.6840    3.5202    1.6336 H       1  LIG1        0.1232
     14 C          -6.7947    1.2812    0.4348 C.ar    1  LIG1        0.1039
     15 C          -5.4591    1.2961   -0.0468 C.ar    1  LIG1        0.0344
     16 C          -5.0494    2.4771   -0.6658 C.ar    1  LIG1       -0.0325
     17 C          -5.8749    3.6087   -0.7457 C.ar    1  LIG1        0.0514
     18 C          -7.1519    3.5212   -0.1337 C.ar    1  LIG1        0.0902
     19 N          -7.5685    2.3685    0.4022 N.ar    1  LIG1       -0.2387
     20 H          -4.0645    2.5309   -1.1137 H       1  LIG1        0.0638
     21 S          -7.6205   -0.1018    1.1876 S.3     1  LIG1       -0.1227
     22 H          -6.7849   -1.0376    0.6856 H       1  LIG1        0.1086
     23 C          -5.4081    4.7517   -1.4613 C.1     1  LIG1       -0.0675
     24 C          -4.9654    5.6866   -2.0895 C.1     1  LIG1       -0.1138
     25 H          -4.6014    6.5220   -2.6419 H       1  LIG1        0.1232
     26 C          -9.4738    4.6341   -0.3315 C.ar    1  LIG1        0.1032
     27 C          -8.0784    4.6844   -0.0566 C.ar    1  LIG1        0.0343
     28 C          -7.5560    5.9268    0.3134 C.ar    1  LIG1       -0.0331
     29 C          -8.3640    7.0706    0.3622 C.ar    1  LIG1        0.0434
     30 C          -9.7120    6.9043    0.0008 C.ar    1  LIG1        0.0442
     31 N         -10.2427    5.7316   -0.3238 N.ar    1  LIG1       -0.2471
     32 H          -6.5066    6.0130    0.5682 H       1  LIG1        0.0638
     33 H         -10.3815    7.7615   -0.0109 H       1  LIG1        0.0842
     34 S         -10.3998    3.1837   -0.7762 S.3     1  LIG1       -0.1228
     35 H          -9.4861    2.2950   -0.3279 H       1  LIG1        0.1086
     36 C          -7.8498    8.3428    0.7485 C.1     1  LIG1       -0.0681
     37 C          -7.4204    9.4262    1.0751 C.1     1  LIG1       -0.1139
     38 H          -7.0459   10.3806    1.3648 H       1  LIG1        0.1232
@<TRIPOS>BOND
     1    25    24    1
     2    24    23    3
     3    23    17    1
     4    20    16    1
     5    34    26    1
     6    34    35    1
     7     9    10    1
     8     9     1    1
     9    17    16   ar
    10    17    18   ar
    11    16    15   ar
    12    26    31   ar
    13    26    27   ar
    14    31    30   ar
    15     6     1   ar
    16     6     5   ar
    17     1     2   ar
    18    18    27    1
    19    18    19   ar
    20    27    28   ar
    21    15     5    1
    22    15    14   ar
    23    33    30    1
    24    30    29   ar
    25     5     4   ar
    26     8     2    1
    27     2     3   ar
    28    28    29   ar
    29    28    32    1
    30    29    36    1
    31    19    14   ar
    32     3     4   ar
    33     3     7    1
    34    14    21    1
    35     4    11    1
    36    22    21    1
    37    36    37    3
    38    11    12    3
    39    37    38    1
    40    12    13    1
