@<TRIPOS>MOLECULE
mol_data/opt/b3lyp/geoms/mol2/6ge6ge6ge.out
 38 40 0 0 0
SMALL
GASTEIGER

@<TRIPOS>ATOM
      1 C          -4.1229   -1.8785   -1.2216 C.ar    1  LIG1        0.0947
      2 C          -2.8820   -2.0392   -0.5882 C.ar    1  LIG1       -0.0288
      3 C          -2.4825   -1.0534    0.2968 C.ar    1  LIG1       -0.0418
      4 C          -3.2871    0.0805    0.5248 C.ar    1  LIG1        0.0508
      5 C          -4.5046    0.1709   -0.1992 C.ar    1  LIG1        0.0901
      6 N          -4.8949   -0.8098   -1.0281 N.ar    1  LIG1       -0.2394
      7 H          -1.5447   -1.1464    0.8345 H       1  LIG1        0.0631
      8 H          -2.2609   -2.9090   -0.7696 H       1  LIG1        0.0644
      9 S          -4.8143   -3.0639   -2.3581 S.3     1  LIG1       -0.1234
     10 H          -3.8472   -3.9924   -2.2197 H       1  LIG1        0.1086
     11 C          -2.8649    1.0429    1.4895 C.1     1  LIG1       -0.0675
     12 C          -2.4622    1.8179    2.3272 C.1     1  LIG1       -0.1138
     13 H          -2.1317    2.5144    3.0633 H       1  LIG1        0.1232
     14 C          -6.8113    1.2960    0.0812 C.ar    1  LIG1        0.1039
     15 C          -5.4029    1.3542   -0.0900 C.ar    1  LIG1        0.0344
     16 C          -4.8473    2.6316   -0.1456 C.ar    1  LIG1       -0.0325
     17 C          -5.6223    3.7939   -0.0135 C.ar    1  LIG1        0.0514
     18 C          -7.0143    3.6215    0.1934 C.ar    1  LIG1        0.0902
     19 N          -7.5509    2.3967    0.2402 N.ar    1  LIG1       -0.2387
     20 H          -3.7792    2.7433   -0.2864 H       1  LIG1        0.0638
     21 S          -7.7930   -0.1836    0.1736 S.3     1  LIG1       -0.1227
     22 H          -6.8636   -0.9976   -0.3702 H       1  LIG1        0.1086
     23 C          -4.9689    5.0622   -0.0429 C.1     1  LIG1       -0.0675
     24 C          -4.3588    6.1071   -0.0662 C.1     1  LIG1       -0.1138
     25 H          -3.8465    7.0414   -0.0830 H       1  LIG1        0.1232
     26 C          -8.9381    4.8959    1.3467 C.ar    1  LIG1        0.1032
     27 C          -7.9439    4.7772    0.3376 C.ar    1  LIG1        0.0343
     28 C          -7.8476    5.8299   -0.5759 C.ar    1  LIG1       -0.0331
     29 C          -8.6641    6.9640   -0.4654 C.ar    1  LIG1        0.0434
     30 C          -9.5616    6.9914    0.6156 C.ar    1  LIG1        0.0442
     31 N          -9.6958    5.9921    1.4799 N.ar    1  LIG1       -0.2471
     32 H          -7.1298    5.7747   -1.3854 H       1  LIG1        0.0638
     33 H         -10.2001    7.8581    0.7707 H       1  LIG1        0.0842
     34 S          -9.2949    3.6870    2.6022 S.3     1  LIG1       -0.1228
     35 H          -8.7166    2.6481    1.9635 H       1  LIG1        0.1086
     36 C          -8.5863    8.0433   -1.3935 C.1     1  LIG1       -0.0681
     37 C          -8.5247    8.9636   -2.1771 C.1     1  LIG1       -0.1139
     38 H          -8.4746    9.7729   -2.8681 H       1  LIG1        0.1232
@<TRIPOS>BOND
     1    38    37    1
     2     9    10    1
     3     9     1    1
     4    37    36    3
     5    36    29    1
     6    32    28    1
     7     1     6   ar
     8     1     2   ar
     9     6     5   ar
    10     8     2    1
    11     2     3   ar
    12    28    29   ar
    13    28    27   ar
    14    29    30   ar
    15    22    21    1
    16    20    16    1
    17     5    15    1
    18     5     4   ar
    19    16    15   ar
    20    16    17   ar
    21    15    14   ar
    22    25    24    1
    23    24    23    3
    24    23    17    1
    25    17    18   ar
    26    14    21    1
    27    14    19   ar
    28    18    19   ar
    29    18    27    1
    30     3     4   ar
    31     3     7    1
    32    27    26   ar
    33     4    11    1
    34    30    33    1
    35    30    31   ar
    36    26    31   ar
    37    26    34    1
    38    11    12    3
    39    35    34    1
    40    12    13    1
