@<TRIPOS>MOLECULE
mol_data/opt/b3lyp/geoms/mol2/6gf.out
 13 13 0 0 0
SMALL
GASTEIGER

@<TRIPOS>ATOM
      1 C          -4.5478   -1.9963    0.0001 C.ar    1  LIG1        0.0942
      2 C          -3.1437   -1.9781   -0.0000 C.ar    1  LIG1       -0.0266
      3 C          -2.4939   -0.7515   -0.0002 C.ar    1  LIG1       -0.0162
      4 C          -3.2590    0.4190   -0.0003 C.ar    1  LIG1        0.1349
      5 C          -4.6502    0.2930   -0.0002 C.ar    1  LIG1        0.0702
      6 N          -5.2807   -0.8843   -0.0000 N.ar    1  LIG1       -0.2454
      7 H          -1.4110   -0.6838   -0.0002 H       1  LIG1        0.0655
      8 H          -2.5703   -2.8996    0.0001 H       1  LIG1        0.0645
      9 H          -5.2826    1.1814   -0.0003 H       1  LIG1        0.0867
     10 S          -5.5157   -3.5050    0.0003 S.3     1  LIG1       -0.1234
     11 H          -4.4731   -4.3591    0.0003 H       1  LIG1        0.1086
     12 O          -2.6127    1.6201   -0.0004 O.3     1  LIG1       -0.5052
     13 H          -3.2657    2.3330   -0.0005 H       1  LIG1        0.2922
@<TRIPOS>BOND
     1    13    12    1
     2    12     4    1
     3     4     5   ar
     4     4     3   ar
     5     9     5    1
     6     7     3    1
     7     5     6   ar
     8     3     2   ar
     9     6     1   ar
    10     2     1   ar
    11     2     8    1
    12     1    10    1
    13    10    11    1
