@<TRIPOS>MOLECULE
mol_data/opt/b3lyp/geoms/mol2/6gf6gf-6gf.out
 35 37 0 0 0
SMALL
GASTEIGER

@<TRIPOS>ATOM
      1 C          -4.1640   -2.1435    0.2991 C.ar    1  LIG1        0.0949
      2 C          -2.8047   -2.0292   -0.0321 C.ar    1  LIG1       -0.0265
      3 C          -2.3267   -0.7832   -0.4027 C.ar    1  LIG1       -0.0155
      4 C          -3.1881    0.3197   -0.4092 C.ar    1  LIG1        0.1429
      5 C          -4.5299    0.1253   -0.0223 C.ar    1  LIG1        0.1161
      6 N          -4.9852   -1.0991    0.2988 N.ar    1  LIG1       -0.2370
      7 H          -1.2924   -0.6380   -0.6965 H       1  LIG1        0.0655
      8 H          -2.1451   -2.8897   -0.0138 H       1  LIG1        0.0645
      9 S          -4.9437   -3.6846    0.7689 S.3     1  LIG1       -0.1234
     10 H          -3.8818   -4.4762    0.5211 H       1  LIG1        0.1086
     11 O          -2.6655    1.5119   -0.8049 O.3     1  LIG1       -0.5046
     12 H          -3.3782    2.1625   -0.8898 H       1  LIG1        0.2922
     13 C          -6.7963    1.2610   -0.5075 C.ar    1  LIG1        0.1042
     14 C          -5.4856    1.2667    0.0426 C.ar    1  LIG1        0.0390
     15 C          -5.0932    2.4418    0.6946 C.ar    1  LIG1       -0.0062
     16 C          -5.9218    3.5642    0.7330 C.ar    1  LIG1        0.1435
     17 C          -7.1670    3.4941    0.0768 C.ar    1  LIG1        0.1162
     18 N          -7.5686    2.3451   -0.4857 N.ar    1  LIG1       -0.2363
     19 H          -4.1419    2.4948    1.2155 H       1  LIG1        0.0662
     20 S          -7.5633   -0.1258   -1.3275 S.3     1  LIG1       -0.1227
     21 H          -6.7833   -1.0621   -0.7416 H       1  LIG1        0.1086
     22 O          -5.4682    4.6484    1.4182 O.3     1  LIG1       -0.5046
     23 H          -6.1769    5.3067    1.4778 H       1  LIG1        0.2922
     24 C          -9.4666    4.6428    0.3020 C.ar    1  LIG1        0.1034
     25 C          -8.0745    4.6739    0.0082 C.ar    1  LIG1        0.0390
     26 C          -7.5281    5.9136   -0.3564 C.ar    1  LIG1       -0.0068
     27 C          -8.3223    7.0598   -0.3770 C.ar    1  LIG1        0.1356
     28 C          -9.6629    6.9241   -0.0118 C.ar    1  LIG1        0.0702
     29 N         -10.2106    5.7518    0.3023 N.ar    1  LIG1       -0.2447
     30 H          -6.4859    5.9963   -0.6501 H       1  LIG1        0.0662
     31 H         -10.3220    7.7931    0.0143 H       1  LIG1        0.0867
     32 S         -10.3938    3.1880    0.7554 S.3     1  LIG1       -0.1228
     33 H          -9.5208    2.3036    0.2240 H       1  LIG1        0.1086
     34 O          -7.7503    8.2409   -0.7448 O.3     1  LIG1       -0.5052
     35 H          -8.4201    8.9381   -0.7329 H       1  LIG1        0.2922
@<TRIPOS>BOND
     1    20    21    1
     2    20    13    1
     3    12    11    1
     4    11     4    1
     5    34    35    1
     6    34    27    1
     7     7     3    1
     8    30    26    1
     9    13    18   ar
    10    13    14   ar
    11    18    17   ar
    12     4     3   ar
    13     4     5   ar
    14     3     2   ar
    15    27    26   ar
    16    27    28   ar
    17    26    25   ar
    18     2     8    1
    19     2     1   ar
    20     5    14    1
    21     5     6   ar
    22    28    31    1
    23    28    29   ar
    24    25    17    1
    25    25    24   ar
    26    14    15   ar
    27    17    16   ar
    28    33    32    1
    29     6     1   ar
    30     1     9    1
    31    24    29   ar
    32    24    32    1
    33    10     9    1
    34    15    16   ar
    35    15    19    1
    36    16    22    1
    37    22    23    1
