@<TRIPOS>MOLECULE
mol_data/opt/b3lyp/geoms/mol2/6gf6gf6gf-6gf-.out
 46 49 0 0 0
SMALL
GASTEIGER

@<TRIPOS>ATOM
      1 C          -3.8841   -2.1355   -0.4945 C.ar    1  LIG1        0.0949
      2 C          -2.5617   -1.9861   -0.0472 C.ar    1  LIG1       -0.0265
      3 C          -2.1816   -0.7567    0.4647 C.ar    1  LIG1       -0.0155
      4 C          -3.0999    0.2991    0.4962 C.ar    1  LIG1        0.1429
      5 C          -4.3960    0.0760   -0.0115 C.ar    1  LIG1        0.1161
      6 N          -4.7585   -1.1355   -0.4706 N.ar    1  LIG1       -0.2370
      7 H          -1.1818   -0.5887    0.8511 H       1  LIG1        0.0655
      8 H          -1.8566   -2.8089   -0.0858 H       1  LIG1        0.0645
      9 S          -4.5405   -3.6644   -1.1535 S.3     1  LIG1       -0.1234
     10 H          -3.4557   -4.4207   -0.8954 H       1  LIG1        0.1086
     11 O          -2.6729    1.4749    1.0312 O.3     1  LIG1       -0.5046
     12 H          -3.4235    2.0810    1.1185 H       1  LIG1        0.2922
     13 C          -6.7538    1.0517    0.3762 C.ar    1  LIG1        0.1042
     14 C          -5.4052    1.1711   -0.0578 C.ar    1  LIG1        0.0390
     15 C          -5.0284    2.4176   -0.5708 C.ar    1  LIG1       -0.0062
     16 C          -5.9121    3.4981   -0.5835 C.ar    1  LIG1        0.1435
     17 C          -7.2000    3.3098   -0.0429 C.ar    1  LIG1        0.1162
     18 N          -7.5797    2.0954    0.3826 N.ar    1  LIG1       -0.2363
     19 H          -4.0428    2.5632   -1.0025 H       1  LIG1        0.0662
     20 S          -7.5055   -0.4395    1.0036 S.3     1  LIG1       -0.1227
     21 H          -6.6342   -1.2782    0.3982 H       1  LIG1        0.1086
     22 O          -5.4633    4.6582   -1.1340 O.3     1  LIG1       -0.5046
     23 H          -6.1994    5.2837   -1.2091 H       1  LIG1        0.2922
     24 C          -9.5498    4.3454   -0.3064 C.ar    1  LIG1        0.1042
     25 C          -8.1754    4.4298    0.0508 C.ar    1  LIG1        0.0390
     26 C          -7.7348    5.6708    0.5287 C.ar    1  LIG1       -0.0062
     27 C          -8.5837    6.7766    0.5761 C.ar    1  LIG1        0.1435
     28 C          -9.9031    6.6216    0.1044 C.ar    1  LIG1        0.1162
     29 N         -10.3419    5.4161   -0.2837 N.ar    1  LIG1       -0.2363
     30 H          -6.7243    5.7919    0.9070 H       1  LIG1        0.0662
     31 S         -10.3864    2.8740   -0.8655 S.3     1  LIG1       -0.1227
     32 H          -9.4927    2.0125   -0.3256 H       1  LIG1        0.1086
     33 O          -8.0749    7.9292    1.0898 O.3     1  LIG1       -0.5046
     34 H          -8.7886    8.5780    1.1846 H       1  LIG1        0.2922
     35 C         -12.1880    7.7486    0.5155 C.ar    1  LIG1        0.1034
     36 C         -10.8452    7.7740    0.0445 C.ar    1  LIG1        0.0390
     37 C         -10.3839    8.9820   -0.5001 C.ar    1  LIG1       -0.0068
     38 C         -11.2053   10.1086   -0.5236 C.ar    1  LIG1        0.1356
     39 C         -12.4844    9.9874    0.0225 C.ar    1  LIG1        0.0702
     40 N         -12.9556    8.8416    0.5101 N.ar    1  LIG1       -0.2447
     41 H          -9.3904    9.0524   -0.9324 H       1  LIG1        0.0662
     42 H         -13.1584   10.8448    0.0540 H       1  LIG1        0.0867
     43 S         -13.0119    6.3295    1.2141 S.3     1  LIG1       -0.1228
     44 H         -12.1913    5.4116    0.6562 H       1  LIG1        0.1086
     45 O         -10.7173   11.2582   -1.0691 O.3     1  LIG1       -0.5052
     46 H         -11.3994   11.9428   -1.0361 H       1  LIG1        0.2922
@<TRIPOS>BOND
     1    23    22    1
     2     9    10    1
     3     9     1    1
     4    22    16    1
     5    45    46    1
     6    45    38    1
     7    19    15    1
     8    41    37    1
     9    31    32    1
    10    31    24    1
    11    16    15   ar
    12    16    17   ar
    13    15    14   ar
    14    38    37   ar
    15    38    39   ar
    16    37    36   ar
    17     1     6   ar
    18     1     2   ar
    19     6     5   ar
    20    24    29   ar
    21    24    25   ar
    22    29    28   ar
    23     8     2    1
    24    14     5    1
    25    14    13   ar
    26     2     3   ar
    27    17    25    1
    28    17    18   ar
    29     5     4   ar
    30    39    42    1
    31    39    40   ar
    32    36    28    1
    33    36    35   ar
    34    25    26   ar
    35    28    27   ar
    36    13    18   ar
    37    13    20    1
    38    21    20    1
    39     3     4   ar
    40     3     7    1
    41     4    11    1
    42    40    35   ar
    43    35    43    1
    44    26    27   ar
    45    26    30    1
    46    27    33    1
    47    44    43    1
    48    11    12    1
    49    33    34    1
