@<TRIPOS>MOLECULE
mol_data/opt/b3lyp/geoms/mol2/6gf6gf-.out
 24 25 0 0 0
SMALL
GASTEIGER

@<TRIPOS>ATOM
      1 C          -4.3662   -2.0342    0.4928 C.ar    1  LIG1        0.0949
      2 C          -3.0121   -2.0322    0.1241 C.ar    1  LIG1       -0.0265
      3 C          -2.4714   -0.8534   -0.3629 C.ar    1  LIG1       -0.0155
      4 C          -3.2672    0.2943   -0.4475 C.ar    1  LIG1        0.1429
      5 C          -4.6078    0.2151   -0.0179 C.ar    1  LIG1        0.1161
      6 N          -5.1256   -0.9462    0.4191 N.ar    1  LIG1       -0.2370
      7 H          -1.4381   -0.7966   -0.6893 H       1  LIG1        0.0655
      8 H          -2.4040   -2.9266    0.2028 H       1  LIG1        0.0645
      9 S          -5.2228   -3.4803    1.1104 S.3     1  LIG1       -0.1234
     10 H          -4.2100   -4.3499    0.9259 H       1  LIG1        0.1086
     11 O          -2.6882    1.4164   -0.9550 O.3     1  LIG1       -0.5046
     12 H          -3.3654    2.0998   -1.0707 H       1  LIG1        0.2922
     13 C          -6.7953    1.4515   -0.6044 C.ar    1  LIG1        0.1034
     14 C          -5.4921    1.4162   -0.0361 C.ar    1  LIG1        0.0390
     15 C          -5.0126    2.6063    0.5294 C.ar    1  LIG1       -0.0068
     16 C          -5.7783    3.7718    0.4815 C.ar    1  LIG1        0.1356
     17 C          -7.0192    3.7056   -0.1541 C.ar    1  LIG1        0.0702
     18 N          -7.5095    2.5772   -0.6645 N.ar    1  LIG1       -0.2447
     19 H          -4.0496    2.6336    1.0306 H       1  LIG1        0.0662
     20 H          -7.6465    4.5939   -0.2418 H       1  LIG1        0.0867
     21 S          -7.6271    0.0596   -1.3520 S.3     1  LIG1       -0.1228
     22 H          -6.9063   -0.8857   -0.7108 H       1  LIG1        0.1086
     23 O          -5.2750    4.9039    1.0491 O.3     1  LIG1       -0.5052
     24 H          -5.9179    5.6204    0.9578 H       1  LIG1        0.2922
@<TRIPOS>BOND
     1    21    22    1
     2    21    13    1
     3    12    11    1
     4    11     4    1
     5     7     3    1
     6    18    13   ar
     7    18    17   ar
     8    13    14   ar
     9     4     3   ar
    10     4     5   ar
    11     3     2   ar
    12    20    17    1
    13    17    16   ar
    14    14     5    1
    15    14    15   ar
    16     5     6   ar
    17     2     8    1
    18     2     1   ar
    19     6     1   ar
    20    16    15   ar
    21    16    23    1
    22     1     9    1
    23    15    19    1
    24    10     9    1
    25    24    23    1
