@<TRIPOS>MOLECULE
mol_data/opt/b3lyp/geoms/mol2/6gf6gf6gf-6gf.out
 46 49 0 0 0
SMALL
GASTEIGER

@<TRIPOS>ATOM
      1 C          -3.8866   -2.1373   -0.4921 C.ar    1  LIG1        0.0949
      2 C          -2.5633   -1.9874   -0.0475 C.ar    1  LIG1       -0.0265
      3 C          -2.1821   -0.7572    0.4616 C.ar    1  LIG1       -0.0155
      4 C          -3.1001    0.2988    0.4929 C.ar    1  LIG1        0.1429
      5 C          -4.3972    0.0751   -0.0121 C.ar    1  LIG1        0.1161
      6 N          -4.7607   -1.1371   -0.4684 N.ar    1  LIG1       -0.2370
      7 H          -1.1816   -0.5887    0.8460 H       1  LIG1        0.0655
      8 H          -1.8585   -2.8105   -0.0858 H       1  LIG1        0.0645
      9 S          -4.5444   -3.6671   -1.1475 S.3     1  LIG1       -0.1234
     10 H          -3.4596   -4.4234   -0.8892 H       1  LIG1        0.1086
     11 O          -2.6719    1.4756    1.0251 O.3     1  LIG1       -0.5046
     12 H          -3.4221    2.0821    1.1123 H       1  LIG1        0.2922
     13 C          -6.7540    1.0520    0.3786 C.ar    1  LIG1        0.1042
     14 C          -5.4062    1.1703   -0.0584 C.ar    1  LIG1        0.0390
     15 C          -5.0302    2.4159   -0.5743 C.ar    1  LIG1       -0.0062
     16 C          -5.9136    3.4965   -0.5871 C.ar    1  LIG1        0.1435
     17 C          -7.2004    3.3095   -0.0435 C.ar    1  LIG1        0.1162
     18 N          -7.5796    2.0959    0.3849 N.ar    1  LIG1       -0.2363
     19 H          -4.0454    2.5605   -1.0082 H       1  LIG1        0.0662
     20 S          -7.5048   -0.4380    1.0101 S.3     1  LIG1       -0.1227
     21 H          -6.6349   -1.2778    0.4043 H       1  LIG1        0.1086
     22 O          -5.4658    4.6555   -1.1407 O.3     1  LIG1       -0.5046
     23 H          -6.2018    5.2812   -1.2149 H       1  LIG1        0.2922
     24 C          -9.5503    4.3455   -0.3040 C.ar    1  LIG1        0.1042
     25 C          -8.1752    4.4300    0.0504 C.ar    1  LIG1        0.0390
     26 C          -7.7333    5.6715    0.5255 C.ar    1  LIG1       -0.0062
     27 C          -8.5817    6.7776    0.5731 C.ar    1  LIG1        0.1435
     28 C          -9.9021    6.6224    0.1043 C.ar    1  LIG1        0.1162
     29 N         -10.3421    5.4164   -0.2812 N.ar    1  LIG1       -0.2363
     30 H          -6.7219    5.7928    0.9017 H       1  LIG1        0.0662
     31 S         -10.3885    2.8735   -0.8594 S.3     1  LIG1       -0.1227
     32 H          -9.4942    2.0126   -0.3197 H       1  LIG1        0.1086
     33 O          -8.0715    7.9308    1.0841 O.3     1  LIG1       -0.5046
     34 H          -8.7847    8.5802    1.1789 H       1  LIG1        0.2922
     35 C         -12.1858    7.7509    0.5186 C.ar    1  LIG1        0.1034
     36 C         -10.8439    7.7750    0.0446 C.ar    1  LIG1        0.0390
     37 C         -10.3833    8.9820   -0.5027 C.ar    1  LIG1       -0.0068
     38 C         -11.2044   10.1089   -0.5261 C.ar    1  LIG1        0.1356
     39 C         -12.4823    9.9890    0.0231 C.ar    1  LIG1        0.0702
     40 N         -12.9528    8.8442    0.5133 N.ar    1  LIG1       -0.2447
     41 H          -9.3908    9.0514   -0.9374 H       1  LIG1        0.0662
     42 H         -13.1558   10.8468    0.0549 H       1  LIG1        0.0867
     43 S         -13.0088    6.3331    1.2208 S.3     1  LIG1       -0.1228
     44 H         -12.1895    5.4140    0.6628 H       1  LIG1        0.1086
     45 O         -10.7171   11.2576   -1.0743 O.3     1  LIG1       -0.5052
     46 H         -11.3989   11.9424   -1.0408 H       1  LIG1        0.2922
@<TRIPOS>BOND
     1    23    22    1
     2     9    10    1
     3     9     1    1
     4    22    16    1
     5    45    46    1
     6    45    38    1
     7    19    15    1
     8    41    37    1
     9    31    32    1
    10    31    24    1
    11    16    15   ar
    12    16    17   ar
    13    15    14   ar
    14    38    37   ar
    15    38    39   ar
    16    37    36   ar
    17     1     6   ar
    18     1     2   ar
    19     6     5   ar
    20    24    29   ar
    21    24    25   ar
    22    29    28   ar
    23     8     2    1
    24    14     5    1
    25    14    13   ar
    26     2     3   ar
    27    17    25    1
    28    17    18   ar
    29     5     4   ar
    30    39    42    1
    31    39    40   ar
    32    36    28    1
    33    36    35   ar
    34    25    26   ar
    35    28    27   ar
    36    13    18   ar
    37    13    20    1
    38    21    20    1
    39     3     4   ar
    40     3     7    1
    41     4    11    1
    42    40    35   ar
    43    35    43    1
    44    26    27   ar
    45    26    30    1
    46    27    33    1
    47    44    43    1
    48    11    12    1
    49    33    34    1
