@<TRIPOS>MOLECULE
mol_data/opt/b3lyp/geoms/mol2/6gf6gf-6gf-6gf-.out
 46 49 0 0 0
SMALL
GASTEIGER

@<TRIPOS>ATOM
      1 C          -3.9670   -2.2077   -0.0340 C.ar    1  LIG1        0.0949
      2 C          -2.5812   -2.0019   -0.1232 C.ar    1  LIG1       -0.0265
      3 C          -2.1207   -0.6999   -0.2260 C.ar    1  LIG1       -0.0155
      4 C          -3.0297    0.3642   -0.2089 C.ar    1  LIG1        0.1429
      5 C          -4.4025    0.0716   -0.0750 C.ar    1  LIG1        0.1161
      6 N          -4.8340   -1.2012   -0.0135 N.ar    1  LIG1       -0.2370
      7 H          -1.0630   -0.4794   -0.3254 H       1  LIG1        0.0655
      8 H          -1.8861   -2.8343   -0.1257 H       1  LIG1        0.0645
      9 S          -4.7241   -3.8259    0.0748 S.3     1  LIG1       -0.1234
     10 H          -3.5936   -4.5369   -0.1042 H       1  LIG1        0.1086
     11 O          -2.5172    1.6182   -0.3353 O.3     1  LIG1       -0.5046
     12 H          -3.2414    2.2533   -0.4375 H       1  LIG1        0.2922
     13 C          -6.6337    1.1920   -0.7319 C.ar    1  LIG1        0.1042
     14 C          -5.4181    1.1588    0.0049 C.ar    1  LIG1        0.0390
     15 C          -5.1904    2.2353    0.8702 C.ar    1  LIG1       -0.0062
     16 C          -6.0744    3.3132    0.9422 C.ar    1  LIG1        0.1435
     17 C          -7.2017    3.3047    0.0966 C.ar    1  LIG1        0.1162
     18 N          -7.4557    2.2374   -0.6754 N.ar    1  LIG1       -0.2363
     19 H          -4.3305    2.2401    1.5332 H       1  LIG1        0.0662
     20 S          -7.2027   -0.0842   -1.8408 S.3     1  LIG1       -0.1227
     21 H          -6.4643   -1.0695   -1.2815 H       1  LIG1        0.1086
     22 O          -5.7836    4.2930    1.8399 O.3     1  LIG1       -0.5046
     23 H          -6.5340    4.9023    1.9060 H       1  LIG1        0.2922
     24 C          -9.5674    4.3372    0.0771 C.ar    1  LIG1        0.1042
     25 C          -8.1493    4.4521    0.0469 C.ar    1  LIG1        0.0390
     26 C          -7.6318    5.7517   -0.0083 C.ar    1  LIG1       -0.0062
     27 C          -8.4668    6.8694   -0.0065 C.ar    1  LIG1        0.1435
     28 C          -9.8581    6.6571    0.0546 C.ar    1  LIG1        0.1162
     29 N         -10.3539    5.4125    0.1005 N.ar    1  LIG1       -0.2363
     30 H          -6.5610    5.9203   -0.0700 H       1  LIG1        0.0662
     31 S         -10.4789    2.8063    0.1438 S.3     1  LIG1       -0.1227
     32 H          -9.4718    2.0387   -0.3314 H       1  LIG1        0.1086
     33 O          -7.8699    8.0911   -0.0481 O.3     1  LIG1       -0.5046
     34 H          -8.5425    8.7784    0.0727 H       1  LIG1        0.2922
     35 C         -11.8763    7.9648    0.9830 C.ar    1  LIG1        0.1034
     36 C         -10.8136    7.8012    0.0527 C.ar    1  LIG1        0.0390
     37 C         -10.6550    8.8027   -0.9161 C.ar    1  LIG1       -0.0068
     38 C         -11.4834    9.9255   -0.9144 C.ar    1  LIG1        0.1356
     39 C         -12.4538   10.0129    0.0853 C.ar    1  LIG1        0.0702
     40 N         -12.6466    9.0545    0.9899 N.ar    1  LIG1       -0.2447
     41 H          -9.9050    8.7081   -1.6959 H       1  LIG1        0.0662
     42 H         -13.1098   10.8823    0.1483 H       1  LIG1        0.0867
     43 S         -12.2913    6.8071    2.2770 S.3     1  LIG1       -0.1228
     44 H         -11.7360    5.7331    1.6750 H       1  LIG1        0.1086
     45 O         -11.2980   10.8707   -1.8778 O.3     1  LIG1       -0.5052
     46 H         -11.9535   11.5729   -1.7684 H       1  LIG1        0.2922
@<TRIPOS>BOND
     1    45    46    1
     2    45    38    1
     3    20    21    1
     4    20    13    1
     5    41    37    1
     6    37    38   ar
     7    37    36   ar
     8    38    39   ar
     9    13    18   ar
    10    13    14   ar
    11    18    17   ar
    12    12    11    1
    13    11     4    1
    14    32    31    1
    15     7     3    1
    16     3     4   ar
    17     3     2   ar
    18     4     5   ar
    19     8     2    1
    20     2     1   ar
    21    10     9    1
    22     5     6   ar
    23     5    14    1
    24    30    26    1
    25    33    27    1
    26    33    34    1
    27     1     6   ar
    28     1     9    1
    29    26    27   ar
    30    26    25   ar
    31    27    28   ar
    32    14    15   ar
    33    25    24   ar
    34    25    17    1
    35    36    28    1
    36    36    35   ar
    37    28    29   ar
    38    24    29   ar
    39    24    31    1
    40    39    42    1
    41    39    40   ar
    42    17    16   ar
    43    15    16   ar
    44    15    19    1
    45    16    22    1
    46    35    40   ar
    47    35    43    1
    48    44    43    1
    49    22    23    1
