@<TRIPOS>MOLECULE
mol_data/opt/b3lyp/geoms/mol2/6gf6gf-6gf6gf-.out
 46 49 0 0 0
SMALL
GASTEIGER

@<TRIPOS>ATOM
      1 C          -3.8911   -2.1400    0.4880 C.ar    1  LIG1        0.0949
      2 C          -2.5617   -1.9858    0.0640 C.ar    1  LIG1       -0.0265
      3 C          -2.1736   -0.7512   -0.4289 C.ar    1  LIG1       -0.0155
      4 C          -3.0916    0.3047   -0.4645 C.ar    1  LIG1        0.1429
      5 C          -4.3958    0.0762    0.0196 C.ar    1  LIG1        0.1161
      6 N          -4.7653   -1.1400    0.4602 N.ar    1  LIG1       -0.2370
      7 H          -1.1677   -0.5791   -0.7973 H       1  LIG1        0.0655
      8 H          -1.8570   -2.8090    0.1055 H       1  LIG1        0.0645
      9 S          -4.5577   -3.6757    1.1206 S.3     1  LIG1       -0.1234
     10 H          -3.4688   -4.4293    0.8720 H       1  LIG1        0.1086
     11 O          -2.6563    1.4862   -0.9803 O.3     1  LIG1       -0.5046
     12 H          -3.4056    2.0930   -1.0736 H       1  LIG1        0.2922
     13 C          -6.7472    1.0557   -0.3968 C.ar    1  LIG1        0.1042
     14 C          -5.4059    1.1707    0.0606 C.ar    1  LIG1        0.0390
     15 C          -5.0379    2.4119    0.5925 C.ar    1  LIG1       -0.0062
     16 C          -5.9219    3.4921    0.6018 C.ar    1  LIG1        0.1435
     17 C          -7.2007    3.3093    0.0380 C.ar    1  LIG1        0.1162
     18 N          -7.5730    2.0993   -0.4061 N.ar    1  LIG1       -0.2363
     19 H          -4.0596    2.5531    1.0419 H       1  LIG1        0.0662
     20 S          -7.4881   -0.4291   -1.0517 S.3     1  LIG1       -0.1227
     21 H          -6.6267   -1.2738   -0.4405 H       1  LIG1        0.1086
     22 O          -5.4826    4.6465    1.1716 O.3     1  LIG1       -0.5046
     23 H          -6.2201    5.2710    1.2412 H       1  LIG1        0.2922
     24 C          -9.5547    4.3422    0.2731 C.ar    1  LIG1        0.1042
     25 C          -8.1745    4.4303   -0.0603 C.ar    1  LIG1        0.0390
     26 C          -7.7263    5.6760   -0.5183 C.ar    1  LIG1       -0.0062
     27 C          -8.5745    6.7822   -0.5688 C.ar    1  LIG1        0.1435
     28 C          -9.9015    6.6224   -0.1207 C.ar    1  LIG1        0.1162
     29 N         -10.3465    5.4130    0.2479 N.ar    1  LIG1       -0.2363
     30 H          -6.7096    5.8009   -0.8786 H       1  LIG1        0.0662
     31 S         -10.4001    2.8653    0.8036 S.3     1  LIG1       -0.1227
     32 H          -9.4977    2.0093    0.2695 H       1  LIG1        0.1086
     33 O          -8.0575    7.9399   -1.0624 O.3     1  LIG1       -0.5046
     34 H          -8.7696    8.5896   -1.1624 H       1  LIG1        0.2922
     35 C         -12.1796    7.7534   -0.5584 C.ar    1  LIG1        0.1034
     36 C         -10.8448    7.7741   -0.0649 C.ar    1  LIG1        0.0390
     37 C         -10.3928    8.9766    0.4993 C.ar    1  LIG1       -0.0068
     38 C         -11.2148   10.1029    0.5205 C.ar    1  LIG1        0.1356
     39 C         -12.4846    9.9870   -0.0480 C.ar    1  LIG1        0.0702
     40 N         -12.9474    8.8462   -0.5547 N.ar    1  LIG1       -0.2447
     41 H          -9.4066    9.0427    0.9488 H       1  LIG1        0.0662
     42 H         -13.1582   10.8447   -0.0821 H       1  LIG1        0.0867
     43 S         -12.9914    6.3413   -1.2847 S.3     1  LIG1       -0.1228
     44 H         -12.1801    5.4179   -0.7222 H       1  LIG1        0.1086
     45 O         -10.7362   11.2470    1.0855 O.3     1  LIG1       -0.5052
     46 H         -11.4178   11.9318    1.0479 H       1  LIG1        0.2922
@<TRIPOS>BOND
     1    43    44    1
     2    43    35    1
     3    34    33    1
     4    12    11    1
     5    33    27    1
     6    20    21    1
     7    20    13    1
     8    11     4    1
     9    30    26    1
    10     7     3    1
    11    27    26   ar
    12    27    28   ar
    13    35    40   ar
    14    35    36   ar
    15    40    39   ar
    16    26    25   ar
    17     4     3   ar
    18     4     5   ar
    19     3     2   ar
    20    18    13   ar
    21    18    17   ar
    22    13    14   ar
    23    28    36    1
    24    28    29   ar
    25    42    39    1
    26    36    37   ar
    27    25    17    1
    28    25    24   ar
    29    39    38   ar
    30     5    14    1
    31     5     6   ar
    32    17    16   ar
    33    14    15   ar
    34     2     8    1
    35     2     1   ar
    36    29    24   ar
    37    32    31    1
    38    24    31    1
    39     6     1   ar
    40     1     9    1
    41    37    38   ar
    42    37    41    1
    43    38    45    1
    44    15    16   ar
    45    15    19    1
    46    16    22    1
    47    10     9    1
    48    46    45    1
    49    22    23    1
