@<TRIPOS>MOLECULE
mol_data/opt/b3lyp/geoms/mol2/6gf6gf.out
 24 25 0 0 0
SMALL
GASTEIGER

@<TRIPOS>ATOM
      1 C          -4.3656   -2.0306   -0.5121 C.ar    1  LIG1        0.0949
      2 C          -3.0140   -2.0330   -0.1345 C.ar    1  LIG1       -0.0265
      3 C          -2.4754   -0.8587    0.3658 C.ar    1  LIG1       -0.0155
      4 C          -3.2707    0.2890    0.4544 C.ar    1  LIG1        0.1429
      5 C          -4.6084    0.2148    0.0154 C.ar    1  LIG1        0.1161
      6 N          -5.1245   -0.9424   -0.4346 N.ar    1  LIG1       -0.2370
      7 H          -1.4442   -0.8057    0.6993 H       1  LIG1        0.0655
      8 H          -2.4062   -2.9273   -0.2167 H       1  LIG1        0.0645
      9 S          -5.2194   -3.4707   -1.1476 S.3     1  LIG1       -0.1234
     10 H          -4.2103   -4.3438   -0.9593 H       1  LIG1        0.1086
     11 O          -2.6939    1.4062    0.9752 O.3     1  LIG1       -0.5046
     12 H          -3.3709    2.0897    1.0912 H       1  LIG1        0.2922
     13 C          -6.7985    1.4484    0.5973 C.ar    1  LIG1        0.1034
     14 C          -5.4917    1.4165    0.0373 C.ar    1  LIG1        0.0390
     15 C          -5.0073    2.6108   -0.5152 C.ar    1  LIG1       -0.0068
     16 C          -5.7723    3.7766   -0.4627 C.ar    1  LIG1        0.1356
     17 C          -7.0173    3.7064    0.1642 C.ar    1  LIG1        0.0702
     18 N          -7.5121    2.5744    0.6621 N.ar    1  LIG1       -0.2447
     19 H          -4.0411    2.6413   -1.0098 H       1  LIG1        0.0662
     20 H          -7.6443    4.5947    0.2553 H       1  LIG1        0.0867
     21 S          -7.6366    0.0512    1.3278 S.3     1  LIG1       -0.1228
     22 H          -6.9123   -0.8895    0.6837 H       1  LIG1        0.1086
     23 O          -5.2642    4.9129   -1.0176 O.3     1  LIG1       -0.5052
     24 H          -5.9070    5.6292   -0.9246 H       1  LIG1        0.2922
@<TRIPOS>BOND
     1     9    10    1
     2     9     1    1
     3    23    24    1
     4    23    16    1
     5    19    15    1
     6    15    16   ar
     7    15    14   ar
     8     1     6   ar
     9     1     2   ar
    10    16    17   ar
    11     6     5   ar
    12     8     2    1
    13     2     3   ar
    14     5    14    1
    15     5     4   ar
    16    14    13   ar
    17    17    20    1
    18    17    18   ar
    19     3     4   ar
    20     3     7    1
    21     4    11    1
    22    13    18   ar
    23    13    21    1
    24    22    21    1
    25    11    12    1
