@<TRIPOS>MOLECULE
mol_data/opt/b3lyp/geoms/mol2/6gf6gf6gf.out
 35 37 0 0 0
SMALL
GASTEIGER

@<TRIPOS>ATOM
      1 C          -4.1635   -2.1436   -0.2983 C.ar    1  LIG1        0.0949
      2 C          -2.8072   -2.0309    0.0453 C.ar    1  LIG1       -0.0265
      3 C          -2.3319   -0.7862    0.4236 C.ar    1  LIG1       -0.0155
      4 C          -3.1929    0.3171    0.4259 C.ar    1  LIG1        0.1429
      5 C          -4.5314    0.1243    0.0269 C.ar    1  LIG1        0.1161
      6 N          -4.9843   -1.0988   -0.3020 N.ar    1  LIG1       -0.2370
      7 H          -1.3001   -0.6423    0.7269 H       1  LIG1        0.0655
      8 H          -2.1477   -2.8916    0.0303 H       1  LIG1        0.0645
      9 S          -4.9397   -3.6830   -0.7794 S.3     1  LIG1       -0.1234
     10 H          -3.8792   -4.4753   -0.5281 H       1  LIG1        0.1086
     11 O          -2.6733    1.5079    0.8297 O.3     1  LIG1       -0.5046
     12 H          -3.3864    2.1587    0.9097 H       1  LIG1        0.2922
     13 C          -6.8011    1.2596    0.4970 C.ar    1  LIG1        0.1042
     14 C          -5.4860    1.2663   -0.0427 C.ar    1  LIG1        0.0390
     15 C          -5.0880    2.4431   -0.6880 C.ar    1  LIG1       -0.0062
     16 C          -5.9158    3.5660   -0.7298 C.ar    1  LIG1        0.1435
     17 C          -7.1661    3.4947   -0.0835 C.ar    1  LIG1        0.1162
     18 N          -7.5726    2.3441    0.4723 N.ar    1  LIG1       -0.2363
     19 H          -4.1325    2.4972   -1.2012 H       1  LIG1        0.0662
     20 S          -7.5753   -0.1295    1.3064 S.3     1  LIG1       -0.1227
     21 H          -6.7909   -1.0642    0.7240 H       1  LIG1        0.1086
     22 O          -5.4561    4.6518   -1.4082 O.3     1  LIG1       -0.5046
     23 H          -6.1639    5.3108   -1.4714 H       1  LIG1        0.2922
     24 C          -9.4632    4.6456   -0.3233 C.ar    1  LIG1        0.1034
     25 C          -8.0734    4.6748   -0.0187 C.ar    1  LIG1        0.0390
     26 C          -7.5289    5.9131    0.3534 C.ar    1  LIG1       -0.0068
     27 C          -8.3224    7.0599    0.3708 C.ar    1  LIG1        0.1356
     28 C          -9.6602    6.9262   -0.0052 C.ar    1  LIG1        0.0702
     29 N         -10.2063    5.7552   -0.3266 N.ar    1  LIG1       -0.2447
     30 H          -6.4891    5.9943    0.6555 H       1  LIG1        0.0662
     31 H         -10.3184    7.7959   -0.0342 H       1  LIG1        0.0867
     32 S         -10.3883    3.1927   -0.7873 S.3     1  LIG1       -0.1228
     33 H          -9.5195    2.3062   -0.2529 H       1  LIG1        0.1086
     34 O          -7.7523    8.2395    0.7462 O.3     1  LIG1       -0.5052
     35 H          -8.4215    8.9373    0.7310 H       1  LIG1        0.2922
@<TRIPOS>BOND
     1    23    22    1
     2    22    16    1
     3    19    15    1
     4    32    24    1
     5    32    33    1
     6     9    10    1
     7     9     1    1
     8    16    15   ar
     9    16    17   ar
    10    15    14   ar
    11    29    24   ar
    12    29    28   ar
    13    24    25   ar
    14     6     1   ar
    15     6     5   ar
    16     1     2   ar
    17    17    25    1
    18    17    18   ar
    19    14     5    1
    20    14    13   ar
    21    31    28    1
    22    25    26   ar
    23    28    27   ar
    24     5     4   ar
    25     8     2    1
    26     2     3   ar
    27    26    27   ar
    28    26    30    1
    29    27    34    1
    30     3     4   ar
    31     3     7    1
    32     4    11    1
    33    18    13   ar
    34    13    20    1
    35    21    20    1
    36    35    34    1
    37    11    12    1
