@<TRIPOS>MOLECULE
mol_data/opt/b3lyp/geoms/mol2/6gf6gf6gf6gf-.out
 46 49 0 0 0
SMALL
GASTEIGER

@<TRIPOS>ATOM
      1 C          -3.6883   -1.9547   -0.8616 C.ar    1  LIG1        0.0949
      2 C          -2.5675   -1.9910   -0.0167 C.ar    1  LIG1       -0.0265
      3 C          -2.4050   -0.9612    0.8948 C.ar    1  LIG1       -0.0155
      4 C          -3.3287    0.0898    0.9311 C.ar    1  LIG1        0.1429
      5 C          -4.4010    0.0715    0.0162 C.ar    1  LIG1        0.1161
      6 N          -4.5653   -0.9571   -0.8352 N.ar    1  LIG1       -0.2370
      7 H          -1.5753   -0.9492    1.5938 H       1  LIG1        0.0655
      8 H          -1.8538   -2.8063   -0.0605 H       1  LIG1        0.0645
      9 S          -4.0616   -3.2231   -2.0679 S.3     1  LIG1       -0.1234
     10 H          -3.0766   -4.0699   -1.7099 H       1  LIG1        0.1086
     11 O          -3.1270    1.0583    1.8653 O.3     1  LIG1       -0.5046
     12 H          -3.8954    1.6475    1.8916 H       1  LIG1        0.2922
     13 C          -6.8010    1.0173   -0.0549 C.ar    1  LIG1        0.1042
     14 C          -5.3889    1.1861   -0.0404 C.ar    1  LIG1        0.0390
     15 C          -4.9209    2.5041   -0.0566 C.ar    1  LIG1       -0.0062
     16 C          -5.7988    3.5897   -0.0609 C.ar    1  LIG1        0.1435
     17 C          -7.1821    3.3241   -0.0502 C.ar    1  LIG1        0.1162
     18 N          -7.6297    2.0592   -0.0409 N.ar    1  LIG1       -0.2363
     19 H          -3.8558    2.7135   -0.0801 H       1  LIG1        0.0662
     20 S          -7.6481   -0.5528   -0.0355 S.3     1  LIG1       -0.1227
     21 H          -6.6025   -1.2662   -0.5088 H       1  LIG1        0.1086
     22 O          -5.2459    4.8323   -0.0595 O.3     1  LIG1       -0.5046
     23 H          -5.9437    5.4938    0.0606 H       1  LIG1        0.2922
     24 C          -9.3132    4.5100    0.7895 C.ar    1  LIG1        0.1042
     25 C          -8.1817    4.4277   -0.0665 C.ar    1  LIG1        0.0390
     26 C          -8.0221    5.4738   -0.9838 C.ar    1  LIG1       -0.0062
     27 C          -8.8856    6.5700   -0.9940 C.ar    1  LIG1        0.1435
     28 C          -9.9180    6.6127   -0.0350 C.ar    1  LIG1        0.1162
     29 N         -10.1129    5.5741    0.7904 N.ar    1  LIG1       -0.2363
     30 H          -7.2394    5.4377   -1.7359 H       1  LIG1        0.0662
     31 S          -9.7900    3.2732    1.9840 S.3     1  LIG1       -0.1227
     32 H          -9.1619    2.2523    1.3579 H       1  LIG1        0.1086
     33 O          -8.6728    7.5192   -1.9444 O.3     1  LIG1       -0.5046
     34 H          -9.4036    8.1556   -1.9284 H       1  LIG1        0.2922
     35 C         -12.2446    7.7106    0.1711 C.ar    1  LIG1        0.1034
     36 C         -10.8267    7.7881    0.0742 C.ar    1  LIG1        0.0390
     37 C         -10.2580    9.0708    0.0675 C.ar    1  LIG1       -0.0068
     38 C         -11.0675   10.2056    0.1062 C.ar    1  LIG1        0.1356
     39 C         -12.4498   10.0127    0.1386 C.ar    1  LIG1        0.0702
     40 N         -13.0093    8.8055    0.1826 N.ar    1  LIG1       -0.2447
     41 H          -9.1800    9.2003    0.0558 H       1  LIG1        0.0662
     42 H         -13.1298   10.8659    0.1433 H       1  LIG1        0.0867
     43 S         -13.1966    6.2036    0.2314 S.3     1  LIG1       -0.1228
     44 H         -12.1787    5.4189    0.6492 H       1  LIG1        0.1086
     45 O         -10.4703   11.4306    0.1055 O.3     1  LIG1       -0.5052
     46 H         -11.1488   12.1178    0.1535 H       1  LIG1        0.2922
@<TRIPOS>BOND
     1     9    10    1
     2     9     1    1
     3    33    34    1
     4    33    27    1
     5    30    26    1
     6    27    26   ar
     7    27    28   ar
     8    26    25   ar
     9     1     6   ar
    10     1     2   ar
    11     6     5   ar
    12    21    20    1
    13    19    15    1
    14    25    17    1
    15    25    24   ar
    16    16    22    1
    17    16    15   ar
    18    16    17   ar
    19     8     2    1
    20    22    23    1
    21    15    14   ar
    22    13    18   ar
    23    13    14   ar
    24    13    20    1
    25    17    18   ar
    26    14     5    1
    27    28    36    1
    28    28    29   ar
    29     2     3   ar
    30     5     4   ar
    31    41    37    1
    32    37    36   ar
    33    37    38   ar
    34    36    35   ar
    35    45    38    1
    36    45    46    1
    37    38    39   ar
    38    39    42    1
    39    39    40   ar
    40    35    40   ar
    41    35    43    1
    42    43    44    1
    43    24    29   ar
    44    24    31    1
    45     3     4   ar
    46     3     7    1
    47     4    11    1
    48    32    31    1
    49    11    12    1
