@<TRIPOS>MOLECULE
mol_data/opt/b3lyp/geoms/mol2/6gf6gf6gf6gf.out
 46 49 0 0 0
SMALL
GASTEIGER

@<TRIPOS>ATOM
      1 C          -3.5529   -1.7704   -1.2374 C.ar    1  LIG1        0.0949
      2 C          -2.6469   -2.0577   -0.2041 C.ar    1  LIG1       -0.0265
      3 C          -2.6881   -1.2721    0.9356 C.ar    1  LIG1       -0.0155
      4 C          -3.5948   -0.2088    1.0171 C.ar    1  LIG1        0.1429
      5 C          -4.4376    0.0390   -0.0854 C.ar    1  LIG1        0.1161
      6 N          -4.4116   -0.7590   -1.1681 N.ar    1  LIG1       -0.2370
      7 H          -2.0337   -1.4637    1.7795 H       1  LIG1        0.0655
      8 H          -1.9428   -2.8785   -0.2827 H       1  LIG1        0.0645
      9 S          -3.6533   -2.7104   -2.7576 S.3     1  LIG1       -0.1234
     10 H          -2.7770   -3.6706   -2.4028 H       1  LIG1        0.1086
     11 O          -3.6029    0.5092    2.1728 O.3     1  LIG1       -0.5046
     12 H          -4.3563    1.1178    2.1709 H       1  LIG1        0.2922
     13 C          -6.7592    1.1062   -0.4511 C.ar    1  LIG1        0.1042
     14 C          -5.3852    1.1894   -0.0925 C.ar    1  LIG1        0.0390
     15 C          -4.9223    2.4489    0.3018 C.ar    1  LIG1       -0.0062
     16 C          -5.7739    3.5538    0.3608 C.ar    1  LIG1        0.1435
     17 C          -7.1236    3.3703    0.0031 C.ar    1  LIG1        0.1162
     18 N          -7.5666    2.1623   -0.3775 N.ar    1  LIG1       -0.2363
     19 H          -3.8787    2.6000    0.5610 H       1  LIG1        0.0662
     20 S          -7.5954   -0.3796   -0.9771 S.3     1  LIG1       -0.1227
     21 H          -6.4739   -1.0263   -1.3636 H       1  LIG1        0.1086
     22 O          -5.2314    4.7297    0.7767 O.3     1  LIG1       -0.5046
     23 H          -5.9367    5.3803    0.9112 H       1  LIG1        0.2922
     24 C          -9.3791    4.4591    0.6192 C.ar    1  LIG1        0.1042
     25 C          -8.0917    4.5025    0.0182 C.ar    1  LIG1        0.0390
     26 C          -7.7201    5.7171   -0.5690 C.ar    1  LIG1       -0.0062
     27 C          -8.5626    6.8296   -0.5338 C.ar    1  LIG1        0.1435
     28 C          -9.8079    6.6989    0.1114 C.ar    1  LIG1        0.1162
     29 N         -10.1674    5.5313    0.6645 N.ar    1  LIG1       -0.2363
     30 H          -6.7691    5.8174   -1.0836 H       1  LIG1        0.0662
     31 S         -10.0856    3.0330    1.4269 S.3     1  LIG1       -0.1227
     32 H          -9.3153    2.1293    0.7823 H       1  LIG1        0.1086
     33 O          -8.1073    7.9710   -1.1158 O.3     1  LIG1       -0.5046
     34 H          -8.7256    8.6935   -0.9283 H       1  LIG1        0.2922
     35 C         -11.3943    8.2919    1.3724 C.ar    1  LIG1        0.1034
     36 C         -10.7634    7.8409    0.1810 C.ar    1  LIG1        0.0390
     37 C         -11.0551    8.5405   -0.9988 C.ar    1  LIG1       -0.0068
     38 C         -11.8896    9.6585   -0.9696 C.ar    1  LIG1        0.1356
     39 C         -12.4036   10.0508    0.2677 C.ar    1  LIG1        0.0702
     40 N         -12.1711    9.3765    1.3927 N.ar    1  LIG1       -0.2447
     41 H         -10.6582    8.2095   -1.9540 H       1  LIG1        0.0662
     42 H         -13.0393   10.9335    0.3506 H       1  LIG1        0.0867
     43 S         -11.2035    7.5379    2.9800 S.3     1  LIG1       -0.1228
     44 H         -10.8607    6.3179    2.5132 H       1  LIG1        0.1086
     45 O         -12.1505   10.3044   -2.1400 O.3     1  LIG1       -0.5052
     46 H         -12.7582   11.0379   -1.9734 H       1  LIG1        0.2922
@<TRIPOS>BOND
     1     9    10    1
     2     9     1    1
     3    45    46    1
     4    45    38    1
     5    41    37    1
     6    21    20    1
     7     1     6   ar
     8     1     2   ar
     9     6     5   ar
    10    33    34    1
    11    33    27    1
    12    30    26    1
    13    37    38   ar
    14    37    36   ar
    15    20    13    1
    16    38    39   ar
    17    26    27   ar
    18    26    25   ar
    19    27    28   ar
    20    13    18   ar
    21    13    14   ar
    22    18    17   ar
    23     8     2    1
    24     2     3   ar
    25    14     5    1
    26    14    15   ar
    27     5     4   ar
    28    17    25    1
    29    17    16   ar
    30    25    24   ar
    31    28    36    1
    32    28    29   ar
    33    36    35   ar
    34    39    42    1
    35    39    40   ar
    36    15    16   ar
    37    15    19    1
    38    16    22    1
    39    24    29   ar
    40    24    31    1
    41    22    23    1
    42    32    31    1
    43     3     4   ar
    44     3     7    1
    45     4    11    1
    46    35    40   ar
    47    35    43    1
    48    12    11    1
    49    44    43    1
