@<TRIPOS>MOLECULE
mol_data/opt/b3lyp/geoms/mol2/6gf6gf-6gf6gf.out
 46 49 0 0 0
SMALL
GASTEIGER

@<TRIPOS>ATOM
      1 C          -3.8731   -2.1284    0.5007 C.ar    1  LIG1        0.0949
      2 C          -2.5560   -1.9815    0.0373 C.ar    1  LIG1       -0.0265
      3 C          -2.1829   -0.7560   -0.4889 C.ar    1  LIG1       -0.0155
      4 C          -3.1026    0.2986   -0.5186 C.ar    1  LIG1        0.1429
      5 C          -4.3927    0.0786    0.0055 C.ar    1  LIG1        0.1161
      6 N          -4.7487   -1.1295    0.4786 N.ar    1  LIG1       -0.2370
      7 H          -1.1877   -0.5903   -0.8880 H       1  LIG1        0.0655
      8 H          -1.8497   -2.8034    0.0746 H       1  LIG1        0.0645
      9 S          -4.5206   -3.6527    1.1796 S.3     1  LIG1       -0.1234
     10 H          -3.4375   -4.4098    0.9166 H       1  LIG1        0.1086
     11 O          -2.6828    1.4704   -1.0681 O.3     1  LIG1       -0.5046
     12 H          -3.4349    2.0750   -1.1520 H       1  LIG1        0.2922
     13 C          -6.7558    1.0491   -0.3632 C.ar    1  LIG1        0.1042
     14 C          -5.4023    1.1732    0.0543 C.ar    1  LIG1        0.0390
     15 C          -5.0208    2.4243    0.5524 C.ar    1  LIG1       -0.0062
     16 C          -5.9052    3.5041    0.5662 C.ar    1  LIG1        0.1435
     17 C          -7.1990    3.3103    0.0419 C.ar    1  LIG1        0.1162
     18 N          -7.5825    2.0921   -0.3689 N.ar    1  LIG1       -0.2363
     19 H          -4.0304    2.5743    0.9716 H       1  LIG1        0.0662
     20 S          -7.5133   -0.4479   -0.9693 S.3     1  LIG1       -0.1227
     21 H          -6.6343   -1.2807   -0.3669 H       1  LIG1        0.1086
     22 O          -5.4513    4.6691    1.1021 O.3     1  LIG1       -0.5046
     23 H          -6.1870    5.2946    1.1802 H       1  LIG1        0.2922
     24 C          -9.5466    4.3466    0.3226 C.ar    1  LIG1        0.1042
     25 C          -8.1762    4.4289   -0.0503 C.ar    1  LIG1        0.0390
     26 C          -7.7420    5.6660   -0.5437 C.ar    1  LIG1       -0.0062
     27 C          -8.5922    6.7707   -0.5915 C.ar    1  LIG1        0.1435
     28 C          -9.9063    6.6188   -0.1043 C.ar    1  LIG1        0.1162
     29 N         -10.3399    5.4164    0.2990 N.ar    1  LIG1       -0.2363
     30 H          -6.7358    5.7846   -0.9343 H       1  LIG1        0.0662
     31 S         -10.3757    2.8796    0.9041 S.3     1  LIG1       -0.1227
     32 H          -9.4877    2.0140    0.3613 H       1  LIG1        0.1086
     33 O          -8.0900    7.9193   -1.1205 O.3     1  LIG1       -0.5046
     34 H          -8.8054    8.5663   -1.2141 H       1  LIG1        0.2922
     35 C         -12.1967    7.7401   -0.5009 C.ar    1  LIG1        0.1034
     36 C         -10.8489    7.7710   -0.0444 C.ar    1  LIG1        0.0390
     37 C         -10.3830    8.9841    0.4846 C.ar    1  LIG1       -0.0068
     38 C         -11.2054   10.1101    0.5070 C.ar    1  LIG1        0.1356
     39 C         -12.4901    9.9828   -0.0244 C.ar    1  LIG1        0.0702
     40 N         -12.9653    8.8324   -0.4968 N.ar    1  LIG1       -0.2447
     41 H          -9.3851    9.0592    0.9057 H       1  LIG1        0.0662
     42 H         -13.1653   10.8393   -0.0561 H       1  LIG1        0.0867
     43 S         -13.0262    6.3144   -1.1783 S.3     1  LIG1       -0.1228
     44 H         -12.1995    5.4021   -0.6200 H       1  LIG1        0.1086
     45 O         -10.7128   11.2649    1.0372 O.3     1  LIG1       -0.5052
     46 H         -11.3958   11.9485    1.0053 H       1  LIG1        0.2922
@<TRIPOS>BOND
     1    34    33    1
     2    43    44    1
     3    43    35    1
     4    12    11    1
     5    33    27    1
     6    11     4    1
     7    20    21    1
     8    20    13    1
     9    30    26    1
    10     7     3    1
    11    27    26   ar
    12    27    28   ar
    13    26    25   ar
    14     4     3   ar
    15     4     5   ar
    16    35    40   ar
    17    35    36   ar
    18    40    39   ar
    19     3     2   ar
    20    18    13   ar
    21    18    17   ar
    22    13    14   ar
    23    28    36    1
    24    28    29   ar
    25    42    39    1
    26    25    17    1
    27    25    24   ar
    28    36    37   ar
    29    39    38   ar
    30     5    14    1
    31     5     6   ar
    32     2     8    1
    33     2     1   ar
    34    17    16   ar
    35    14    15   ar
    36    29    24   ar
    37    24    31    1
    38    32    31    1
    39     6     1   ar
    40    37    38   ar
    41    37    41    1
    42     1     9    1
    43    38    45    1
    44    15    16   ar
    45    15    19    1
    46    16    22    1
    47    10     9    1
    48    46    45    1
    49    22    23    1
