@<TRIPOS>MOLECULE
mol_data/opt/b3lyp/geoms/mol2/6gf6gf-6gf-.out
 35 37 0 0 0
SMALL
GASTEIGER

@<TRIPOS>ATOM
      1 C          -4.0372   -1.9654    0.9439 C.ar    1  LIG1        0.0949
      2 C          -2.8680   -2.0749    0.1746 C.ar    1  LIG1       -0.0265
      3 C          -2.5754   -1.0542   -0.7146 C.ar    1  LIG1       -0.0155
      4 C          -3.4210    0.0577   -0.8020 C.ar    1  LIG1        0.1429
      5 C          -4.5509    0.1084    0.0395 C.ar    1  LIG1        0.1161
      6 N          -4.8408   -0.9100    0.8691 N.ar    1  LIG1       -0.2370
      7 H          -1.7020   -1.0957   -1.3571 H       1  LIG1        0.0655
      8 H          -2.2159   -2.9372    0.2581 H       1  LIG1        0.0645
      9 S          -4.5755   -3.2111    2.1115 S.3     1  LIG1       -0.1234
     10 H          -3.6275   -4.1210    1.8132 H       1  LIG1        0.1086
     11 O          -3.0929    1.0148   -1.7117 O.3     1  LIG1       -0.5046
     12 H          -3.8131    1.6595   -1.7758 H       1  LIG1        0.2922
     13 C          -6.8790    1.2173   -0.0538 C.ar    1  LIG1        0.1042
     14 C          -5.4622    1.2879    0.0386 C.ar    1  LIG1        0.0390
     15 C          -4.9072    2.5705    0.1051 C.ar    1  LIG1       -0.0062
     16 C          -5.7074    3.7133    0.0563 C.ar    1  LIG1        0.1435
     17 C          -7.1005    3.5432   -0.0626 C.ar    1  LIG1        0.1162
     18 N          -7.6324    2.3133   -0.1188 N.ar    1  LIG1       -0.2363
     19 H          -3.8349    2.7054    0.2107 H       1  LIG1        0.0662
     20 S          -7.8285   -0.2913   -0.1523 S.3     1  LIG1       -0.1227
     21 H          -6.8704   -1.0803    0.3810 H       1  LIG1        0.1086
     22 O          -5.0756    4.9165    0.1122 O.3     1  LIG1       -0.5046
     23 H          -5.7209    5.6226   -0.0442 H       1  LIG1        0.2922
     24 C          -9.0333    4.9036   -1.0911 C.ar    1  LIG1        0.1034
     25 C          -8.0193    4.7159   -0.1123 C.ar    1  LIG1        0.0390
     26 C          -7.8731    5.7214    0.8541 C.ar    1  LIG1       -0.0068
     27 C          -8.6648    6.8695    0.8055 C.ar    1  LIG1        0.1356
     28 C          -9.5861    6.9773   -0.2377 C.ar    1  LIG1        0.0702
     29 N          -9.7681    6.0164   -1.1420 N.ar    1  LIG1       -0.2447
     30 H          -7.1618    5.6116    1.6673 H       1  LIG1        0.0662
     31 H         -10.2108    7.8661   -0.3376 H       1  LIG1        0.0867
     32 S          -9.4260    3.7465   -2.3928 S.3     1  LIG1       -0.1228
     33 H          -8.9353    2.6611   -1.7563 H       1  LIG1        0.1086
     34 O          -8.4929    7.8178    1.7682 O.3     1  LIG1       -0.5052
     35 H          -9.1185    8.5403    1.6220 H       1  LIG1        0.2922
@<TRIPOS>BOND
     1    32    33    1
     2    32    24    1
     3    12    11    1
     4    11     4    1
     5     7     3    1
     6    29    24   ar
     7    29    28   ar
     8    24    25   ar
     9     4     3   ar
    10     4     5   ar
    11     3     2   ar
    12    31    28    1
    13    28    27   ar
    14    20    13    1
    15    20    21    1
    16    18    17   ar
    17    18    13   ar
    18    25    17    1
    19    25    26   ar
    20    17    16   ar
    21    13    14   ar
    22    23    22    1
    23    14     5    1
    24    14    15   ar
    25     5     6   ar
    26    16    15   ar
    27    16    22    1
    28    15    19    1
    29     2     8    1
    30     2     1   ar
    31    27    26   ar
    32    27    34    1
    33    26    30    1
    34     6     1   ar
    35     1     9    1
    36    35    34    1
    37    10     9    1
