@<TRIPOS>MOLECULE
mol_data/opt/b3lyp/geoms/mol2/6gf6gf6gf-.out
 35 37 0 0 0
SMALL
GASTEIGER

@<TRIPOS>ATOM
      1 C          -4.1635   -2.1431   -0.3040 C.ar    1  LIG1        0.0949
      2 C          -2.8097   -2.0329    0.0503 C.ar    1  LIG1       -0.0265
      3 C          -2.3367   -0.7903    0.4386 C.ar    1  LIG1       -0.0155
      4 C          -3.1972    0.3134    0.4397 C.ar    1  LIG1        0.1429
      5 C          -4.5326    0.1235    0.0293 C.ar    1  LIG1        0.1161
      6 N          -4.9837   -1.0979   -0.3089 N.ar    1  LIG1       -0.2370
      7 H          -1.3073   -0.6485    0.7505 H       1  LIG1        0.0655
      8 H          -2.1506   -2.8938    0.0359 H       1  LIG1        0.0645
      9 S          -4.9366   -3.6797   -0.7991 S.3     1  LIG1       -0.1234
     10 H          -3.8805   -4.4746   -0.5377 H       1  LIG1        0.1086
     11 O          -2.6800    1.5019    0.8535 O.3     1  LIG1       -0.5046
     12 H          -3.3933    2.1527    0.9311 H       1  LIG1        0.2922
     13 C          -6.8055    1.2577    0.4867 C.ar    1  LIG1        0.1042
     14 C          -5.4861    1.2663   -0.0421 C.ar    1  LIG1        0.0390
     15 C          -5.0821    2.4461   -0.6784 C.ar    1  LIG1       -0.0062
     16 C          -5.9090    3.5697   -0.7213 C.ar    1  LIG1        0.1435
     17 C          -7.1646    3.4958   -0.0859 C.ar    1  LIG1        0.1162
     18 N          -7.5763    2.3427    0.4610 N.ar    1  LIG1       -0.2363
     19 H          -4.1224    2.5022   -1.1834 H       1  LIG1        0.0662
     20 S          -7.5870   -0.1349    1.2831 S.3     1  LIG1       -0.1227
     21 H          -6.7986   -1.0673    0.7024 H       1  LIG1        0.1086
     22 O          -5.4432    4.6586   -1.3905 O.3     1  LIG1       -0.5046
     23 H          -6.1500    5.3184   -1.4558 H       1  LIG1        0.2922
     24 C          -9.4591    4.6488   -0.3394 C.ar    1  LIG1        0.1034
     25 C          -8.0719    4.6759   -0.0226 C.ar    1  LIG1        0.0390
     26 C          -7.5303    5.9121    0.3606 C.ar    1  LIG1       -0.0068
     27 C          -8.3236    7.0590    0.3770 C.ar    1  LIG1        0.1356
     28 C          -9.6581    6.9278   -0.0112 C.ar    1  LIG1        0.0702
     29 N         -10.2018    5.7587   -0.3434 N.ar    1  LIG1       -0.2447
     30 H          -6.4931    5.9914    0.6720 H       1  LIG1        0.0662
     31 H         -10.3158    7.7978   -0.0415 H       1  LIG1        0.0867
     32 S         -10.3803    3.1986   -0.8190 S.3     1  LIG1       -0.1228
     33 H          -9.5168    2.3091   -0.2810 H       1  LIG1        0.1086
     34 O          -7.7565    8.2365    0.7634 O.3     1  LIG1       -0.5052
     35 H          -8.4253    8.9346    0.7460 H       1  LIG1        0.2922
@<TRIPOS>BOND
     1    23    22    1
     2    22    16    1
     3    19    15    1
     4    32    24    1
     5    32    33    1
     6     9    10    1
     7     9     1    1
     8    16    15   ar
     9    16    17   ar
    10    15    14   ar
    11    29    24   ar
    12    29    28   ar
    13    24    25   ar
    14     6     1   ar
    15     6     5   ar
    16     1     2   ar
    17    17    25    1
    18    17    18   ar
    19    14     5    1
    20    14    13   ar
    21    31    28    1
    22    25    26   ar
    23    28    27   ar
    24     5     4   ar
    25     8     2    1
    26     2     3   ar
    27    26    27   ar
    28    26    30    1
    29    27    34    1
    30     3     4   ar
    31     3     7    1
    32     4    11    1
    33    18    13   ar
    34    13    20    1
    35    21    20    1
    36    35    34    1
    37    11    12    1
