@<TRIPOS>MOLECULE
mol_data/opt/b3lyp/geoms/mol2/6gf6gf-6gf-6gf.out
 46 49 0 0 0
SMALL
GASTEIGER

@<TRIPOS>ATOM
      1 C          -3.9685   -2.2086   -0.0253 C.ar    1  LIG1        0.0949
      2 C          -2.5832   -2.0036   -0.1245 C.ar    1  LIG1       -0.0265
      3 C          -2.1232   -0.7021   -0.2368 C.ar    1  LIG1       -0.0155
      4 C          -3.0319    0.3622   -0.2192 C.ar    1  LIG1        0.1429
      5 C          -4.4039    0.0705   -0.0750 C.ar    1  LIG1        0.1161
      6 N          -4.8351   -1.2018   -0.0044 N.ar    1  LIG1       -0.2370
      7 H          -1.0662   -0.4824   -0.3442 H       1  LIG1        0.0655
      8 H          -1.8884   -2.8360   -0.1272 H       1  LIG1        0.0645
      9 S          -4.7252   -3.8262    0.0965 S.3     1  LIG1       -0.1234
     10 H          -3.5959   -4.5383   -0.0855 H       1  LIG1        0.1086
     11 O          -2.5200    1.6154   -0.3553 O.3     1  LIG1       -0.5046
     12 H          -3.2448    2.2502   -0.4558 H       1  LIG1        0.2922
     13 C          -6.6389    1.1882   -0.7237 C.ar    1  LIG1        0.1042
     14 C          -5.4187    1.1583    0.0057 C.ar    1  LIG1        0.0390
     15 C          -5.1854    2.2391    0.8641 C.ar    1  LIG1       -0.0062
     16 C          -6.0687    3.3176    0.9362 C.ar    1  LIG1        0.1435
     17 C          -7.2012    3.3053    0.0977 C.ar    1  LIG1        0.1162
     18 N          -7.4602    2.2341   -0.6674 N.ar    1  LIG1       -0.2363
     19 H          -4.3214    2.2470    1.5218 H       1  LIG1        0.0662
     20 S          -7.2150   -0.0934   -1.8225 S.3     1  LIG1       -0.1227
     21 H          -6.4735   -1.0761   -1.2629 H       1  LIG1        0.1086
     22 O          -5.7720    4.3018    1.8272 O.3     1  LIG1       -0.5046
     23 H          -6.5218    4.9116    1.8950 H       1  LIG1        0.2922
     24 C          -9.5667    4.3381    0.0875 C.ar    1  LIG1        0.1042
     25 C          -8.1488    4.4525    0.0481 C.ar    1  LIG1        0.0390
     26 C          -7.6314    5.7517   -0.0167 C.ar    1  LIG1       -0.0062
     27 C          -8.4661    6.8696   -0.0153 C.ar    1  LIG1        0.1435
     28 C          -9.8571    6.6580    0.0552 C.ar    1  LIG1        0.1162
     29 N         -10.3528    5.4137    0.1103 N.ar    1  LIG1       -0.2363
     30 H          -6.5610    5.9198   -0.0858 H       1  LIG1        0.0662
     31 S         -10.4781    2.8079    0.1675 S.3     1  LIG1       -0.1227
     32 H          -9.4740    2.0376   -0.3096 H       1  LIG1        0.1086
     33 O          -7.8692    8.0909   -0.0665 O.3     1  LIG1       -0.5046
     34 H          -8.5410    8.7790    0.0543 H       1  LIG1        0.2922
     35 C         -11.8695    7.9707    0.9888 C.ar    1  LIG1        0.1034
     36 C         -10.8124    7.8022    0.0531 C.ar    1  LIG1        0.0390
     37 C         -10.6593    8.7988   -0.9215 C.ar    1  LIG1       -0.0068
     38 C         -11.4874    9.9219   -0.9206 C.ar    1  LIG1        0.1356
     39 C         -12.4519   10.0145    0.0844 C.ar    1  LIG1        0.0702
     40 N         -12.6395    9.0606    0.9949 N.ar    1  LIG1       -0.2447
     41 H          -9.9140    8.7001   -1.7053 H       1  LIG1        0.0662
     42 H         -13.1072   10.8844    0.1469 H       1  LIG1        0.0867
     43 S         -12.2773    6.8195    2.2911 S.3     1  LIG1       -0.1228
     44 H         -11.7251    5.7425    1.6916 H       1  LIG1        0.1086
     45 O         -11.3075   10.8621   -1.8898 O.3     1  LIG1       -0.5052
     46 H         -11.9623   11.5650   -1.7801 H       1  LIG1        0.2922
@<TRIPOS>BOND
     1    45    46    1
     2    45    38    1
     3    20    21    1
     4    20    13    1
     5    41    37    1
     6    37    38   ar
     7    37    36   ar
     8    38    39   ar
     9    13    18   ar
    10    13    14   ar
    11    18    17   ar
    12    12    11    1
    13    11     4    1
    14     7     3    1
    15    32    31    1
    16     3     4   ar
    17     3     2   ar
    18     4     5   ar
    19     8     2    1
    20     2     1   ar
    21    30    26    1
    22    10     9    1
    23     5     6   ar
    24     5    14    1
    25    33    27    1
    26    33    34    1
    27     1     6   ar
    28     1     9    1
    29    26    27   ar
    30    26    25   ar
    31    27    28   ar
    32    14    15   ar
    33    25    24   ar
    34    25    17    1
    35    36    28    1
    36    36    35   ar
    37    28    29   ar
    38    39    42    1
    39    39    40   ar
    40    24    29   ar
    41    24    31    1
    42    17    16   ar
    43    15    16   ar
    44    15    19    1
    45    16    22    1
    46    35    40   ar
    47    35    43    1
    48    44    43    1
    49    22    23    1
