@<TRIPOS>MOLECULE
mol_data/opt/b3lyp/geoms/mol2/6gg.out
 13 13 0 0 0
SMALL
GASTEIGER

@<TRIPOS>ATOM
      1 C          -4.5581   -2.0401    0.0001 C.ar    1  LIG1        0.0940
      2 C          -3.1558   -2.0222    0.0000 C.ar    1  LIG1       -0.0290
      3 C          -2.5101   -0.7925   -0.0002 C.ar    1  LIG1       -0.0446
      4 C          -3.2689    0.3849   -0.0003 C.ar    1  LIG1        0.0229
      5 C          -4.6624    0.2508   -0.0002 C.ar    1  LIG1        0.0420
      6 N          -5.2911   -0.9257   -0.0000 N.ar    1  LIG1       -0.2479
      7 H          -1.4248   -0.7509   -0.0002 H       1  LIG1        0.0630
      8 H          -2.5803   -2.9419    0.0001 H       1  LIG1        0.0644
      9 H          -5.3031    1.1311   -0.0003 H       1  LIG1        0.0841
     10 S          -5.5282   -3.5413    0.0003 S.3     1  LIG1       -0.1234
     11 H          -4.4878   -4.3983    0.0003 H       1  LIG1        0.1086
     12 S          -2.4343    1.9621   -0.0005 S.3     1  LIG1       -0.1412
     13 H          -3.5463    2.7230   -0.0004 H       1  LIG1        0.1072
@<TRIPOS>BOND
     1    12    13    1
     2    12     4    1
     3     4     5   ar
     4     4     3   ar
     5     9     5    1
     6     7     3    1
     7     5     6   ar
     8     3     2   ar
     9     6     1   ar
    10     2     1   ar
    11     2     8    1
    12     1    10    1
    13    11    10    1
