@<TRIPOS>MOLECULE
mol_data/opt/b3lyp/geoms/mol2/6gh.out
 14 14 0 0 0
SMALL
GASTEIGER

@<TRIPOS>ATOM
      1 C          -4.5562   -2.0239    0.0098 C.ar    1  LIG1        0.0940
      2 C          -3.1550   -2.0140   -0.0058 C.ar    1  LIG1       -0.0283
      3 C          -2.4985   -0.7905   -0.0388 C.ar    1  LIG1       -0.0371
      4 C          -3.2425    0.3994   -0.0574 C.ar    1  LIG1        0.0430
      5 C          -4.6407    0.2664   -0.0411 C.ar    1  LIG1        0.0494
      6 N          -5.2783   -0.9039   -0.0080 N.ar    1  LIG1       -0.2472
      7 H          -1.4119   -0.7548   -0.0461 H       1  LIG1        0.0637
      8 H          -2.5859   -2.9376    0.0064 H       1  LIG1        0.0644
      9 H          -5.2697    1.1564   -0.0536 H       1  LIG1        0.0849
     10 S          -5.5388   -3.5241    0.0500 S.3     1  LIG1       -0.1234
     11 H          -4.5042   -4.3880    0.0635 H       1  LIG1        0.1086
     12 N          -2.6320    1.6531   -0.0306 N.pl3   1  LIG1       -0.3568
     13 H          -1.7039    1.6883   -0.4301 H       1  LIG1        0.1424
     14 H          -3.2087    2.4144   -0.3627 H       1  LIG1        0.1424
@<TRIPOS>BOND
     1    13    12    1
     2    14    12    1
     3     4     5   ar
     4     4     3   ar
     5     4    12    1
     6     9     5    1
     7     7     3    1
     8     5     6   ar
     9     3     2   ar
    10     6     1   ar
    11     2     8    1
    12     2     1   ar
    13     1    10    1
    14    10    11    1
