@<TRIPOS>MOLECULE
mol_data/opt/b3lyp/geoms/mol2/6gh6gh-.out
 26 27 0 0 0
SMALL
GASTEIGER

@<TRIPOS>ATOM
      1 C          -4.3598   -1.9984    0.6063 C.ar    1  LIG1        0.0947
      2 C          -3.0137   -2.0393    0.2207 C.ar    1  LIG1       -0.0283
      3 C          -2.4649   -0.8991   -0.3440 C.ar    1  LIG1       -0.0365
      4 C          -3.2349    0.2649   -0.5021 C.ar    1  LIG1        0.0510
      5 C          -4.5760    0.2178   -0.0478 C.ar    1  LIG1        0.0954
      6 N          -5.1010   -0.9039    0.4709 N.ar    1  LIG1       -0.2388
      7 H          -1.4282   -0.9014   -0.6716 H       1  LIG1        0.0637
      8 H          -2.4148   -2.9349    0.3457 H       1  LIG1        0.0644
      9 S          -5.2335   -3.3901    1.3244 S.3     1  LIG1       -0.1234
     10 H          -4.2330   -4.2837    1.1944 H       1  LIG1        0.1086
     11 N          -2.6651    1.4147   -1.0513 N.pl3   1  LIG1       -0.3563
     12 H          -1.8897    1.2353   -1.6759 H       1  LIG1        0.1424
     13 H          -3.3305    2.0617   -1.4542 H       1  LIG1        0.1424
     14 C          -6.7563    1.4182   -0.7081 C.ar    1  LIG1        0.1033
     15 C          -5.4652    1.4147   -0.1216 C.ar    1  LIG1        0.0355
     16 C          -5.0096    2.6221    0.4229 C.ar    1  LIG1       -0.0278
     17 C          -5.7837    3.7867    0.3555 C.ar    1  LIG1        0.0436
     18 C          -7.0178    3.6750   -0.3028 C.ar    1  LIG1        0.0495
     19 N          -7.4839    2.5337   -0.8022 N.ar    1  LIG1       -0.2465
     20 H          -4.0373    2.6499    0.9075 H       1  LIG1        0.0644
     21 H          -7.6586    4.5496   -0.4154 H       1  LIG1        0.0849
     22 S          -7.5499   -0.0009   -1.4564 S.3     1  LIG1       -0.1228
     23 H          -6.8757   -0.9267   -0.7428 H       1  LIG1        0.1086
     24 N          -5.3812    4.9776    0.9566 N.pl3   1  LIG1       -0.3568
     25 H          -4.3838    5.0901    1.0754 H       1  LIG1        0.1424
     26 H          -5.8158    5.8133    0.5896 H       1  LIG1        0.1424
@<TRIPOS>BOND
     1    12    11    1
     2    22    23    1
     3    22    14    1
     4    13    11    1
     5    11     4    1
     6    19    14   ar
     7    19    18   ar
     8    14    15   ar
     9     7     3    1
    10     4     3   ar
    11     4     5   ar
    12    21    18    1
    13     3     2   ar
    14    18    17   ar
    15    15     5    1
    16    15    16   ar
    17     5     6   ar
    18     2     8    1
    19     2     1   ar
    20    17    16   ar
    21    17    24    1
    22    16    20    1
    23     6     1   ar
    24    26    24    1
    25     1     9    1
    26    24    25    1
    27    10     9    1
