@<TRIPOS>MOLECULE
mol_data/opt/b3lyp/geoms/mol2/6gh6gh-6gh-6gh-.out
 50 53 0 0 0
SMALL
GASTEIGER

@<TRIPOS>ATOM
      1 C          -3.5135   -1.6310    1.4956 C.ar    1  LIG1        0.0947
      2 C          -2.6354   -2.0318    0.4796 C.ar    1  LIG1       -0.0283
      3 C          -2.6754   -1.3451   -0.7228 C.ar    1  LIG1       -0.0365
      4 C          -3.5545   -0.2641   -0.9038 C.ar    1  LIG1        0.0510
      5 C          -4.3717    0.0915    0.1974 C.ar    1  LIG1        0.0954
      6 N          -4.3452   -0.6058    1.3450 N.ar    1  LIG1       -0.2388
      7 H          -2.0234   -1.6442   -1.5397 H       1  LIG1        0.0637
      8 H          -1.9513   -2.8621    0.6166 H       1  LIG1        0.0644
      9 S          -3.6165   -2.4302    3.0958 S.3     1  LIG1       -0.1234
     10 H          -2.7713   -3.4419    2.8161 H       1  LIG1        0.1086
     11 N          -3.5716    0.4316   -2.1131 N.pl3   1  LIG1       -0.3563
     12 H          -3.2498   -0.1077   -2.9063 H       1  LIG1        0.1424
     13 H          -4.4401    0.9105   -2.3135 H       1  LIG1        0.1424
     14 C          -6.6739    1.2129    0.4863 C.ar    1  LIG1        0.1040
     15 C          -5.3000    1.2582    0.1373 C.ar    1  LIG1        0.0356
     16 C          -4.8108    2.4918   -0.2989 C.ar    1  LIG1       -0.0272
     17 C          -5.6282    3.6245   -0.4070 C.ar    1  LIG1        0.0517
     18 C          -6.9905    3.4617   -0.0615 C.ar    1  LIG1        0.0954
     19 N          -7.4606    2.2791    0.3587 N.ar    1  LIG1       -0.2381
     20 H          -3.7619    2.5738   -0.5711 H       1  LIG1        0.0644
     21 S          -7.5455   -0.2423    1.0541 S.3     1  LIG1       -0.1227
     22 H          -6.4499   -0.8767    1.5220 H       1  LIG1        0.1086
     23 N          -5.0870    4.8461   -0.8090 N.pl3   1  LIG1       -0.3563
     24 H          -4.2301    4.7670   -1.3409 H       1  LIG1        0.1424
     25 H          -5.7455    5.4793   -1.2440 H       1  LIG1        0.1424
     26 C          -9.2096    4.5390   -0.8002 C.ar    1  LIG1        0.1040
     27 C          -7.9595    4.5936   -0.1338 C.ar    1  LIG1        0.0356
     28 C          -7.6333    5.8077    0.4759 C.ar    1  LIG1       -0.0272
     29 C          -8.4794    6.9227    0.4161 C.ar    1  LIG1        0.0517
     30 C          -9.6838    6.7721   -0.3109 C.ar    1  LIG1        0.0954
     31 N         -10.0011    5.6055   -0.8886 N.ar    1  LIG1       -0.2381
     32 H          -6.6902    5.8916    1.0093 H       1  LIG1        0.0644
     33 S          -9.8501    3.1039   -1.6571 S.3     1  LIG1       -0.1227
     34 H          -9.1618    2.2027   -0.9238 H       1  LIG1        0.1086
     35 N          -8.1361    8.1019    1.0777 N.pl3   1  LIG1       -0.3563
     36 H          -7.1455    8.2122    1.2496 H       1  LIG1        0.1424
     37 H          -8.5540    8.9398    0.6950 H       1  LIG1        0.1424
     38 C         -11.1757    8.3511   -1.6897 C.ar    1  LIG1        0.1033
     39 C         -10.6582    7.8942   -0.4516 C.ar    1  LIG1        0.0355
     40 C         -11.0988    8.5506    0.7043 C.ar    1  LIG1       -0.0278
     41 C         -11.9822    9.6347    0.6299 C.ar    1  LIG1        0.0436
     42 C         -12.3719   10.0322   -0.6582 C.ar    1  LIG1        0.0495
     43 N         -11.9901    9.4053   -1.7679 N.ar    1  LIG1       -0.2465
     44 H         -10.7488    8.2069    1.6740 H       1  LIG1        0.0644
     45 H         -13.0346   10.8878   -0.7895 H       1  LIG1        0.0849
     46 S         -10.7660    7.6521   -3.2878 S.3     1  LIG1       -0.1228
     47 H         -10.4961    6.4133   -2.8239 H       1  LIG1        0.1086
     48 N         -12.4919   10.2514    1.7699 N.pl3   1  LIG1       -0.3568
     49 H         -11.9258   10.1672    2.6028 H       1  LIG1        0.1424
     50 H         -12.8356   11.1924    1.6357 H       1  LIG1        0.1424
@<TRIPOS>BOND
     1    46    47    1
     2    46    38    1
     3    12    11    1
     4    13    11    1
     5    11     4    1
     6    43    38   ar
     7    43    42   ar
     8    38    39   ar
     9    33    34    1
    10    33    26    1
    11     7     3    1
    12    24    23    1
    13    25    23    1
    14     4     3   ar
    15     4     5   ar
    16    31    26   ar
    17    31    30   ar
    18    23    17    1
    19    26    27   ar
    20    45    42    1
    21     3     2   ar
    22    42    41   ar
    23    20    16    1
    24    39    30    1
    25    39    40   ar
    26    17    16   ar
    27    17    18   ar
    28    30    29   ar
    29    16    15   ar
    30    27    18    1
    31    27    28   ar
    32    18    19   ar
    33    15     5    1
    34    15    14   ar
    35     5     6   ar
    36    19    14   ar
    37    29    28   ar
    38    29    35    1
    39    28    32    1
    40     2     8    1
    41     2     1   ar
    42    14    21    1
    43    41    40   ar
    44    41    48    1
    45    37    35    1
    46    40    44    1
    47    21    22    1
    48    35    36    1
    49     6     1   ar
    50     1     9    1
    51    50    48    1
    52    48    49    1
    53    10     9    1
