@<TRIPOS>MOLECULE
mol_data/opt/b3lyp/geoms/mol2/6gh6gh-6gh6gh.out
 50 53 0 0 0
SMALL
GASTEIGER

@<TRIPOS>ATOM
      1 C          -3.5310   -1.6388    1.5104 C.ar    1  LIG1        0.0947
      2 C          -2.6446   -2.0372    0.5007 C.ar    1  LIG1       -0.0283
      3 C          -2.6740   -1.3471   -0.7000 C.ar    1  LIG1       -0.0365
      4 C          -3.5508   -0.2650   -0.8854 C.ar    1  LIG1        0.0510
      5 C          -4.3771    0.0881    0.2099 C.ar    1  LIG1        0.0954
      6 N          -4.3607   -0.6125    1.3557 N.ar    1  LIG1       -0.2388
      7 H          -2.0153   -1.6443   -1.5122 H       1  LIG1        0.0637
      8 H          -1.9623   -2.8684    0.6412 H       1  LIG1        0.0644
      9 S          -3.6481   -2.4425    3.1073 S.3     1  LIG1       -0.1234
     10 H          -2.8012   -3.4540    2.8319 H       1  LIG1        0.1086
     11 N          -3.5571    0.4343   -2.0928 N.pl3   1  LIG1       -0.3563
     12 H          -3.2289   -0.1030   -2.8847 H       1  LIG1        0.1424
     13 H          -4.4238    0.9141   -2.2992 H       1  LIG1        0.1424
     14 C          -6.6809    1.2103    0.4825 C.ar    1  LIG1        0.1040
     15 C          -5.3041    1.2556    0.1453 C.ar    1  LIG1        0.0356
     16 C          -4.8103    2.4901   -0.2832 C.ar    1  LIG1       -0.0272
     17 C          -5.6260    3.6236   -0.3951 C.ar    1  LIG1        0.0517
     18 C          -6.9913    3.4609   -0.0615 C.ar    1  LIG1        0.0954
     19 N          -7.4658    2.2774    0.3513 N.ar    1  LIG1       -0.2381
     20 H          -3.7591    2.5720   -0.5463 H       1  LIG1        0.0644
     21 S          -7.5582   -0.2459    1.0387 S.3     1  LIG1       -0.1227
     22 H          -6.4671   -0.8824    1.5142 H       1  LIG1        0.1086
     23 N          -5.0805    4.8460   -0.7889 N.pl3   1  LIG1       -0.3563
     24 H          -4.2193    4.7677   -1.3139 H       1  LIG1        0.1424
     25 H          -5.7349    5.4809   -1.2277 H       1  LIG1        0.1424
     26 C          -9.2035    4.5418   -0.8157 C.ar    1  LIG1        0.1040
     27 C          -7.9589    4.5937   -0.1389 C.ar    1  LIG1        0.0356
     28 C          -7.6368    5.8059    0.4767 C.ar    1  LIG1       -0.0272
     29 C          -8.4815    6.9217    0.4130 C.ar    1  LIG1        0.0517
     30 C          -9.6800    6.7739   -0.3243 C.ar    1  LIG1        0.0954
     31 N          -9.9935    5.6091   -0.9077 N.ar    1  LIG1       -0.2381
     32 H          -6.6980    5.8876    1.0180 H       1  LIG1        0.0644
     33 S          -9.8380    3.1095   -1.6817 S.3     1  LIG1       -0.1227
     34 H          -9.1565    2.2059   -0.9451 H       1  LIG1        0.1086
     35 N          -8.1428    8.0988    1.0805 N.pl3   1  LIG1       -0.3563
     36 H          -7.1535    8.2079    1.2607 H       1  LIG1        0.1424
     37 H          -8.5568    8.9381    0.6965 H       1  LIG1        0.1424
     38 C         -11.1597    8.3575   -1.7110 C.ar    1  LIG1        0.1033
     39 C         -10.6525    7.8972   -0.4700 C.ar    1  LIG1        0.0355
     40 C         -11.1019    8.5509    0.6841 C.ar    1  LIG1       -0.0278
     41 C         -11.9839    9.6358    0.6053 C.ar    1  LIG1        0.0436
     42 C         -12.3630   10.0369   -0.6848 C.ar    1  LIG1        0.0495
     43 N         -11.9728    9.4125   -1.7930 N.ar    1  LIG1       -0.2465
     44 H         -10.7599    8.2045    1.6556 H       1  LIG1        0.0644
     45 H         -13.0241   10.8933   -0.8192 H       1  LIG1        0.0849
     46 S         -10.7377    7.6624   -3.3075 S.3     1  LIG1       -0.1228
     47 H         -10.4724    6.4222   -2.8447 H       1  LIG1        0.1086
     48 N         -12.5023   10.2500    1.7429 N.pl3   1  LIG1       -0.3568
     49 H         -11.9429   10.1632    2.5800 H       1  LIG1        0.1424
     50 H         -12.8443   11.1915    1.6083 H       1  LIG1        0.1424
@<TRIPOS>BOND
     1    46    47    1
     2    46    38    1
     3    12    11    1
     4    13    11    1
     5    11     4    1
     6    43    38   ar
     7    43    42   ar
     8    38    39   ar
     9    33    34    1
    10    33    26    1
    11     7     3    1
    12    24    23    1
    13    25    23    1
    14    31    26   ar
    15    31    30   ar
    16     4     3   ar
    17     4     5   ar
    18    45    42    1
    19    26    27   ar
    20    23    17    1
    21     3     2   ar
    22    42    41   ar
    23    20    16    1
    24    39    30    1
    25    39    40   ar
    26    17    16   ar
    27    17    18   ar
    28    30    29   ar
    29    16    15   ar
    30    27    18    1
    31    27    28   ar
    32    18    19   ar
    33    15     5    1
    34    15    14   ar
    35     5     6   ar
    36    19    14   ar
    37    29    28   ar
    38    29    35    1
    39    28    32    1
    40    14    21    1
    41     2     8    1
    42     2     1   ar
    43    41    40   ar
    44    41    48    1
    45    40    44    1
    46    37    35    1
    47    21    22    1
    48    35    36    1
    49     6     1   ar
    50     1     9    1
    51    50    48    1
    52    48    49    1
    53    10     9    1
