@<TRIPOS>MOLECULE
mol_data/opt/b3lyp/geoms/mol2/6gh6gh6gh6gh.out
 50 53 0 0 0
SMALL
GASTEIGER

@<TRIPOS>ATOM
      1 C          -3.5049   -1.6232    1.5070 C.ar    1  LIG1        0.0947
      2 C          -2.6329   -2.0299    0.4880 C.ar    1  LIG1       -0.0283
      3 C          -2.6802   -1.3501   -0.7180 C.ar    1  LIG1       -0.0365
      4 C          -3.5604   -0.2702   -0.9000 C.ar    1  LIG1        0.0510
      5 C          -4.3709    0.0918    0.2041 C.ar    1  LIG1        0.0954
      6 N          -4.3374   -0.5988    1.3555 N.ar    1  LIG1       -0.2388
      7 H          -2.0332   -1.6540   -1.5372 H       1  LIG1        0.0637
      8 H          -1.9481   -2.8594    0.6257 H       1  LIG1        0.0644
      9 S          -3.5982   -2.4132    3.1124 S.3     1  LIG1       -0.1234
     10 H          -2.7547   -3.4265    2.8335 H       1  LIG1        0.1086
     11 N          -3.5848    0.4186   -2.1131 N.pl3   1  LIG1       -0.3563
     12 H          -3.2679   -0.1253   -2.9051 H       1  LIG1        0.1424
     13 H          -4.4546    0.8962   -2.3110 H       1  LIG1        0.1424
     14 C          -6.6712    1.2153    0.5008 C.ar    1  LIG1        0.1040
     15 C          -5.2995    1.2583    0.1429 C.ar    1  LIG1        0.0356
     16 C          -4.8128    2.4893   -0.3036 C.ar    1  LIG1       -0.0272
     17 C          -5.6307    3.6214   -0.4132 C.ar    1  LIG1        0.0517
     18 C          -6.9908    3.4610   -0.0580 C.ar    1  LIG1        0.0954
     19 N          -7.4585    2.2810    0.3720 N.ar    1  LIG1       -0.2381
     20 H          -3.7656    2.5694   -0.5828 H       1  LIG1        0.0644
     21 S          -7.5394   -0.2363    1.0823 S.3     1  LIG1       -0.1227
     22 H          -6.4411   -0.8683    1.5472 H       1  LIG1        0.1086
     23 N          -5.0918    4.8406   -0.8256 N.pl3   1  LIG1       -0.3563
     24 H          -4.2384    4.7582   -1.3626 H       1  LIG1        0.1424
     25 H          -5.7530    5.4713   -1.2601 H       1  LIG1        0.1424
     26 C          -9.2143    4.5345   -0.7891 C.ar    1  LIG1        0.1040
     27 C          -7.9600    4.5926   -0.1308 C.ar    1  LIG1        0.0356
     28 C          -7.6298    5.8101    0.4699 C.ar    1  LIG1       -0.0272
     29 C          -8.4761    6.9249    0.4091 C.ar    1  LIG1        0.0517
     30 C          -9.6850    6.7704   -0.3095 C.ar    1  LIG1        0.0954
     31 N         -10.0061    5.6006   -0.8787 N.ar    1  LIG1       -0.2381
     32 H          -6.6833    5.8969    0.9969 H       1  LIG1        0.0644
     33 S          -9.8603    3.0946   -1.6337 S.3     1  LIG1       -0.1227
     34 H          -9.1676    2.1975   -0.8997 H       1  LIG1        0.1086
     35 N          -8.1285    8.1078    1.0617 N.pl3   1  LIG1       -0.3563
     36 H          -7.1368    8.2189    1.2267 H       1  LIG1        0.1424
     37 H          -8.5486    8.9436    0.6768 H       1  LIG1        0.1424
     38 C         -11.1853    8.3418   -1.6879 C.ar    1  LIG1        0.1033
     39 C         -10.6601    7.8919   -0.4505 C.ar    1  LIG1        0.0355
     40 C         -11.0934    8.5549    0.7044 C.ar    1  LIG1       -0.0278
     41 C         -11.9771    9.6386    0.6294 C.ar    1  LIG1        0.0436
     42 C         -12.3749   10.0289   -0.6584 C.ar    1  LIG1        0.0495
     43 N         -12.0002    9.3957   -1.7669 N.ar    1  LIG1       -0.2465
     44 H         -10.7374    8.2166    1.6738 H       1  LIG1        0.0644
     45 H         -13.0383   10.8838   -0.7904 H       1  LIG1        0.0849
     46 S         -10.7857    7.6338   -3.2845 S.3     1  LIG1       -0.1228
     47 H         -10.5133    6.3976   -2.8155 H       1  LIG1        0.1086
     48 N         -12.4796   10.2618    1.7691 N.pl3   1  LIG1       -0.3568
     49 H         -11.9083   10.1823    2.5989 H       1  LIG1        0.1424
     50 H         -12.8241   11.2021    1.6317 H       1  LIG1        0.1424
@<TRIPOS>BOND
     1    46    47    1
     2    46    38    1
     3    12    11    1
     4    13    11    1
     5    11     4    1
     6    43    38   ar
     7    43    42   ar
     8    38    39   ar
     9    33    34    1
    10    33    26    1
    11     7     3    1
    12    24    23    1
    13    25    23    1
    14     4     3   ar
    15     4     5   ar
    16    31    26   ar
    17    31    30   ar
    18    23    17    1
    19    45    42    1
    20    26    27   ar
    21     3     2   ar
    22    42    41   ar
    23    20    16    1
    24    39    30    1
    25    39    40   ar
    26    17    16   ar
    27    17    18   ar
    28    30    29   ar
    29    16    15   ar
    30    27    18    1
    31    27    28   ar
    32    18    19   ar
    33    15     5    1
    34    15    14   ar
    35     5     6   ar
    36    19    14   ar
    37    29    28   ar
    38    29    35    1
    39    28    32    1
    40     2     8    1
    41     2     1   ar
    42    14    21    1
    43    41    40   ar
    44    41    48    1
    45    37    35    1
    46    40    44    1
    47    35    36    1
    48    21    22    1
    49     6     1   ar
    50     1     9    1
    51    50    48    1
    52    48    49    1
    53    10     9    1
