@<TRIPOS>MOLECULE
mol_data/opt/b3lyp/geoms/mol2/6gh6gh6gh-6gh.out
 50 53 0 0 0
SMALL
GASTEIGER

@<TRIPOS>ATOM
      1 C          -3.5066   -1.6243    1.5068 C.ar    1  LIG1        0.0947
      2 C          -2.6351   -2.0314    0.4876 C.ar    1  LIG1       -0.0283
      3 C          -2.6825   -1.3518   -0.7185 C.ar    1  LIG1       -0.0365
      4 C          -3.5623   -0.2715   -0.9003 C.ar    1  LIG1        0.0510
      5 C          -4.3724    0.0910    0.2040 C.ar    1  LIG1        0.0954
      6 N          -4.3388   -0.5996    1.3555 N.ar    1  LIG1       -0.2388
      7 H          -2.0359   -1.6560   -1.5378 H       1  LIG1        0.0637
      8 H          -1.9506   -2.8612    0.6252 H       1  LIG1        0.0644
      9 S          -3.5997   -2.4140    3.1123 S.3     1  LIG1       -0.1234
     10 H          -2.7575   -3.4283    2.8329 H       1  LIG1        0.1086
     11 N          -3.5868    0.4172   -2.1135 N.pl3   1  LIG1       -0.3563
     12 H          -3.2704   -0.1269   -2.9056 H       1  LIG1        0.1424
     13 H          -4.4565    0.8951   -2.3112 H       1  LIG1        0.1424
     14 C          -6.6722    1.2153    0.5011 C.ar    1  LIG1        0.1040
     15 C          -5.3005    1.2578    0.1430 C.ar    1  LIG1        0.0356
     16 C          -4.8135    2.4885   -0.3038 C.ar    1  LIG1       -0.0272
     17 C          -5.6310    3.6209   -0.4134 C.ar    1  LIG1        0.0517
     18 C          -6.9911    3.4610   -0.0580 C.ar    1  LIG1        0.0954
     19 N          -7.4591    2.2812    0.3722 N.ar    1  LIG1       -0.2381
     20 H          -3.7663    2.5681   -0.5833 H       1  LIG1        0.0644
     21 S          -7.5408   -0.2359    1.0831 S.3     1  LIG1       -0.1227
     22 H          -6.4426   -0.8683    1.5475 H       1  LIG1        0.1086
     23 N          -5.0917    4.8398   -0.8261 N.pl3   1  LIG1       -0.3563
     24 H          -4.2384    4.7570   -1.3632 H       1  LIG1        0.1424
     25 H          -5.7527    5.4707   -1.2607 H       1  LIG1        0.1424
     26 C          -9.2144    4.5352   -0.7886 C.ar    1  LIG1        0.1040
     27 C          -7.9599    4.5930   -0.1308 C.ar    1  LIG1        0.0356
     28 C          -7.6289    5.8105    0.4693 C.ar    1  LIG1       -0.0272
     29 C          -8.4747    6.9257    0.4085 C.ar    1  LIG1        0.0517
     30 C          -9.6840    6.7715   -0.3097 C.ar    1  LIG1        0.0954
     31 N         -10.0058    5.6016   -0.8783 N.ar    1  LIG1       -0.2381
     32 H          -6.6822    5.8970    0.9959 H       1  LIG1        0.0644
     33 S          -9.8615    3.0954   -1.6326 S.3     1  LIG1       -0.1227
     34 H          -9.1687    2.1982   -0.8986 H       1  LIG1        0.1086
     35 N          -8.1263    8.1086    1.0606 N.pl3   1  LIG1       -0.3563
     36 H          -7.1345    8.2193    1.2251 H       1  LIG1        0.1424
     37 H          -8.5462    8.9445    0.6755 H       1  LIG1        0.1424
     38 C         -11.1844    8.3428   -1.6881 C.ar    1  LIG1        0.1033
     39 C         -10.6586    7.8934   -0.4507 C.ar    1  LIG1        0.0355
     40 C         -11.0910    8.5572    0.7041 C.ar    1  LIG1       -0.0278
     41 C         -11.9742    9.6413    0.6290 C.ar    1  LIG1        0.0436
     42 C         -12.3725   10.0311   -0.6588 C.ar    1  LIG1        0.0495
     43 N         -11.9988    9.3970   -1.7672 N.ar    1  LIG1       -0.2465
     44 H         -10.7345    8.2193    1.6735 H       1  LIG1        0.0644
     45 H         -13.0356   10.8862   -0.7909 H       1  LIG1        0.0849
     46 S         -10.7861    7.6338   -3.2845 S.3     1  LIG1       -0.1228
     47 H         -10.5138    6.3977   -2.8149 H       1  LIG1        0.1086
     48 N         -12.4757   10.2654    1.7687 N.pl3   1  LIG1       -0.3568
     49 H         -11.9039   10.1861    2.5981 H       1  LIG1        0.1424
     50 H         -12.8198   11.2057    1.6310 H       1  LIG1        0.1424
@<TRIPOS>BOND
     1    46    47    1
     2    46    38    1
     3    12    11    1
     4    13    11    1
     5    11     4    1
     6    43    38   ar
     7    43    42   ar
     8    38    39   ar
     9    33    34    1
    10    33    26    1
    11     7     3    1
    12    24    23    1
    13    25    23    1
    14     4     3   ar
    15     4     5   ar
    16    31    26   ar
    17    31    30   ar
    18    23    17    1
    19    45    42    1
    20    26    27   ar
    21     3     2   ar
    22    42    41   ar
    23    20    16    1
    24    39    30    1
    25    39    40   ar
    26    17    16   ar
    27    17    18   ar
    28    30    29   ar
    29    16    15   ar
    30    27    18    1
    31    27    28   ar
    32    18    19   ar
    33    15     5    1
    34    15    14   ar
    35     5     6   ar
    36    19    14   ar
    37    29    28   ar
    38    29    35    1
    39    28    32    1
    40     2     8    1
    41     2     1   ar
    42    14    21    1
    43    41    40   ar
    44    41    48    1
    45    37    35    1
    46    40    44    1
    47    35    36    1
    48    21    22    1
    49     6     1   ar
    50     1     9    1
    51    50    48    1
    52    48    49    1
    53    10     9    1
