@<TRIPOS>MOLECULE
mol_data/opt/b3lyp/geoms/mol2/6gh6gh-6gh.out
 38 40 0 0 0
SMALL
GASTEIGER

@<TRIPOS>ATOM
      1 C          -4.0279   -1.8644    1.1651 C.ar    1  LIG1        0.0947
      2 C          -2.8586   -2.0539    0.4165 C.ar    1  LIG1       -0.0283
      3 C          -2.5408   -1.1070   -0.5434 C.ar    1  LIG1       -0.0365
      4 C          -3.3569    0.0197   -0.7387 C.ar    1  LIG1        0.0510
      5 C          -4.4946    0.1427    0.0966 C.ar    1  LIG1        0.0954
      6 N          -4.8071   -0.8009    0.9996 N.ar    1  LIG1       -0.2388
      7 H          -1.6524   -1.2343   -1.1571 H       1  LIG1        0.0637
      8 H          -2.2228   -2.9194    0.5678 H       1  LIG1        0.0644
      9 S          -4.6034   -3.0063    2.4207 S.3     1  LIG1       -0.1234
     10 H          -3.6739   -3.9571    2.2013 H       1  LIG1        0.1086
     11 N          -3.0153    0.9767   -1.6950 N.pl3   1  LIG1       -0.3563
     12 H          -2.4433    0.6219   -2.4503 H       1  LIG1        0.1424
     13 H          -3.7921    1.5261   -2.0395 H       1  LIG1        0.1424
     14 C          -6.8083    1.2555   -0.1217 C.ar    1  LIG1        0.1040
     15 C          -5.3989    1.3267    0.0142 C.ar    1  LIG1        0.0356
     16 C          -4.8438    2.6079    0.0624 C.ar    1  LIG1       -0.0272
     17 C          -5.6273    3.7649   -0.0365 C.ar    1  LIG1        0.0517
     18 C          -7.0202    3.5800   -0.2031 C.ar    1  LIG1        0.0954
     19 N          -7.5536    2.3516   -0.2452 N.ar    1  LIG1       -0.2381
     20 H          -3.7676    2.7100    0.1735 H       1  LIG1        0.0644
     21 S          -7.7574   -0.2578   -0.2239 S.3     1  LIG1       -0.1227
     22 H          -6.8475   -1.0271    0.4100 H       1  LIG1        0.1086
     23 N          -5.0357    5.0250    0.0600 N.pl3   1  LIG1       -0.3563
     24 H          -4.0535    5.0443   -0.1815 H       1  LIG1        0.1424
     25 H          -5.5529    5.7701   -0.3880 H       1  LIG1        0.1424
     26 C          -8.9022    4.8954   -1.3650 C.ar    1  LIG1        0.1033
     27 C          -7.9550    4.7376   -0.3218 C.ar    1  LIG1        0.0355
     28 C          -7.9068    5.7430    0.6520 C.ar    1  LIG1       -0.0278
     29 C          -8.7342    6.8698    0.5725 C.ar    1  LIG1        0.0436
     30 C          -9.5845    6.9397   -0.5415 C.ar    1  LIG1        0.0495
     31 N          -9.6684    5.9837   -1.4630 N.ar    1  LIG1       -0.2465
     32 H          -7.2160    5.6405    1.4846 H       1  LIG1        0.0644
     33 H         -10.2343    7.8039   -0.6803 H       1  LIG1        0.0849
     34 S          -9.1493    3.7341   -2.7062 S.3     1  LIG1       -0.1228
     35 H          -8.7314    2.6493   -2.0201 H       1  LIG1        0.1086
     36 N          -8.7557    7.8419    1.5701 N.pl3   1  LIG1       -0.3568
     37 H          -7.9120    7.9213    2.1207 H       1  LIG1        0.1424
     38 H          -9.1122    8.7442    1.2867 H       1  LIG1        0.1424
@<TRIPOS>BOND
     1    34    35    1
     2    34    26    1
     3    12    11    1
     4    13    11    1
     5    11     4    1
     6    31    26   ar
     7    31    30   ar
     8    26    27   ar
     9     7     3    1
    10     4     3   ar
    11     4     5   ar
    12    33    30    1
    13     3     2   ar
    14    30    29   ar
    15    25    23    1
    16    27    18    1
    17    27    28   ar
    18    19    18   ar
    19    19    14   ar
    20    21    14    1
    21    21    22    1
    22    18    17   ar
    23    24    23    1
    24    14    15   ar
    25    17    23    1
    26    17    16   ar
    27    15    16   ar
    28    15     5    1
    29    16    20    1
    30     5     6   ar
    31     2     8    1
    32     2     1   ar
    33    29    28   ar
    34    29    36    1
    35    28    32    1
    36     6     1   ar
    37     1     9    1
    38    38    36    1
    39    36    37    1
    40    10     9    1
