@<TRIPOS>MOLECULE
mol_data/opt/b3lyp/geoms/mol2/6gh6gh.out
 26 27 0 0 0
SMALL
GASTEIGER

@<TRIPOS>ATOM
      1 C          -4.3630   -1.9946    0.6245 C.ar    1  LIG1        0.0947
      2 C          -3.0133   -2.0361    0.2518 C.ar    1  LIG1       -0.0283
      3 C          -2.4605   -0.8986   -0.3144 C.ar    1  LIG1       -0.0365
      4 C          -3.2300    0.2638   -0.4861 C.ar    1  LIG1        0.0510
      5 C          -4.5753    0.2177   -0.0440 C.ar    1  LIG1        0.0954
      6 N          -5.1041   -0.9016    0.4758 N.ar    1  LIG1       -0.2388
      7 H          -1.4208   -0.9017   -0.6325 H       1  LIG1        0.0637
      8 H          -2.4146   -2.9302    0.3877 H       1  LIG1        0.0644
      9 S          -5.2415   -3.3824    1.3426 S.3     1  LIG1       -0.1234
     10 H          -4.2417   -4.2778    1.2204 H       1  LIG1        0.1086
     11 N          -2.6564    1.4110   -1.0362 N.pl3   1  LIG1       -0.3563
     12 H          -1.8726    1.2294   -1.6495 H       1  LIG1        0.1424
     13 H          -3.3181    2.0541   -1.4514 H       1  LIG1        0.1424
     14 C          -6.7507    1.4119   -0.7318 C.ar    1  LIG1        0.1033
     15 C          -5.4652    1.4134   -0.1331 C.ar    1  LIG1        0.0355
     16 C          -5.0163    2.6245    0.4087 C.ar    1  LIG1       -0.0278
     17 C          -5.7913    3.7876    0.3269 C.ar    1  LIG1        0.0436
     18 C          -7.0188    3.6706   -0.3426 C.ar    1  LIG1        0.0495
     19 N          -7.4787    2.5256   -0.8396 N.ar    1  LIG1       -0.2465
     20 H          -4.0488    2.6565    0.9025 H       1  LIG1        0.0644
     21 H          -7.6597    4.5437   -0.4666 H       1  LIG1        0.0849
     22 S          -7.5354   -0.0134   -1.4794 S.3     1  LIG1       -0.1228
     23 H          -6.8673   -0.9337   -0.7531 H       1  LIG1        0.1086
     24 N          -5.3960    4.9825    0.9249 N.pl3   1  LIG1       -0.3568
     25 H          -4.4000    5.0968    1.0528 H       1  LIG1        0.1424
     26 H          -5.8283    5.8155    0.5496 H       1  LIG1        0.1424
@<TRIPOS>BOND
     1    12    11    1
     2    22    23    1
     3    22    14    1
     4    13    11    1
     5    11     4    1
     6    19    14   ar
     7    19    18   ar
     8    14    15   ar
     9     7     3    1
    10     4     3   ar
    11     4     5   ar
    12    21    18    1
    13    18    17   ar
    14     3     2   ar
    15    15     5    1
    16    15    16   ar
    17     5     6   ar
    18     2     8    1
    19     2     1   ar
    20    17    16   ar
    21    17    24    1
    22    16    20    1
    23     6     1   ar
    24    26    24    1
    25     1     9    1
    26    24    25    1
    27    10     9    1
