@<TRIPOS>MOLECULE
mol_data/opt/b3lyp/geoms/mol2/6gh6gh6gh6gh-.out
 50 53 0 0 0
SMALL
GASTEIGER

@<TRIPOS>ATOM
      1 C          -3.5052   -1.6265    1.4976 C.ar    1  LIG1        0.0947
      2 C          -2.6358   -2.0331    0.4765 C.ar    1  LIG1       -0.0283
      3 C          -2.6852   -1.3526   -0.7290 C.ar    1  LIG1       -0.0365
      4 C          -3.5650   -0.2718   -0.9084 C.ar    1  LIG1        0.0510
      5 C          -4.3729    0.0900    0.1977 C.ar    1  LIG1        0.0954
      6 N          -4.3374   -0.6014    1.3486 N.ar    1  LIG1       -0.2388
      7 H          -2.0402   -1.6563   -1.5498 H       1  LIG1        0.0637
      8 H          -1.9512   -2.8632    0.6122 H       1  LIG1        0.0644
      9 S          -3.5956   -2.4175    3.1027 S.3     1  LIG1       -0.1234
     10 H          -2.7535   -3.4313    2.8212 H       1  LIG1        0.1086
     11 N          -3.5916    0.4177   -2.1211 N.pl3   1  LIG1       -0.3563
     12 H          -3.2767   -0.1259   -2.9141 H       1  LIG1        0.1424
     13 H          -4.4614    0.8961   -2.3167 H       1  LIG1        0.1424
     14 C          -6.6718    1.2149    0.5000 C.ar    1  LIG1        0.1040
     15 C          -5.3008    1.2571    0.1392 C.ar    1  LIG1        0.0356
     16 C          -4.8143    2.4880   -0.3076 C.ar    1  LIG1       -0.0272
     17 C          -5.6317    3.6207   -0.4149 C.ar    1  LIG1        0.0517
     18 C          -6.9912    3.4610   -0.0571 C.ar    1  LIG1        0.0954
     19 N          -7.4587    2.2811    0.3733 N.ar    1  LIG1       -0.2381
     20 H          -3.7677    2.5675   -0.5890 H       1  LIG1        0.0644
     21 S          -7.5397   -0.2366    1.0828 S.3     1  LIG1       -0.1227
     22 H          -6.4406   -0.8692    1.5451 H       1  LIG1        0.1086
     23 N          -5.0928    4.8398   -0.8278 N.pl3   1  LIG1       -0.3563
     24 H          -4.2405    4.7571   -1.3665 H       1  LIG1        0.1424
     25 H          -5.7544    5.4712   -1.2606 H       1  LIG1        0.1424
     26 C          -9.2154    4.5362   -0.7832 C.ar    1  LIG1        0.1040
     27 C          -7.9598    4.5933   -0.1275 C.ar    1  LIG1        0.0356
     28 C          -7.6275    5.8104    0.4728 C.ar    1  LIG1       -0.0272
     29 C          -8.4731    6.9258    0.4141 C.ar    1  LIG1        0.0517
     30 C          -9.6836    6.7723   -0.3021 C.ar    1  LIG1        0.0954
     31 N         -10.0067    5.6029   -0.8709 N.ar    1  LIG1       -0.2381
     32 H          -6.6800    5.8963    0.9980 H       1  LIG1        0.0644
     33 S          -9.8642    3.0970   -1.6269 S.3     1  LIG1       -0.1227
     34 H          -9.1706    2.1993   -0.8946 H       1  LIG1        0.1086
     35 N          -8.1233    8.1082    1.0663 N.pl3   1  LIG1       -0.3563
     36 H          -7.1312    8.2186    1.2293 H       1  LIG1        0.1424
     37 H          -8.5437    8.9444    0.6826 H       1  LIG1        0.1424
     38 C         -11.1861    8.3446   -1.6771 C.ar    1  LIG1        0.1033
     39 C         -10.6583    7.8944   -0.4408 C.ar    1  LIG1        0.0355
     40 C         -11.0886    8.5578    0.7151 C.ar    1  LIG1       -0.0278
     41 C         -11.9718    9.6420    0.6420 C.ar    1  LIG1        0.0436
     42 C         -12.3724   10.0325   -0.6450 C.ar    1  LIG1        0.0495
     43 N         -12.0006    9.3989   -1.7543 N.ar    1  LIG1       -0.2465
     44 H         -10.7306    8.2194    1.6837 H       1  LIG1        0.0644
     45 H         -13.0356   10.8878   -0.7755 H       1  LIG1        0.0849
     46 S         -10.7905    7.6364   -3.2745 S.3     1  LIG1       -0.1228
     47 H         -10.5178    6.4000   -2.8062 H       1  LIG1        0.1086
     48 N         -12.4713   10.2656    1.7828 N.pl3   1  LIG1       -0.3568
     49 H         -11.8982   10.1858    2.6113 H       1  LIG1        0.1424
     50 H         -12.8157   11.2060    1.6462 H       1  LIG1        0.1424
@<TRIPOS>BOND
     1    46    47    1
     2    46    38    1
     3    12    11    1
     4    13    11    1
     5    11     4    1
     6    43    38   ar
     7    43    42   ar
     8    38    39   ar
     9    33    34    1
    10    33    26    1
    11     7     3    1
    12    24    23    1
    13    25    23    1
    14     4     3   ar
    15     4     5   ar
    16    31    26   ar
    17    31    30   ar
    18    23    17    1
    19    26    27   ar
    20    45    42    1
    21     3     2   ar
    22    42    41   ar
    23    20    16    1
    24    39    30    1
    25    39    40   ar
    26    17    16   ar
    27    17    18   ar
    28    16    15   ar
    29    30    29   ar
    30    27    18    1
    31    27    28   ar
    32    18    19   ar
    33    15     5    1
    34    15    14   ar
    35     5     6   ar
    36    19    14   ar
    37    29    28   ar
    38    29    35    1
    39    28    32    1
    40     2     8    1
    41     2     1   ar
    42    14    21    1
    43    41    40   ar
    44    41    48    1
    45    37    35    1
    46    40    44    1
    47    35    36    1
    48    21    22    1
    49     6     1   ar
    50     1     9    1
    51    50    48    1
    52    48    49    1
    53    10     9    1
