@<TRIPOS>MOLECULE
mol_data/opt/b3lyp/geoms/mol2/6gh6gh6gh.out
 38 40 0 0 0
SMALL
GASTEIGER

@<TRIPOS>ATOM
      1 C          -4.0086   -1.8551    1.1689 C.ar    1  LIG1        0.0947
      2 C          -2.8504   -2.0500    0.4045 C.ar    1  LIG1       -0.0283
      3 C          -2.5472   -1.1102   -0.5671 C.ar    1  LIG1       -0.0365
      4 C          -3.3665    0.0148   -0.7587 C.ar    1  LIG1        0.0510
      5 C          -4.4917    0.1439    0.0925 C.ar    1  LIG1        0.0954
      6 N          -4.7905   -0.7930    1.0071 N.ar    1  LIG1       -0.2388
      7 H          -1.6680   -1.2420   -1.1930 H       1  LIG1        0.0637
      8 H          -2.2122   -2.9141    0.5529 H       1  LIG1        0.0644
      9 S          -4.5650   -2.9876    2.4413 S.3     1  LIG1       -0.1234
     10 H          -3.6389   -3.9401    2.2150 H       1  LIG1        0.1086
     11 N          -3.0395    0.9646   -1.7271 N.pl3   1  LIG1       -0.3563
     12 H          -2.4783    0.6045   -2.4879 H       1  LIG1        0.1424
     13 H          -3.8215    1.5110   -2.0644 H       1  LIG1        0.1424
     14 C          -6.8088    1.2547   -0.0993 C.ar    1  LIG1        0.1040
     15 C          -5.3975    1.3271    0.0148 C.ar    1  LIG1        0.0356
     16 C          -4.8421    2.6088    0.0450 C.ar    1  LIG1       -0.0272
     17 C          -5.6273    3.7649   -0.0505 C.ar    1  LIG1        0.0517
     18 C          -7.0224    3.5785   -0.1947 C.ar    1  LIG1        0.0954
     19 N          -7.5562    2.3498   -0.2196 N.ar    1  LIG1       -0.2381
     20 H          -3.7643    2.7119    0.1391 H       1  LIG1        0.0644
     21 S          -7.7591   -0.2594   -0.1760 S.3     1  LIG1       -0.1227
     22 H          -6.8396   -1.0240    0.4496 H       1  LIG1        0.1086
     23 N          -5.0347    5.0258    0.0279 N.pl3   1  LIG1       -0.3563
     24 H          -4.0562    5.0436   -0.2278 H       1  LIG1        0.1424
     25 H          -5.5587    5.7674   -0.4181 H       1  LIG1        0.1424
     26 C          -8.9216    4.8853   -1.3384 C.ar    1  LIG1        0.1033
     27 C          -7.9592    4.7352   -0.3081 C.ar    1  LIG1        0.0355
     28 C          -7.8968    5.7476    0.6576 C.ar    1  LIG1       -0.0278
     29 C          -8.7255    6.8737    0.5821 C.ar    1  LIG1        0.0436
     30 C          -9.5920    6.9355   -0.5198 C.ar    1  LIG1        0.0495
     31 N          -9.6893    5.9729   -1.4330 N.ar    1  LIG1       -0.2465
     32 H          -7.1936    5.6513    1.4806 H       1  LIG1        0.0644
     33 H         -10.2439    7.7987   -0.6554 H       1  LIG1        0.0849
     34 S          -9.1882    3.7140   -2.6673 S.3     1  LIG1       -0.1228
     35 H          -8.7600    2.6344   -1.9793 H       1  LIG1        0.1086
     36 N          -8.7326    7.8530    1.5728 N.pl3   1  LIG1       -0.3568
     37 H          -7.8810    7.9366    2.1104 H       1  LIG1        0.1424
     38 H          -9.0936    8.7532    1.2882 H       1  LIG1        0.1424
@<TRIPOS>BOND
     1    34    35    1
     2    34    26    1
     3    12    11    1
     4    13    11    1
     5    11     4    1
     6    31    26   ar
     7    31    30   ar
     8    26    27   ar
     9     7     3    1
    10     4     3   ar
    11     4     5   ar
    12    33    30    1
    13     3     2   ar
    14    30    29   ar
    15    25    23    1
    16    27    18    1
    17    27    28   ar
    18    24    23    1
    19    19    18   ar
    20    19    14   ar
    21    18    17   ar
    22    21    14    1
    23    21    22    1
    24    14    15   ar
    25    17    23    1
    26    17    16   ar
    27    15    16   ar
    28    15     5    1
    29    16    20    1
    30     5     6   ar
    31     2     8    1
    32     2     1   ar
    33    29    28   ar
    34    29    36    1
    35    28    32    1
    36     6     1   ar
    37     1     9    1
    38    38    36    1
    39    36    37    1
    40    10     9    1
