@<TRIPOS>MOLECULE
mol_data/opt/b3lyp/geoms/mol2/6gh6gh6gh-.out
 38 40 0 0 0
SMALL
GASTEIGER

@<TRIPOS>ATOM
      1 C          -4.0089   -1.8578    1.1602 C.ar    1  LIG1        0.0947
      2 C          -2.8515   -2.0516    0.3944 C.ar    1  LIG1       -0.0283
      3 C          -2.5489   -1.1101   -0.5758 C.ar    1  LIG1       -0.0365
      4 C          -3.3680    0.0156   -0.7643 C.ar    1  LIG1        0.0510
      5 C          -4.4924    0.1433    0.0880 C.ar    1  LIG1        0.0954
      6 N          -4.7907   -0.7953    1.0011 N.ar    1  LIG1       -0.2388
      7 H          -1.6703   -1.2409   -1.2026 H       1  LIG1        0.0637
      8 H          -2.2134   -2.9162    0.5405 H       1  LIG1        0.0644
      9 S          -4.5645   -2.9926    2.4310 S.3     1  LIG1       -0.1234
     10 H          -3.6385   -3.9447    2.2023 H       1  LIG1        0.1086
     11 N          -3.0416    0.9673   -1.7312 N.pl3   1  LIG1       -0.3563
     12 H          -2.4811    0.6084   -2.4932 H       1  LIG1        0.1424
     13 H          -3.8239    1.5144   -2.0669 H       1  LIG1        0.1424
     14 C          -6.8093    1.2553   -0.0994 C.ar    1  LIG1        0.1040
     15 C          -5.3979    1.3270    0.0133 C.ar    1  LIG1        0.0356
     16 C          -4.8420    2.6084    0.0453 C.ar    1  LIG1       -0.0272
     17 C          -5.6268    3.7649   -0.0472 C.ar    1  LIG1        0.0517
     18 C          -7.0222    3.5793   -0.1902 C.ar    1  LIG1        0.0954
     19 N          -7.5564    2.3509   -0.2169 N.ar    1  LIG1       -0.2381
     20 H          -3.7640    2.7108    0.1383 H       1  LIG1        0.0644
     21 S          -7.7603   -0.2583   -0.1781 S.3     1  LIG1       -0.1227
     22 H          -6.8406   -1.0244    0.4452 H       1  LIG1        0.1086
     23 N          -5.0337    5.0255    0.0329 N.pl3   1  LIG1       -0.3563
     24 H          -4.0554    5.0433   -0.2240 H       1  LIG1        0.1424
     25 H          -5.5579    5.7681   -0.4112 H       1  LIG1        0.1424
     26 C          -8.9226    4.8890   -1.3288 C.ar    1  LIG1        0.1033
     27 C          -7.9587    4.7366   -0.3003 C.ar    1  LIG1        0.0355
     28 C          -7.8944    5.7473    0.6671 C.ar    1  LIG1       -0.0278
     29 C          -8.7227    6.8739    0.5948 C.ar    1  LIG1        0.0436
     30 C          -9.5908    6.9380   -0.5056 C.ar    1  LIG1        0.0495
     31 N          -9.6899    5.9770   -1.4204 N.ar    1  LIG1       -0.2465
     32 H          -7.1900    5.6492    1.4888 H       1  LIG1        0.0644
     33 H         -10.2426    7.8017   -0.6386 H       1  LIG1        0.0849
     34 S          -9.1918    3.7203   -2.6594 S.3     1  LIG1       -0.1228
     35 H          -8.7629    2.6392   -1.9742 H       1  LIG1        0.1086
     36 N          -8.7279    7.8514    1.5873 N.pl3   1  LIG1       -0.3568
     37 H          -7.8754    7.9337    2.1237 H       1  LIG1        0.1424
     38 H          -9.0888    8.7523    1.3048 H       1  LIG1        0.1424
@<TRIPOS>BOND
     1    34    35    1
     2    34    26    1
     3    12    11    1
     4    13    11    1
     5    11     4    1
     6    31    26   ar
     7    31    30   ar
     8    26    27   ar
     9     7     3    1
    10     4     3   ar
    11     4     5   ar
    12    33    30    1
    13     3     2   ar
    14    30    29   ar
    15    25    23    1
    16    27    18    1
    17    27    28   ar
    18    24    23    1
    19    19    18   ar
    20    19    14   ar
    21    18    17   ar
    22    21    14    1
    23    21    22    1
    24    14    15   ar
    25    17    23    1
    26    17    16   ar
    27    15    16   ar
    28    15     5    1
    29    16    20    1
    30     5     6   ar
    31     2     8    1
    32     2     1   ar
    33    29    28   ar
    34    29    36    1
    35    28    32    1
    36     6     1   ar
    37     1     9    1
    38    38    36    1
    39    36    37    1
    40    10     9    1
