@<TRIPOS>MOLECULE
mol_data/opt/b3lyp/geoms/mol2/6gh6gh6gh-6gh-.out
 50 53 0 0 0
SMALL
GASTEIGER

@<TRIPOS>ATOM
      1 C          -3.5045   -1.6254    1.4980 C.ar    1  LIG1        0.0947
      2 C          -2.6342   -2.0316    0.4774 C.ar    1  LIG1       -0.0283
      3 C          -2.6831   -1.3508   -0.7280 C.ar    1  LIG1       -0.0365
      4 C          -3.5630   -0.2703   -0.9077 C.ar    1  LIG1        0.0510
      5 C          -4.3718    0.0911    0.1978 C.ar    1  LIG1        0.0954
      6 N          -4.3368   -0.6005    1.3487 N.ar    1  LIG1       -0.2388
      7 H          -2.0374   -1.6542   -1.5484 H       1  LIG1        0.0637
      8 H          -1.9496   -2.8615    0.6134 H       1  LIG1        0.0644
      9 S          -3.5957   -2.4167    3.1029 S.3     1  LIG1       -0.1234
     10 H          -2.7528   -3.4299    2.8220 H       1  LIG1        0.1086
     11 N          -3.5890    0.4195   -2.1203 N.pl3   1  LIG1       -0.3563
     12 H          -3.2734   -0.1238   -2.9132 H       1  LIG1        0.1424
     13 H          -4.4589    0.8977   -2.3165 H       1  LIG1        0.1424
     14 C          -6.6712    1.2151    0.4989 C.ar    1  LIG1        0.1040
     15 C          -5.3000    1.2580    0.1391 C.ar    1  LIG1        0.0356
     16 C          -4.8135    2.4891   -0.3071 C.ar    1  LIG1       -0.0272
     17 C          -5.6312    3.6216   -0.4146 C.ar    1  LIG1        0.0517
     18 C          -6.9909    3.4614   -0.0577 C.ar    1  LIG1        0.0954
     19 N          -7.4584    2.2811    0.3720 N.ar    1  LIG1       -0.2381
     20 H          -3.7668    2.5691   -0.5878 H       1  LIG1        0.0644
     21 S          -7.5391   -0.2367    1.0806 S.3     1  LIG1       -0.1227
     22 H          -6.4403   -0.8694    1.5432 H       1  LIG1        0.1086
     23 N          -5.0925    4.8410   -0.8267 N.pl3   1  LIG1       -0.3563
     24 H          -4.2398    4.7588   -1.3649 H       1  LIG1        0.1424
     25 H          -5.7541    5.4723   -1.2598 H       1  LIG1        0.1424
     26 C          -9.2150    4.5362   -0.7849 C.ar    1  LIG1        0.1040
     27 C          -7.9598    4.5934   -0.1283 C.ar    1  LIG1        0.0356
     28 C          -7.6283    5.8103    0.4729 C.ar    1  LIG1       -0.0272
     29 C          -8.4743    6.9254    0.4141 C.ar    1  LIG1        0.0517
     30 C          -9.6843    6.7719   -0.3030 C.ar    1  LIG1        0.0954
     31 N         -10.0066    5.6026   -0.8726 N.ar    1  LIG1       -0.2381
     32 H          -6.6812    5.8963    0.9987 H       1  LIG1        0.0644
     33 S          -9.8627    3.0972   -1.6298 S.3     1  LIG1       -0.1227
     34 H          -9.1693    2.1993   -0.8974 H       1  LIG1        0.1086
     35 N          -8.1254    8.1076    1.0672 N.pl3   1  LIG1       -0.3563
     36 H          -7.1335    8.2183    1.2310 H       1  LIG1        0.1424
     37 H          -8.5458    8.9439    0.6836 H       1  LIG1        0.1424
     38 C         -11.1859    8.3449   -1.6782 C.ar    1  LIG1        0.1033
     39 C         -10.6592    7.8938   -0.4418 C.ar    1  LIG1        0.0355
     40 C         -11.0907    8.5562    0.7142 C.ar    1  LIG1       -0.0278
     41 C         -11.9741    9.6403    0.6411 C.ar    1  LIG1        0.0436
     42 C         -12.3734   10.0317   -0.6459 C.ar    1  LIG1        0.0495
     43 N         -12.0004    9.3991   -1.7554 N.ar    1  LIG1       -0.2465
     44 H         -10.7335    8.2170    1.6829 H       1  LIG1        0.0644
     45 H         -13.0367   10.8869   -0.7764 H       1  LIG1        0.0849
     46 S         -10.7886    7.6378   -3.2758 S.3     1  LIG1       -0.1228
     47 H         -10.5159    6.4012   -2.8080 H       1  LIG1        0.1086
     48 N         -12.4749   10.2628    1.7820 N.pl3   1  LIG1       -0.3568
     49 H         -11.9025   10.1824    2.6109 H       1  LIG1        0.1424
     50 H         -12.8192   11.2033    1.6457 H       1  LIG1        0.1424
@<TRIPOS>BOND
     1    46    47    1
     2    46    38    1
     3    12    11    1
     4    13    11    1
     5    11     4    1
     6    43    38   ar
     7    43    42   ar
     8    38    39   ar
     9    33    34    1
    10    33    26    1
    11     7     3    1
    12    24    23    1
    13    25    23    1
    14     4     3   ar
    15     4     5   ar
    16    31    26   ar
    17    31    30   ar
    18    23    17    1
    19    26    27   ar
    20    45    42    1
    21     3     2   ar
    22    42    41   ar
    23    20    16    1
    24    39    30    1
    25    39    40   ar
    26    17    16   ar
    27    17    18   ar
    28    16    15   ar
    29    30    29   ar
    30    27    18    1
    31    27    28   ar
    32    18    19   ar
    33    15     5    1
    34    15    14   ar
    35     5     6   ar
    36    19    14   ar
    37    29    28   ar
    38    29    35    1
    39    28    32    1
    40     2     8    1
    41     2     1   ar
    42    14    21    1
    43    41    40   ar
    44    41    48    1
    45    37    35    1
    46    40    44    1
    47    35    36    1
    48    21    22    1
    49     6     1   ar
    50     1     9    1
    51    50    48    1
    52    48    49    1
    53    10     9    1
