@<TRIPOS>MOLECULE
mol_data/opt/b3lyp/geoms/mol2/6gh6gh-6gh-6gh.out
 50 53 0 0 0
SMALL
GASTEIGER

@<TRIPOS>ATOM
      1 C          -3.5168   -1.6308    1.5058 C.ar    1  LIG1        0.0947
      2 C          -2.6371   -2.0323    0.4915 C.ar    1  LIG1       -0.0283
      3 C          -2.6751   -1.3463   -0.7113 C.ar    1  LIG1       -0.0365
      4 C          -3.5538   -0.2653   -0.8945 C.ar    1  LIG1        0.0510
      5 C          -4.3727    0.0911    0.2052 C.ar    1  LIG1        0.0954
      6 N          -4.3481   -0.6055    1.3533 N.ar    1  LIG1       -0.2388
      7 H          -2.0219   -1.6460   -1.5271 H       1  LIG1        0.0637
      8 H          -1.9534   -2.8627    0.6302 H       1  LIG1        0.0644
      9 S          -3.6225   -2.4291    3.1065 S.3     1  LIG1       -0.1234
     10 H          -2.7770   -3.4411    2.8287 H       1  LIG1        0.1086
     11 N          -3.5687    0.4297   -2.1042 N.pl3   1  LIG1       -0.3563
     12 H          -3.2460   -0.1102   -2.8966 H       1  LIG1        0.1424
     13 H          -4.4368    0.9087   -2.3062 H       1  LIG1        0.1424
     14 C          -6.6754    1.2130    0.4895 C.ar    1  LIG1        0.1040
     15 C          -5.3009    1.2578    0.1427 C.ar    1  LIG1        0.0356
     16 C          -4.8107    2.4909   -0.2939 C.ar    1  LIG1       -0.0272
     17 C          -5.6279    3.6236   -0.4045 C.ar    1  LIG1        0.0517
     18 C          -6.9908    3.4614   -0.0611 C.ar    1  LIG1        0.0954
     19 N          -7.4617    2.2792    0.3595 N.ar    1  LIG1       -0.2381
     20 H          -3.7614    2.5724   -0.5645 H       1  LIG1        0.0644
     21 S          -7.5479   -0.2415    1.0575 S.3     1  LIG1       -0.1227
     22 H          -6.4530   -0.8753    1.5281 H       1  LIG1        0.1086
     23 N          -5.0856    4.8447   -0.8068 N.pl3   1  LIG1       -0.3563
     24 H          -4.2282    4.7647   -1.3378 H       1  LIG1        0.1424
     25 H          -5.7434    5.4777   -1.2432 H       1  LIG1        0.1424
     26 C          -9.2087    4.5380   -0.8043 C.ar    1  LIG1        0.1040
     27 C          -7.9595    4.5933   -0.1362 C.ar    1  LIG1        0.0356
     28 C          -7.6340    5.8081    0.4723 C.ar    1  LIG1       -0.0272
     29 C          -8.4799    6.9232    0.4098 C.ar    1  LIG1        0.0517
     30 C          -9.6832    6.7718   -0.3187 C.ar    1  LIG1        0.0954
     31 N          -9.9999    5.6044   -0.8953 N.ar    1  LIG1       -0.2381
     32 H          -6.6917    5.8926    1.0070 H       1  LIG1        0.0644
     33 S          -9.8482    3.1018   -1.6601 S.3     1  LIG1       -0.1227
     34 H          -9.1612    2.2016   -0.9244 H       1  LIG1        0.1086
     35 N          -8.1373    8.1031    1.0703 N.pl3   1  LIG1       -0.3563
     36 H          -7.1468    8.2136    1.2431 H       1  LIG1        0.1424
     37 H          -8.5547    8.9406    0.6861 H       1  LIG1        0.1424
     38 C         -11.1732    8.3489   -1.7019 C.ar    1  LIG1        0.1033
     39 C         -10.6572    7.8939   -0.4624 C.ar    1  LIG1        0.0355
     40 C         -11.0991    8.5522    0.6920 C.ar    1  LIG1       -0.0278
     41 C         -11.9821    9.6364    0.6148 C.ar    1  LIG1        0.0436
     42 C         -12.3703   10.0319   -0.6743 C.ar    1  LIG1        0.0495
     43 N         -11.9874    9.4031   -1.7826 N.ar    1  LIG1       -0.2465
     44 H         -10.7502    8.2100    1.6626 H       1  LIG1        0.0644
     45 H         -13.0327   10.8875   -0.8078 H       1  LIG1        0.0849
     46 S         -10.7618    7.6474   -3.2983 S.3     1  LIG1       -0.1228
     47 H         -10.4932    6.4092   -2.8323 H       1  LIG1        0.1086
     48 N         -12.4929   10.2549    1.7534 N.pl3   1  LIG1       -0.3568
     49 H         -11.9277   10.1719    2.5869 H       1  LIG1        0.1424
     50 H         -12.8362   11.1958    1.6173 H       1  LIG1        0.1424
@<TRIPOS>BOND
     1    46    47    1
     2    46    38    1
     3    12    11    1
     4    13    11    1
     5    11     4    1
     6    43    38   ar
     7    43    42   ar
     8    38    39   ar
     9    33    34    1
    10    33    26    1
    11     7     3    1
    12    24    23    1
    13    25    23    1
    14    31    26   ar
    15    31    30   ar
    16     4     3   ar
    17     4     5   ar
    18    45    42    1
    19    23    17    1
    20    26    27   ar
    21     3     2   ar
    22    42    41   ar
    23    20    16    1
    24    39    30    1
    25    39    40   ar
    26    17    16   ar
    27    17    18   ar
    28    30    29   ar
    29    16    15   ar
    30    27    18    1
    31    27    28   ar
    32    18    19   ar
    33    15     5    1
    34    15    14   ar
    35     5     6   ar
    36    19    14   ar
    37    29    28   ar
    38    29    35    1
    39    28    32    1
    40    14    21    1
    41     2     8    1
    42     2     1   ar
    43    41    40   ar
    44    41    48    1
    45    37    35    1
    46    40    44    1
    47    21    22    1
    48    35    36    1
    49     6     1   ar
    50     1     9    1
    51    50    48    1
    52    48    49    1
    53    10     9    1
