@<TRIPOS>MOLECULE
mol_data/opt/b3lyp/geoms/mol2/6gh6gh-6gh6gh-.out
 50 53 0 0 0
SMALL
GASTEIGER

@<TRIPOS>ATOM
      1 C          -3.5297   -1.6395    1.5044 C.ar    1  LIG1        0.0947
      2 C          -2.6433   -2.0367    0.4942 C.ar    1  LIG1       -0.0283
      3 C          -2.6729   -1.3451   -0.7057 C.ar    1  LIG1       -0.0365
      4 C          -3.5499   -0.2630   -0.8897 C.ar    1  LIG1        0.0510
      5 C          -4.3762    0.0886    0.2060 C.ar    1  LIG1        0.0954
      6 N          -4.3596   -0.6133    1.3510 N.ar    1  LIG1       -0.2388
      7 H          -2.0142   -1.6413   -1.5183 H       1  LIG1        0.0637
      8 H          -1.9608   -2.8679    0.6337 H       1  LIG1        0.0644
      9 S          -3.6465   -2.4452    3.1005 S.3     1  LIG1       -0.1234
     10 H          -2.7994   -3.4562    2.8238 H       1  LIG1        0.1086
     11 N          -3.5565    0.4377   -2.0963 N.pl3   1  LIG1       -0.3563
     12 H          -3.2283   -0.0985   -2.8889 H       1  LIG1        0.1424
     13 H          -4.4232    0.9176   -2.3021 H       1  LIG1        0.1424
     14 C          -6.6803    1.2100    0.4800 C.ar    1  LIG1        0.1040
     15 C          -5.3034    1.2560    0.1429 C.ar    1  LIG1        0.0356
     16 C          -4.8099    2.4912   -0.2842 C.ar    1  LIG1       -0.0272
     17 C          -5.6259    3.6246   -0.3945 C.ar    1  LIG1        0.0517
     18 C          -6.9911    3.4612   -0.0612 C.ar    1  LIG1        0.0954
     19 N          -7.4654    2.2771    0.3502 N.ar    1  LIG1       -0.2381
     20 H          -3.7588    2.5736   -0.5471 H       1  LIG1        0.0644
     21 S          -7.5573   -0.2471    1.0343 S.3     1  LIG1       -0.1227
     22 H          -6.4660   -0.8839    1.5090 H       1  LIG1        0.1086
     23 N          -5.0807    4.8477   -0.7869 N.pl3   1  LIG1       -0.3563
     24 H          -4.2195    4.7702   -1.3120 H       1  LIG1        0.1424
     25 H          -5.7352    5.4829   -1.2248 H       1  LIG1        0.1424
     26 C          -9.2035    4.5427   -0.8140 C.ar    1  LIG1        0.1040
     27 C          -7.9589    4.5939   -0.1370 C.ar    1  LIG1        0.0356
     28 C          -7.6371    5.8053    0.4802 C.ar    1  LIG1       -0.0272
     29 C          -8.4821    6.9210    0.4180 C.ar    1  LIG1        0.0517
     30 C          -9.6805    6.7740   -0.3196 C.ar    1  LIG1        0.0954
     31 N          -9.9936    5.6099   -0.9046 N.ar    1  LIG1       -0.2381
     32 H          -6.6984    5.8865    1.0218 H       1  LIG1        0.0644
     33 S          -9.8376    3.1113   -1.6819 S.3     1  LIG1       -0.1227
     34 H          -9.1559    2.2069   -0.9465 H       1  LIG1        0.1086
     35 N          -8.1437    8.0973    1.0872 N.pl3   1  LIG1       -0.3563
     36 H          -7.1545    8.2064    1.2676 H       1  LIG1        0.1424
     37 H          -8.5579    8.9370    0.7043 H       1  LIG1        0.1424
     38 C         -11.1603    8.3594   -1.7042 C.ar    1  LIG1        0.1033
     39 C         -10.6531    7.8972   -0.4638 C.ar    1  LIG1        0.0355
     40 C         -11.1029    8.5492    0.6912 C.ar    1  LIG1       -0.0278
     41 C         -11.9850    9.6340    0.6139 C.ar    1  LIG1        0.0436
     42 C         -12.3640   10.0370   -0.6757 C.ar    1  LIG1        0.0495
     43 N         -11.9735    9.4143   -1.7848 N.ar    1  LIG1       -0.2465
     44 H         -10.7610    8.2015    1.6623 H       1  LIG1        0.0644
     45 H         -13.0252   10.8935   -0.8090 H       1  LIG1        0.0849
     46 S         -10.7379    7.6666   -3.3016 S.3     1  LIG1       -0.1228
     47 H         -10.4725    6.4258   -2.8406 H       1  LIG1        0.1086
     48 N         -12.5038   10.2465    1.7522 N.pl3   1  LIG1       -0.3568
     49 H         -11.9446   10.1586    2.5893 H       1  LIG1        0.1424
     50 H         -12.8459   11.1881    1.6190 H       1  LIG1        0.1424
@<TRIPOS>BOND
     1    46    47    1
     2    46    38    1
     3    12    11    1
     4    13    11    1
     5    11     4    1
     6    43    38   ar
     7    43    42   ar
     8    38    39   ar
     9    33    34    1
    10    33    26    1
    11     7     3    1
    12    24    23    1
    13    25    23    1
    14    31    26   ar
    15    31    30   ar
    16     4     3   ar
    17     4     5   ar
    18    26    27   ar
    19    45    42    1
    20    23    17    1
    21     3     2   ar
    22    42    41   ar
    23    20    16    1
    24    39    30    1
    25    39    40   ar
    26    17    16   ar
    27    17    18   ar
    28    30    29   ar
    29    16    15   ar
    30    27    18    1
    31    27    28   ar
    32    18    19   ar
    33    15     5    1
    34    15    14   ar
    35     5     6   ar
    36    19    14   ar
    37    29    28   ar
    38    29    35    1
    39    14    21    1
    40    28    32    1
    41     2     8    1
    42     2     1   ar
    43    41    40   ar
    44    41    48    1
    45    40    44    1
    46    37    35    1
    47    21    22    1
    48    35    36    1
    49     6     1   ar
    50     1     9    1
    51    50    48    1
    52    48    49    1
    53    10     9    1
