@<TRIPOS>MOLECULE
mol_data/opt/b3lyp/geoms/mol2/6gh6gh-6gh-.out
 38 40 0 0 0
SMALL
GASTEIGER

@<TRIPOS>ATOM
      1 C          -4.0188   -1.8626    1.1575 C.ar    1  LIG1        0.0947
      2 C          -2.8542   -2.0525    0.4017 C.ar    1  LIG1       -0.0283
      3 C          -2.5428   -1.1063   -0.5611 C.ar    1  LIG1       -0.0365
      4 C          -3.3605    0.0200   -0.7522 C.ar    1  LIG1        0.0510
      5 C          -4.4928    0.1435    0.0903 C.ar    1  LIG1        0.0954
      6 N          -4.7994   -0.7995    0.9961 N.ar    1  LIG1       -0.2388
      7 H          -1.6584   -1.2339   -1.1804 H       1  LIG1        0.0637
      8 H          -2.2172   -2.9176    0.5497 H       1  LIG1        0.0644
      9 S          -4.5859   -3.0035    2.4177 S.3     1  LIG1       -0.1234
     10 H          -3.6581   -3.9547    2.1927 H       1  LIG1        0.1086
     11 N          -3.0254    0.9761   -1.7115 N.pl3   1  LIG1       -0.3563
     12 H          -2.4579    0.6210   -2.4700 H       1  LIG1        0.1424
     13 H          -3.8045    1.5249   -2.0517 H       1  LIG1        0.1424
     14 C          -6.8082    1.2557   -0.1137 C.ar    1  LIG1        0.1040
     15 C          -5.3979    1.3273    0.0128 C.ar    1  LIG1        0.0356
     16 C          -4.8428    2.6087    0.0563 C.ar    1  LIG1       -0.0272
     17 C          -5.6272    3.7654   -0.0381 C.ar    1  LIG1        0.0517
     18 C          -7.0211    3.5800   -0.1954 C.ar    1  LIG1        0.0954
     19 N          -7.5546    2.3515   -0.2331 N.ar    1  LIG1       -0.2381
     20 H          -3.7659    2.7111    0.1603 H       1  LIG1        0.0644
     21 S          -7.7577   -0.2579   -0.2086 S.3     1  LIG1       -0.1227
     22 H          -6.8436   -1.0267    0.4196 H       1  LIG1        0.1086
     23 N          -5.0354    5.0257    0.0537 N.pl3   1  LIG1       -0.3563
     24 H          -4.0548    5.0452   -0.1937 H       1  LIG1        0.1424
     25 H          -5.5556    5.7703   -0.3917 H       1  LIG1        0.1424
     26 C          -8.9105    4.8946   -1.3464 C.ar    1  LIG1        0.1033
     27 C          -7.9570    4.7374   -0.3090 C.ar    1  LIG1        0.0355
     28 C          -7.9030    5.7433    0.6641 C.ar    1  LIG1       -0.0278
     29 C          -8.7311    6.8699    0.5891 C.ar    1  LIG1        0.0436
     30 C          -9.5881    6.9391   -0.5197 C.ar    1  LIG1        0.0495
     31 N          -9.6774    5.9827   -1.4402 N.ar    1  LIG1       -0.2465
     32 H          -7.2069    5.6414    1.4924 H       1  LIG1        0.0644
     33 H         -10.2389    7.8031   -0.6550 H       1  LIG1        0.0849
     34 S          -9.1656    3.7324   -2.6855 S.3     1  LIG1       -0.1228
     35 H          -8.7432    2.6481   -2.0013 H       1  LIG1        0.1086
     36 N          -8.7467    7.8424    1.5863 N.pl3   1  LIG1       -0.3568
     37 H          -7.8998    7.9223    2.1318 H       1  LIG1        0.1424
     38 H          -9.1053    8.7445    1.3048 H       1  LIG1        0.1424
@<TRIPOS>BOND
     1    34    35    1
     2    34    26    1
     3    12    11    1
     4    13    11    1
     5    11     4    1
     6    31    26   ar
     7    31    30   ar
     8    26    27   ar
     9     7     3    1
    10     4     3   ar
    11     4     5   ar
    12    33    30    1
    13     3     2   ar
    14    30    29   ar
    15    25    23    1
    16    27    18    1
    17    27    28   ar
    18    19    18   ar
    19    19    14   ar
    20    21    14    1
    21    21    22    1
    22    18    17   ar
    23    24    23    1
    24    14    15   ar
    25    17    23    1
    26    17    16   ar
    27    15    16   ar
    28    15     5    1
    29    16    20    1
    30     5     6   ar
    31     2     8    1
    32     2     1   ar
    33    29    28   ar
    34    29    36    1
    35    28    32    1
    36     6     1   ar
    37     1     9    1
    38    38    36    1
    39    36    37    1
    40    10     9    1
