@<TRIPOS>MOLECULE
mol_data/opt/b3lyp/geoms/mol2/6gi.out
 15 15 0 0 0
SMALL
GASTEIGER

@<TRIPOS>ATOM
      1 C          -4.5692   -2.0530    0.0320 C.ar    1  LIG1        0.0939
      2 C          -3.1691   -2.0446   -0.0637 C.ar    1  LIG1       -0.0298
      3 C          -2.5230   -0.8152   -0.0758 C.ar    1  LIG1       -0.0549
      4 C          -3.2620    0.3730    0.0063 C.ar    1  LIG1       -0.0323
      5 C          -4.6493    0.2320    0.0978 C.ar    1  LIG1        0.0317
      6 N          -5.2959   -0.9395    0.1112 N.ar    1  LIG1       -0.2487
      7 H          -1.4386   -0.7781   -0.1491 H       1  LIG1        0.0621
      8 H          -2.6042   -2.9686   -0.1268 H       1  LIG1        0.0644
      9 H          -5.2803    1.1175    0.1642 H       1  LIG1        0.0832
     10 S          -5.5441   -3.5537    0.0591 S.3     1  LIG1       -0.1234
     11 H          -4.5107   -4.4143   -0.0346 H       1  LIG1        0.1086
     12 C          -2.6034    1.7290   -0.0037 C.3     1  LIG1       -0.0383
     13 H          -3.3455    2.5286    0.0686 H       1  LIG1        0.0278
     14 H          -2.0292    1.8891   -0.9233 H       1  LIG1        0.0278
     15 H          -1.9080    1.8432    0.8356 H       1  LIG1        0.0278
@<TRIPOS>BOND
     1    14    12    1
     2     7     3    1
     3     8     2    1
     4     3     2   ar
     5     3     4   ar
     6     2     1   ar
     7    11    10    1
     8    12     4    1
     9    12    13    1
    10    12    15    1
    11     4     5   ar
    12     1    10    1
    13     1     6   ar
    14     5     6   ar
    15     5     9    1
