@<TRIPOS>MOLECULE
mol_data/opt/b3lyp/geoms/mol2/6gi6gi6gi-6gi-.out
 54 57 0 0 0
SMALL
GASTEIGER

@<TRIPOS>ATOM
      1 C          -3.6242   -1.5886   -1.7831 C.ar    1  LIG1        0.0946
      2 C          -2.7344   -2.0651   -0.8117 C.ar    1  LIG1       -0.0297
      3 C          -2.7389   -1.4326    0.4226 C.ar    1  LIG1       -0.0543
      4 C          -3.5746   -0.3363    0.6808 C.ar    1  LIG1       -0.0243
      5 C          -4.3988    0.0877   -0.3828 C.ar    1  LIG1        0.0777
      6 N          -4.4266   -0.5494   -1.5690 N.ar    1  LIG1       -0.2404
      7 H          -2.0883   -1.7993    1.2125 H       1  LIG1        0.0622
      8 H          -2.0811   -2.9088   -1.0050 H       1  LIG1        0.0644
      9 S          -3.7934   -2.3068   -3.4107 S.3     1  LIG1       -0.1234
     10 H          -2.9323   -3.3260   -3.2198 H       1  LIG1        0.1086
     11 C          -3.5777    0.2897    2.0561 C.3     1  LIG1       -0.0377
     12 H          -4.5552    0.7019    2.3146 H       1  LIG1        0.0278
     13 H          -2.8478    1.1037    2.1395 H       1  LIG1        0.0278
     14 H          -3.3126   -0.4563    2.8108 H       1  LIG1        0.0278
     15 C          -6.6811    1.2758   -0.5510 C.ar    1  LIG1        0.1038
     16 C          -5.2924    1.2793   -0.2705 C.ar    1  LIG1        0.0325
     17 C          -4.7603    2.4997    0.1493 C.ar    1  LIG1       -0.0451
     18 C          -5.5326    3.6546    0.3078 C.ar    1  LIG1       -0.0237
     19 C          -6.9077    3.5230    0.0284 C.ar    1  LIG1        0.0777
     20 N          -7.4398    2.3573   -0.3751 N.ar    1  LIG1       -0.2397
     21 H          -3.6971    2.5541    0.3661 H       1  LIG1        0.0628
     22 S          -7.6199   -0.1400   -1.0968 S.3     1  LIG1       -0.1227
     23 H          -6.5609   -0.8381   -1.5561 H       1  LIG1        0.1086
     24 C          -4.8795    4.9253    0.7996 C.3     1  LIG1       -0.0377
     25 H          -5.5591    5.5214    1.4124 H       1  LIG1        0.0278
     26 H          -4.5428    5.5622   -0.0270 H       1  LIG1        0.0278
     27 H          -3.9969    4.6890    1.4010 H       1  LIG1        0.0278
     28 C          -9.0599    4.6496    0.8900 C.ar    1  LIG1        0.1038
     29 C          -7.8592    4.6686    0.1387 C.ar    1  LIG1        0.0325
     30 C          -7.5742    5.8659   -0.5208 C.ar    1  LIG1       -0.0451
     31 C          -8.3955    6.9941   -0.4385 C.ar    1  LIG1       -0.0237
     32 C          -9.5421    6.8701    0.3714 C.ar    1  LIG1        0.0777
     33 N          -9.8366    5.7258    1.0103 N.ar    1  LIG1       -0.2397
     34 H          -6.6725    5.9243   -1.1240 H       1  LIG1        0.0628
     35 S          -9.6668    3.2519    1.8202 S.3     1  LIG1       -0.1227
     36 H          -8.9698    2.3229    1.1332 H       1  LIG1        0.1086
     37 C          -8.0011    8.2601   -1.1622 C.3     1  LIG1       -0.0377
     38 H          -8.2892    9.1532   -0.6032 H       1  LIG1        0.0278
     39 H          -8.4687    8.3312   -2.1512 H       1  LIG1        0.0278
     40 H          -6.9185    8.2877   -1.3167 H       1  LIG1        0.0278
     41 C         -10.9141    8.5123    1.8074 C.ar    1  LIG1        0.1031
     42 C         -10.5148    7.9903    0.5500 C.ar    1  LIG1        0.0325
     43 C         -11.0865    8.5817   -0.5804 C.ar    1  LIG1       -0.0457
     44 C         -11.9678    9.6619   -0.4799 C.ar    1  LIG1       -0.0317
     45 C         -12.2225   10.1230    0.8128 C.ar    1  LIG1        0.0318
     46 N         -11.7251    9.5657    1.9193 N.ar    1  LIG1       -0.2481
     47 H         -10.8398    8.1836   -1.5614 H       1  LIG1        0.0628
     48 H         -12.8735   10.9829    0.9677 H       1  LIG1        0.0832
     49 S         -10.3542    7.8985    3.3901 S.3     1  LIG1       -0.1228
     50 H         -10.0375    6.6618    2.9534 H       1  LIG1        0.1086
     51 C         -12.6089   10.2893   -1.6914 C.3     1  LIG1       -0.0383
     52 H         -13.1333   11.2116   -1.4264 H       1  LIG1        0.0278
     53 H         -13.3400    9.6143   -2.1517 H       1  LIG1        0.0278
     54 H         -11.8666   10.5340   -2.4590 H       1  LIG1        0.0278
@<TRIPOS>BOND
     1     9    10    1
     2     9     1    1
     3    54    51    1
     4    53    51    1
     5    39    37    1
     6     1     6   ar
     7     1     2   ar
     8    51    52    1
     9    51    44    1
    10     6     5   ar
    11    47    43    1
    12    23    22    1
    13    40    37    1
    14    37    38    1
    15    37    31    1
    16    34    30    1
    17    22    15    1
    18     8     2    1
    19     2     3   ar
    20    43    44   ar
    21    43    42   ar
    22    15    20   ar
    23    15    16   ar
    24    30    31   ar
    25    30    29   ar
    26    44    45   ar
    27    31    32   ar
    28     5    16    1
    29     5     4   ar
    30    20    19   ar
    31    16    17   ar
    32    26    24    1
    33    19    29    1
    34    19    18   ar
    35    29    28   ar
    36    17    18   ar
    37    17    21    1
    38    18    24    1
    39    32    42    1
    40    32    33   ar
    41     3     4   ar
    42     3     7    1
    43    42    41   ar
    44     4    11    1
    45    24    27    1
    46    24    25    1
    47    45    48    1
    48    45    46   ar
    49    28    33   ar
    50    28    35    1
    51    36    35    1
    52    41    46   ar
    53    41    49    1
    54    11    13    1
    55    11    12    1
    56    11    14    1
    57    50    49    1
