@<TRIPOS>MOLECULE
mol_data/opt/b3lyp/geoms/mol2/6gi6gi6gi-.out
 41 43 0 0 0
SMALL
GASTEIGER

@<TRIPOS>ATOM
      1 C          -4.1058   -1.8229   -1.3710 C.ar    1  LIG1        0.0946
      2 C          -2.9229   -2.0721   -0.6633 C.ar    1  LIG1       -0.0297
      3 C          -2.5698   -1.1673    0.3269 C.ar    1  LIG1       -0.0543
      4 C          -3.3453   -0.0288    0.5887 C.ar    1  LIG1       -0.0243
      5 C          -4.4933    0.1465   -0.2127 C.ar    1  LIG1        0.0777
      6 N          -4.8606   -0.7506   -1.1476 N.ar    1  LIG1       -0.2404
      7 H          -1.6778   -1.3482    0.9215 H       1  LIG1        0.0622
      8 H          -2.3149   -2.9474   -0.8635 H       1  LIG1        0.0644
      9 S          -4.7431   -2.8998   -2.6475 S.3     1  LIG1       -0.1234
     10 H          -3.8109   -3.8643   -2.5158 H       1  LIG1        0.1086
     11 C          -2.9452    0.9034    1.7087 C.3     1  LIG1       -0.0377
     12 H          -3.8112    1.3821    2.1702 H       1  LIG1        0.0278
     13 H          -2.2782    1.7015    1.3614 H       1  LIG1        0.0278
     14 H          -2.4072    0.3517    2.4850 H       1  LIG1        0.0278
     15 C          -6.7772    1.2940    0.1243 C.ar    1  LIG1        0.1038
     16 C          -5.3771    1.3436   -0.0840 C.ar    1  LIG1        0.0325
     17 C          -4.8179    2.6208   -0.1559 C.ar    1  LIG1       -0.0451
     18 C          -5.5707    3.7902   -0.0143 C.ar    1  LIG1       -0.0237
     19 C          -6.9490    3.6164    0.2235 C.ar    1  LIG1        0.0777
     20 N          -7.5064    2.3963    0.2950 N.ar    1  LIG1       -0.2397
     21 H          -3.7484    2.7093   -0.3260 H       1  LIG1        0.0628
     22 S          -7.7461   -0.1992    0.2590 S.3     1  LIG1       -0.1227
     23 H          -6.8539   -0.9981   -0.3615 H       1  LIG1        0.1086
     24 C          -4.8838    5.1344   -0.0754 C.3     1  LIG1       -0.0377
     25 H          -5.3525    5.8592    0.5938 H       1  LIG1        0.0278
     26 H          -4.9058    5.5626   -1.0844 H       1  LIG1        0.0278
     27 H          -3.8320    5.0366    0.2088 H       1  LIG1        0.0278
     28 C          -8.7355    4.9634    1.5022 C.ar    1  LIG1        0.1031
     29 C          -7.8800    4.7737    0.3864 C.ar    1  LIG1        0.0325
     30 C          -7.9341    5.7491   -0.6138 C.ar    1  LIG1       -0.0457
     31 C          -8.7525    6.8763   -0.4993 C.ar    1  LIG1       -0.0317
     32 C          -9.4924    6.9753    0.6804 C.ar    1  LIG1        0.0318
     33 N          -9.4954    6.0509    1.6435 N.ar    1  LIG1       -0.2481
     34 H          -7.3251    5.6194   -1.5048 H       1  LIG1        0.0628
     35 H         -10.1280    7.8428    0.8553 H       1  LIG1        0.0832
     36 S          -8.8725    3.8402    2.8855 S.3     1  LIG1       -0.1228
     37 H          -8.4296    2.7512    2.2238 H       1  LIG1        0.1086
     38 C          -8.8371    7.9199   -1.5837 C.3     1  LIG1       -0.0383
     39 H          -9.3838    8.8021   -1.2394 H       1  LIG1        0.0278
     40 H          -9.3560    7.5349   -2.4696 H       1  LIG1        0.0278
     41 H          -7.8429    8.2462   -1.9075 H       1  LIG1        0.0278
@<TRIPOS>BOND
     1     9    10    1
     2     9     1    1
     3    40    38    1
     4    41    38    1
     5    38    39    1
     6    38    31    1
     7    34    30    1
     8     1     6   ar
     9     1     2   ar
    10     6     5   ar
    11    26    24    1
    12     8     2    1
    13     2     3   ar
    14    30    31   ar
    15    30    29   ar
    16    31    32   ar
    17    23    22    1
    18    21    17    1
    19     5    16    1
    20     5     4   ar
    21    17    16   ar
    22    17    18   ar
    23    16    15   ar
    24    24    18    1
    25    24    27    1
    26    24    25    1
    27    18    19   ar
    28    15    22    1
    29    15    20   ar
    30    19    20   ar
    31    19    29    1
    32     3     4   ar
    33     3     7    1
    34    29    28   ar
    35     4    11    1
    36    32    35    1
    37    32    33   ar
    38    13    11    1
    39    28    33   ar
    40    28    36    1
    41    11    12    1
    42    11    14    1
    43    37    36    1
