@<TRIPOS>MOLECULE
mol_data/opt/b3lyp/geoms/mol2/6gi6gi-6gi-.out
 41 43 0 0 0
SMALL
GASTEIGER

@<TRIPOS>ATOM
      1 C          -4.1042   -1.8215   -1.3725 C.ar    1  LIG1        0.0946
      2 C          -2.9283   -2.0764   -0.6552 C.ar    1  LIG1       -0.0297
      3 C          -2.5819   -1.1765    0.3418 C.ar    1  LIG1       -0.0543
      4 C          -3.3571   -0.0372    0.6014 C.ar    1  LIG1       -0.0243
      5 C          -4.4975    0.1440   -0.2096 C.ar    1  LIG1        0.0777
      6 N          -4.8585   -0.7483   -1.1514 N.ar    1  LIG1       -0.2404
      7 H          -1.6957   -1.3619    0.9436 H       1  LIG1        0.0622
      8 H          -2.3206   -2.9523   -0.8536 H       1  LIG1        0.0644
      9 S          -4.7325   -2.8916   -2.6591 S.3     1  LIG1       -0.1234
     10 H          -3.8040   -3.8590   -2.5228 H       1  LIG1        0.1086
     11 C          -2.9649    0.8896    1.7285 C.3     1  LIG1       -0.0377
     12 H          -3.8339    1.3682    2.1845 H       1  LIG1        0.0278
     13 H          -2.2932    1.6875    1.3904 H       1  LIG1        0.0278
     14 H          -2.4348    0.3336    2.5073 H       1  LIG1        0.0278
     15 C          -6.7816    1.2955    0.1122 C.ar    1  LIG1        0.1038
     16 C          -5.3796    1.3427   -0.0838 C.ar    1  LIG1        0.0325
     17 C          -4.8170    2.6189   -0.1459 C.ar    1  LIG1       -0.0451
     18 C          -5.5684    3.7894   -0.0063 C.ar    1  LIG1       -0.0237
     19 C          -6.9491    3.6179    0.2187 C.ar    1  LIG1        0.0777
     20 N          -7.5098    2.3988    0.2806 N.ar    1  LIG1       -0.2397
     21 H          -3.7458    2.7056   -0.3062 H       1  LIG1        0.0628
     22 S          -7.7548   -0.1961    0.2329 S.3     1  LIG1       -0.1227
     23 H          -6.8593   -0.9945   -0.3833 H       1  LIG1        0.1086
     24 C          -4.8777    5.1322   -0.0561 C.3     1  LIG1       -0.0377
     25 H          -5.3514    5.8559    0.6107 H       1  LIG1        0.0278
     26 H          -4.8882    5.5636   -1.0639 H       1  LIG1        0.0278
     27 H          -3.8290    5.0309    0.2387 H       1  LIG1        0.0278
     28 C          -8.7448    4.9637    1.4858 C.ar    1  LIG1        0.1031
     29 C          -7.8790    4.7766    0.3775 C.ar    1  LIG1        0.0325
     30 C          -7.9213    5.7563   -0.6191 C.ar    1  LIG1       -0.0457
     31 C          -8.7381    6.8850   -0.5078 C.ar    1  LIG1       -0.0317
     32 C          -9.4891    6.9808    0.6651 C.ar    1  LIG1        0.0318
     33 N          -9.5035    6.0525    1.6243 N.ar    1  LIG1       -0.2481
     34 H          -7.3041    5.6290   -1.5048 H       1  LIG1        0.0628
     35 H         -10.1244    7.8491    0.8375 H       1  LIG1        0.0832
     36 S          -8.8977    3.8353    2.8632 S.3     1  LIG1       -0.1228
     37 H          -8.4507    2.7480    2.2014 H       1  LIG1        0.1086
     38 C          -8.8100    7.9331   -1.5887 C.3     1  LIG1       -0.0383
     39 H          -9.3575    8.8155   -1.2459 H       1  LIG1        0.0278
     40 H          -9.3217    7.5532   -2.4808 H       1  LIG1        0.0278
     41 H          -7.8120    8.2581   -1.9020 H       1  LIG1        0.0278
@<TRIPOS>BOND
     1     9    10    1
     2     9     1    1
     3    40    38    1
     4    41    38    1
     5    38    39    1
     6    38    31    1
     7    34    30    1
     8     1     6   ar
     9     1     2   ar
    10     6     5   ar
    11    26    24    1
    12     8     2    1
    13     2     3   ar
    14    30    31   ar
    15    30    29   ar
    16    31    32   ar
    17    23    22    1
    18    21    17    1
    19     5    16    1
    20     5     4   ar
    21    17    16   ar
    22    17    18   ar
    23    16    15   ar
    24    24    18    1
    25    24    27    1
    26    24    25    1
    27    18    19   ar
    28    15    22    1
    29    15    20   ar
    30    19    20   ar
    31    19    29    1
    32     3     4   ar
    33     3     7    1
    34    29    28   ar
    35     4    11    1
    36    32    35    1
    37    32    33   ar
    38    13    11    1
    39    28    33   ar
    40    28    36    1
    41    11    12    1
    42    11    14    1
    43    37    36    1
