@<TRIPOS>MOLECULE
mol_data/opt/b3lyp/geoms/mol2/6gi6gi.out
 28 29 0 0 0
SMALL
GASTEIGER

@<TRIPOS>ATOM
      1 C          -4.4324   -1.9915   -0.7039 C.ar    1  LIG1        0.0946
      2 C          -3.0671   -2.0641   -0.4009 C.ar    1  LIG1       -0.0297
      3 C          -2.4786   -0.9408    0.1619 C.ar    1  LIG1       -0.0543
      4 C          -3.2116    0.2321    0.3894 C.ar    1  LIG1       -0.0243
      5 C          -4.5706    0.2084    0.0099 C.ar    1  LIG1        0.0777
      6 N          -5.1535   -0.8919   -0.5021 N.ar    1  LIG1       -0.2404
      7 H          -1.4287   -0.9723    0.4424 H       1  LIG1        0.0622
      8 H          -2.4928   -2.9667   -0.5786 H       1  LIG1        0.0644
      9 S          -5.3689   -3.3502   -1.3924 S.3     1  LIG1       -0.1234
     10 H          -4.3687   -4.2537   -1.3734 H       1  LIG1        0.1086
     11 C          -2.5423    1.4174    1.0455 C.3     1  LIG1       -0.0377
     12 H          -3.2361    1.9760    1.6773 H       1  LIG1        0.0278
     13 H          -2.1356    2.1209    0.3094 H       1  LIG1        0.0278
     14 H          -1.7066    1.0835    1.6673 H       1  LIG1        0.0278
     15 C          -6.6842    1.4304    0.8402 C.ar    1  LIG1        0.1031
     16 C          -5.4492    1.4100    0.1419 C.ar    1  LIG1        0.0325
     17 C          -5.0516    2.6087   -0.4578 C.ar    1  LIG1       -0.0457
     18 C          -5.8070    3.7785   -0.3379 C.ar    1  LIG1       -0.0317
     19 C          -6.9673    3.6780    0.4319 C.ar    1  LIG1        0.0318
     20 N          -7.3994    2.5467    0.9933 N.ar    1  LIG1       -0.2481
     21 H          -4.1308    2.6239   -1.0355 H       1  LIG1        0.0628
     22 H          -7.5909    4.5561    0.5971 H       1  LIG1        0.0832
     23 S          -7.4214    0.0240    1.6593 S.3     1  LIG1       -0.1228
     24 H          -6.7681   -0.9147    0.9442 H       1  LIG1        0.1086
     25 C          -5.3987    5.0691   -1.0008 C.3     1  LIG1       -0.0383
     26 H          -6.0264    5.8995   -0.6659 H       1  LIG1        0.0278
     27 H          -5.4898    5.0052   -2.0915 H       1  LIG1        0.0278
     28 H          -4.3571    5.3249   -0.7777 H       1  LIG1        0.0278
@<TRIPOS>BOND
     1    27    25    1
     2     9    10    1
     3     9     1    1
     4    21    17    1
     5    25    28    1
     6    25    26    1
     7    25    18    1
     8     1     6   ar
     9     1     2   ar
    10     8     2    1
    11     6     5   ar
    12    17    18   ar
    13    17    16   ar
    14     2     3   ar
    15    18    19   ar
    16     5    16    1
    17     5     4   ar
    18    16    15   ar
    19     3     4   ar
    20     3     7    1
    21    13    11    1
    22     4    11    1
    23    19    22    1
    24    19    20   ar
    25    15    20   ar
    26    15    23    1
    27    24    23    1
    28    11    14    1
    29    11    12    1
