@<TRIPOS>MOLECULE
mol_data/opt/b3lyp/geoms/mol2/6gi6gi6gi6gi.out
 54 57 0 0 0
SMALL
GASTEIGER

@<TRIPOS>ATOM
      1 C          -3.6236   -1.5901   -1.7792 C.ar    1  LIG1        0.0946
      2 C          -2.7357   -2.0670   -0.8063 C.ar    1  LIG1       -0.0297
      3 C          -2.7419   -1.4344    0.4279 C.ar    1  LIG1       -0.0543
      4 C          -3.5774   -0.3378    0.6847 C.ar    1  LIG1       -0.0243
      5 C          -4.3997    0.0866   -0.3802 C.ar    1  LIG1        0.0777
      6 N          -4.4259   -0.5505   -1.5665 N.ar    1  LIG1       -0.2404
      7 H          -2.0927   -1.8014    1.2190 H       1  LIG1        0.0622
      8 H          -2.0824   -2.9110   -0.9984 H       1  LIG1        0.0644
      9 S          -3.7904   -2.3083   -3.4070 S.3     1  LIG1       -0.1234
     10 H          -2.9300   -3.3278   -3.2148 H       1  LIG1        0.1086
     11 C          -3.5825    0.2883    2.0600 C.3     1  LIG1       -0.0377
     12 H          -4.5600    0.7014    2.3167 H       1  LIG1        0.0278
     13 H          -2.8520    1.1016    2.1447 H       1  LIG1        0.0278
     14 H          -3.3195   -0.4579    2.8152 H       1  LIG1        0.0278
     15 C          -6.6812    1.2757   -0.5526 C.ar    1  LIG1        0.1038
     16 C          -5.2930    1.2786   -0.2696 C.ar    1  LIG1        0.0325
     17 C          -4.7611    2.4988    0.1512 C.ar    1  LIG1       -0.0451
     18 C          -5.5332    3.6540    0.3083 C.ar    1  LIG1       -0.0237
     19 C          -6.9078    3.5231    0.0264 C.ar    1  LIG1        0.0777
     20 N          -7.4397    2.3575   -0.3780 N.ar    1  LIG1       -0.2397
     21 H          -3.6983    2.5528    0.3699 H       1  LIG1        0.0628
     22 S          -7.6196   -0.1397   -1.1001 S.3     1  LIG1       -0.1227
     23 H          -6.5601   -0.8382   -1.5575 H       1  LIG1        0.1086
     24 C          -4.8804    4.9245    0.8012 C.3     1  LIG1       -0.0377
     25 H          -5.5608    5.5208    1.4129 H       1  LIG1        0.0278
     26 H          -4.5421    5.5613   -0.0248 H       1  LIG1        0.0278
     27 H          -3.9989    4.6878    1.4041 H       1  LIG1        0.0278
     28 C          -9.0610    4.6505    0.8845 C.ar    1  LIG1        0.1038
     29 C          -7.8591    4.6690    0.1351 C.ar    1  LIG1        0.0325
     30 C          -7.5727    5.8661   -0.5241 C.ar    1  LIG1       -0.0451
     31 C          -8.3937    6.9946   -0.4431 C.ar    1  LIG1       -0.0237
     32 C          -9.5416    6.8711    0.3650 C.ar    1  LIG1        0.0777
     33 N          -9.8375    5.7269    1.0035 N.ar    1  LIG1       -0.2397
     34 H          -6.6700    5.9242   -1.1259 H       1  LIG1        0.0628
     35 S          -9.6698    3.2530    1.8138 S.3     1  LIG1       -0.1227
     36 H          -8.9718    2.3237    1.1284 H       1  LIG1        0.1086
     37 C          -7.9978    8.2604   -1.1665 C.3     1  LIG1       -0.0377
     38 H          -8.2868    9.1537   -0.6083 H       1  LIG1        0.0278
     39 H          -8.4635    8.3312   -2.1564 H       1  LIG1        0.0278
     40 H          -6.9149    8.2878   -1.3188 H       1  LIG1        0.0278
     41 C         -10.9153    8.5138    1.7987 C.ar    1  LIG1        0.1031
     42 C         -10.5142    7.9916    0.5420 C.ar    1  LIG1        0.0325
     43 C         -11.0841    8.5831   -0.5894 C.ar    1  LIG1       -0.0457
     44 C         -11.9653    9.6635   -0.4903 C.ar    1  LIG1       -0.0317
     45 C         -12.2218   10.1248    0.8020 C.ar    1  LIG1        0.0318
     46 N         -11.7262    9.5674    1.9093 N.ar    1  LIG1       -0.2481
     47 H         -10.8360    8.1848   -1.5699 H       1  LIG1        0.0628
     48 H         -12.8728   10.9849    0.9558 H       1  LIG1        0.0832
     49 S         -10.3579    7.9001    3.3823 S.3     1  LIG1       -0.1228
     50 H         -10.0409    6.6632    2.9462 H       1  LIG1        0.1086
     51 C         -12.6043   10.2910   -1.7028 C.3     1  LIG1       -0.0383
     52 H         -13.1291   11.2133   -1.4387 H       1  LIG1        0.0278
     53 H         -13.3347    9.6160   -2.1643 H       1  LIG1        0.0278
     54 H         -11.8608   10.5356   -2.4692 H       1  LIG1        0.0278
@<TRIPOS>BOND
     1     9    10    1
     2     9     1    1
     3    54    51    1
     4    53    51    1
     5    39    37    1
     6     1     6   ar
     7     1     2   ar
     8    51    52    1
     9    51    44    1
    10    47    43    1
    11     6     5   ar
    12    23    22    1
    13    40    37    1
    14    37    38    1
    15    37    31    1
    16    34    30    1
    17    22    15    1
    18     8     2    1
    19     2     3   ar
    20    43    44   ar
    21    43    42   ar
    22    15    20   ar
    23    15    16   ar
    24    30    31   ar
    25    30    29   ar
    26    44    45   ar
    27    31    32   ar
    28     5    16    1
    29     5     4   ar
    30    20    19   ar
    31    16    17   ar
    32    26    24    1
    33    19    29    1
    34    19    18   ar
    35    29    28   ar
    36    17    18   ar
    37    17    21    1
    38    18    24    1
    39    32    42    1
    40    32    33   ar
    41     3     4   ar
    42     3     7    1
    43    42    41   ar
    44     4    11    1
    45    24    27    1
    46    24    25    1
    47    45    48    1
    48    45    46   ar
    49    28    33   ar
    50    28    35    1
    51    36    35    1
    52    41    46   ar
    53    41    49    1
    54    11    13    1
    55    11    12    1
    56    11    14    1
    57    50    49    1
