@<TRIPOS>MOLECULE
mol_data/opt/b3lyp/geoms/mol2/6gi6gi-6gi6gi-.out
 54 57 0 0 0
SMALL
GASTEIGER

@<TRIPOS>ATOM
      1 C          -3.6053   -1.5779   -1.7828 C.ar    1  LIG1        0.0946
      2 C          -2.7252   -2.0598   -0.8052 C.ar    1  LIG1       -0.0297
      3 C          -2.7420   -1.4341    0.4325 C.ar    1  LIG1       -0.0543
      4 C          -3.5804   -0.3394    0.6884 C.ar    1  LIG1       -0.0243
      5 C          -4.3940    0.0905   -0.3809 C.ar    1  LIG1        0.0777
      6 N          -4.4100   -0.5400   -1.5708 N.ar    1  LIG1       -0.2404
      7 H          -2.0992   -1.8051    1.2268 H       1  LIG1        0.0622
      8 H          -2.0699   -2.9023   -0.9967 H       1  LIG1        0.0644
      9 S          -3.7582   -2.2870   -3.4159 S.3     1  LIG1       -0.1234
     10 H          -2.8986   -3.3070   -3.2224 H       1  LIG1        0.1086
     11 C          -3.5972    0.2789    2.0671 C.3     1  LIG1       -0.0377
     12 H          -4.5771    0.6902    2.3180 H       1  LIG1        0.0278
     13 H          -2.8678    1.0921    2.1625 H       1  LIG1        0.0278
     14 H          -3.3401   -0.4714    2.8203 H       1  LIG1        0.0278
     15 C          -6.6748    1.2793   -0.5654 C.ar    1  LIG1        0.1038
     16 C          -5.2889    1.2813   -0.2709 C.ar    1  LIG1        0.0325
     17 C          -4.7613    2.4995    0.1610 C.ar    1  LIG1       -0.0451
     18 C          -5.5353    3.6533    0.3182 C.ar    1  LIG1       -0.0237
     19 C          -6.9075    3.5232    0.0244 C.ar    1  LIG1        0.0777
     20 N          -7.4353    2.3596   -0.3910 N.ar    1  LIG1       -0.2397
     21 H          -3.7003    2.5528    0.3887 H       1  LIG1        0.0628
     22 S          -7.6077   -0.1336   -1.1285 S.3     1  LIG1       -0.1227
     23 H          -6.5441   -0.8290   -1.5809 H       1  LIG1        0.1086
     24 C          -4.8875    4.9214    0.8235 C.3     1  LIG1       -0.0377
     25 H          -5.5731    5.5137    1.4333 H       1  LIG1        0.0278
     26 H          -4.5432    5.5632    0.0040 H       1  LIG1        0.0278
     27 H          -4.0105    4.6820    1.4320 H       1  LIG1        0.0278
     28 C          -9.0681    4.6445    0.8715 C.ar    1  LIG1        0.1038
     29 C          -7.8604    4.6679    0.1317 C.ar    1  LIG1        0.0325
     30 C          -7.5695    5.8688   -0.5186 C.ar    1  LIG1       -0.0451
     31 C          -8.3919    6.9963   -0.4379 C.ar    1  LIG1       -0.0237
     32 C          -9.5460    6.8677    0.3604 C.ar    1  LIG1        0.0777
     33 N          -9.8462    5.7198    0.9904 N.ar    1  LIG1       -0.2397
     34 H          -6.6621    5.9307   -1.1129 H       1  LIG1        0.0628
     35 S          -9.6833    3.2416    1.7883 S.3     1  LIG1       -0.1227
     36 H          -8.9791    2.3165    1.1034 H       1  LIG1        0.1086
     37 C          -7.9911    8.2663   -1.1511 C.3     1  LIG1       -0.0377
     38 H          -8.2853    9.1563   -0.5905 H       1  LIG1        0.0278
     39 H          -8.4488    8.3422   -2.1445 H       1  LIG1        0.0278
     40 H          -6.9070    8.2953   -1.2945 H       1  LIG1        0.0278
     41 C         -10.9324    8.5015    1.7923 C.ar    1  LIG1        0.1031
     42 C         -10.5208    7.9867    0.5359 C.ar    1  LIG1        0.0325
     43 C         -11.0818    8.5842   -0.5967 C.ar    1  LIG1       -0.0457
     44 C         -11.9644    9.6636   -0.4988 C.ar    1  LIG1       -0.0317
     45 C         -12.2317   10.1174    0.7940 C.ar    1  LIG1        0.0318
     46 N         -11.7449    9.5540    1.9022 N.ar    1  LIG1       -0.2481
     47 H         -10.8254    8.1916   -1.5774 H       1  LIG1        0.0628
     48 H         -12.8844   10.9762    0.9473 H       1  LIG1        0.0832
     49 S         -10.3877    7.8791    3.3769 S.3     1  LIG1       -0.1228
     50 H         -10.0669    6.6448    2.9363 H       1  LIG1        0.1086
     51 C         -12.5940   10.2974   -1.7128 C.3     1  LIG1       -0.0383
     52 H         -13.1207   11.2184   -1.4479 H       1  LIG1        0.0278
     53 H         -13.3209    9.6250   -2.1834 H       1  LIG1        0.0278
     54 H         -11.8446   10.5460   -2.4722 H       1  LIG1        0.0278
@<TRIPOS>BOND
     1     9    10    1
     2     9     1    1
     3    54    51    1
     4    53    51    1
     5    39    37    1
     6     1     6   ar
     7     1     2   ar
     8    51    52    1
     9    51    44    1
    10    23    22    1
    11    47    43    1
    12     6     5   ar
    13    40    37    1
    14    37    38    1
    15    37    31    1
    16    22    15    1
    17    34    30    1
    18     8     2    1
    19     2     3   ar
    20    43    44   ar
    21    43    42   ar
    22    15    20   ar
    23    15    16   ar
    24    30    31   ar
    25    30    29   ar
    26    44    45   ar
    27    31    32   ar
    28    20    19   ar
    29     5    16    1
    30     5     4   ar
    31    16    17   ar
    32    26    24    1
    33    19    29    1
    34    19    18   ar
    35    29    28   ar
    36    17    18   ar
    37    17    21    1
    38    18    24    1
    39    32    42    1
    40    32    33   ar
    41     3     4   ar
    42     3     7    1
    43    42    41   ar
    44     4    11    1
    45    45    48    1
    46    45    46   ar
    47    24    27    1
    48    24    25    1
    49    28    33   ar
    50    28    35    1
    51    36    35    1
    52    41    46   ar
    53    41    49    1
    54    11    13    1
    55    11    12    1
    56    11    14    1
    57    50    49    1
