@<TRIPOS>MOLECULE
mol_data/opt/b3lyp/geoms/mol2/6gi6gi-6gi-6gi.out
 54 57 0 0 0
SMALL
GASTEIGER

@<TRIPOS>ATOM
      1 C          -3.6060   -1.5805   -1.7760 C.ar    1  LIG1        0.0946
      2 C          -2.7289   -2.0637   -0.7963 C.ar    1  LIG1       -0.0297
      3 C          -2.7484   -1.4385    0.4416 C.ar    1  LIG1       -0.0543
      4 C          -3.5864   -0.3431    0.6957 C.ar    1  LIG1       -0.0243
      5 C          -4.3968    0.0880   -0.3755 C.ar    1  LIG1        0.0777
      6 N          -4.4102   -0.5420   -1.5658 N.ar    1  LIG1       -0.2404
      7 H          -2.1081   -1.8105    1.2374 H       1  LIG1        0.0622
      8 H          -2.0739   -2.9067   -0.9864 H       1  LIG1        0.0644
      9 S          -3.7552   -2.2889   -3.4099 S.3     1  LIG1       -0.1234
     10 H          -2.8974   -3.3099   -3.2144 H       1  LIG1        0.1086
     11 C          -3.6063    0.2747    2.0746 C.3     1  LIG1       -0.0377
     12 H          -4.5866    0.6864    2.3232 H       1  LIG1        0.0278
     13 H          -2.8768    1.0875    2.1721 H       1  LIG1        0.0278
     14 H          -3.3514   -0.4760    2.8282 H       1  LIG1        0.0278
     15 C          -6.6760    1.2789   -0.5655 C.ar    1  LIG1        0.1038
     16 C          -5.2909    1.2797   -0.2675 C.ar    1  LIG1        0.0325
     17 C          -4.7633    2.4972    0.1661 C.ar    1  LIG1       -0.0451
     18 C          -5.5367    3.6517    0.3215 C.ar    1  LIG1       -0.0237
     19 C          -6.9082    3.5229    0.0240 C.ar    1  LIG1        0.0777
     20 N          -7.4360    2.3599   -0.3929 N.ar    1  LIG1       -0.2397
     21 H          -3.7028    2.5496    0.3966 H       1  LIG1        0.0628
     22 S          -7.6087   -0.1331   -1.1313 S.3     1  LIG1       -0.1227
     23 H          -6.5446   -0.8295   -1.5808 H       1  LIG1        0.1086
     24 C          -4.8891    4.9192    0.8288 C.3     1  LIG1       -0.0377
     25 H          -5.5758    5.5119    1.4369 H       1  LIG1        0.0278
     26 H          -4.5421    5.5608    0.0102 H       1  LIG1        0.0278
     27 H          -4.0139    4.6788    1.4395 H       1  LIG1        0.0278
     28 C          -9.0702    4.6461    0.8655 C.ar    1  LIG1        0.1038
     29 C          -7.8604    4.6685    0.1289 C.ar    1  LIG1        0.0325
     30 C          -7.5666    5.8692   -0.5203 C.ar    1  LIG1       -0.0451
     31 C          -8.3882    6.9975   -0.4418 C.ar    1  LIG1       -0.0237
     32 C          -9.5446    6.8698    0.3533 C.ar    1  LIG1        0.0777
     33 N          -9.8476    5.7221    0.9823 N.ar    1  LIG1       -0.2397
     34 H          -6.6575    5.9304   -1.1121 H       1  LIG1        0.0628
     35 S          -9.6892    3.2436    1.7803 S.3     1  LIG1       -0.1227
     36 H          -8.9839    2.3180    1.0973 H       1  LIG1        0.1086
     37 C          -7.9842    8.2672   -1.1537 C.3     1  LIG1       -0.0377
     38 H          -8.2790    9.1574   -0.5936 H       1  LIG1        0.0278
     39 H          -8.4392    8.3437   -2.1482 H       1  LIG1        0.0278
     40 H          -6.8997    8.2951   -1.2943 H       1  LIG1        0.0278
     41 C         -10.9334    8.5047    1.7815 C.ar    1  LIG1        0.1031
     42 C         -10.5188    7.9896    0.5262 C.ar    1  LIG1        0.0325
     43 C         -11.0763    8.5877   -0.6079 C.ar    1  LIG1       -0.0457
     44 C         -11.9583    9.6678   -0.5122 C.ar    1  LIG1       -0.0317
     45 C         -12.2287   10.1217    0.7798 C.ar    1  LIG1        0.0318
     46 N         -11.7452    9.5579    1.8892 N.ar    1  LIG1       -0.2481
     47 H         -10.8177    8.1949   -1.5879 H       1  LIG1        0.0628
     48 H         -12.8811   10.9811    0.9315 H       1  LIG1        0.0832
     49 S         -10.3932    7.8818    3.3675 S.3     1  LIG1       -0.1228
     50 H         -10.0723    6.6472    2.9278 H       1  LIG1        0.1086
     51 C         -12.5841   10.3022   -1.7280 C.3     1  LIG1       -0.0383
     52 H         -13.1110   11.2234   -1.4643 H       1  LIG1        0.0278
     53 H         -13.3100    9.6303   -2.2007 H       1  LIG1        0.0278
     54 H         -11.8324   10.5505   -2.4851 H       1  LIG1        0.0278
@<TRIPOS>BOND
     1     9    10    1
     2     9     1    1
     3    54    51    1
     4    53    51    1
     5    39    37    1
     6     1     6   ar
     7     1     2   ar
     8    51    52    1
     9    51    44    1
    10    47    43    1
    11    23    22    1
    12     6     5   ar
    13    40    37    1
    14    37    38    1
    15    37    31    1
    16    22    15    1
    17    34    30    1
    18     8     2    1
    19     2     3   ar
    20    43    44   ar
    21    43    42   ar
    22    15    20   ar
    23    15    16   ar
    24    30    31   ar
    25    30    29   ar
    26    44    45   ar
    27    31    32   ar
    28    20    19   ar
    29     5    16    1
    30     5     4   ar
    31    16    17   ar
    32    26    24    1
    33    19    29    1
    34    19    18   ar
    35    29    28   ar
    36    17    18   ar
    37    17    21    1
    38    18    24    1
    39    32    42    1
    40    32    33   ar
    41     3     4   ar
    42     3     7    1
    43    42    41   ar
    44     4    11    1
    45    45    48    1
    46    45    46   ar
    47    24    25    1
    48    24    27    1
    49    28    33   ar
    50    28    35    1
    51    36    35    1
    52    41    46   ar
    53    41    49    1
    54    11    13    1
    55    11    12    1
    56    11    14    1
    57    50    49    1
