@<TRIPOS>MOLECULE
mol_data/opt/b3lyp/geoms/mol2/6gi6gi-6gi.out
 41 43 0 0 0
SMALL
GASTEIGER

@<TRIPOS>ATOM
      1 C          -4.1103   -1.8276   -1.3631 C.ar    1  LIG1        0.0946
      2 C          -2.9307   -2.0789   -0.6504 C.ar    1  LIG1       -0.0297
      3 C          -2.5796   -1.1743    0.3406 C.ar    1  LIG1       -0.0543
      4 C          -3.3537   -0.0340    0.5987 C.ar    1  LIG1       -0.0243
      5 C          -4.4981    0.1433   -0.2074 C.ar    1  LIG1        0.0777
      6 N          -4.8636   -0.7535   -1.1433 N.ar    1  LIG1       -0.2404
      7 H          -1.6903   -1.3567    0.9388 H       1  LIG1        0.0622
      8 H          -2.3239   -2.9556   -0.8478 H       1  LIG1        0.0644
      9 S          -4.7447   -2.9037   -2.6415 S.3     1  LIG1       -0.1234
     10 H          -3.8153   -3.8703   -2.5054 H       1  LIG1        0.1086
     11 C          -2.9559    0.8983    1.7195 C.3     1  LIG1       -0.0377
     12 H          -3.8228    1.3786    2.1777 H       1  LIG1        0.0278
     13 H          -2.2864    1.6950    1.3741 H       1  LIG1        0.0278
     14 H          -2.4215    0.3461    2.4980 H       1  LIG1        0.0278
     15 C          -6.7809    1.2957    0.1205 C.ar    1  LIG1        0.1038
     16 C          -5.3798    1.3423   -0.0827 C.ar    1  LIG1        0.0325
     17 C          -4.8178    2.6183   -0.1535 C.ar    1  LIG1       -0.0451
     18 C          -5.5687    3.7893   -0.0156 C.ar    1  LIG1       -0.0237
     19 C          -6.9482    3.6186    0.2172 C.ar    1  LIG1        0.0777
     20 N          -7.5084    2.3997    0.2875 N.ar    1  LIG1       -0.2397
     21 H          -3.7474    2.7044   -0.3197 H       1  LIG1        0.0628
     22 S          -7.7532   -0.1953    0.2530 S.3     1  LIG1       -0.1227
     23 H          -6.8606   -0.9965   -0.3639 H       1  LIG1        0.1086
     24 C          -4.8786    5.1321   -0.0751 C.3     1  LIG1       -0.0377
     25 H          -5.3493    5.8589    0.5904 H       1  LIG1        0.0278
     26 H          -4.8941    5.5586   -1.0849 H       1  LIG1        0.0278
     27 H          -3.8285    5.0324    0.2150 H       1  LIG1        0.0278
     28 C          -8.7375    4.9702    1.4873 C.ar    1  LIG1        0.1031
     29 C          -7.8775    4.7780    0.3754 C.ar    1  LIG1        0.0325
     30 C          -7.9250    5.7530   -0.6256 C.ar    1  LIG1       -0.0457
     31 C          -8.7413    6.8821   -0.5153 C.ar    1  LIG1       -0.0317
     32 C          -9.4862    6.9834    0.6610 C.ar    1  LIG1        0.0318
     33 N          -9.4955    6.0596    1.6247 N.ar    1  LIG1       -0.2481
     34 H          -7.3124    5.6214   -1.5139 H       1  LIG1        0.0628
     35 H         -10.1206    7.8524    0.8326 H       1  LIG1        0.0832
     36 S          -8.8833    3.8482    2.8707 S.3     1  LIG1       -0.1228
     37 H          -8.4390    2.7580    2.2120 H       1  LIG1        0.1086
     38 C          -8.8188    7.9252   -1.6007 C.3     1  LIG1       -0.0383
     39 H          -9.3649    8.8090   -1.2593 H       1  LIG1        0.0278
     40 H          -9.3347    7.5410   -2.4886 H       1  LIG1        0.0278
     41 H          -7.8224    8.2490   -1.9204 H       1  LIG1        0.0278
@<TRIPOS>BOND
     1     9    10    1
     2     9     1    1
     3    40    38    1
     4    41    38    1
     5    38    39    1
     6    38    31    1
     7    34    30    1
     8     1     6   ar
     9     1     2   ar
    10     6     5   ar
    11    26    24    1
    12     8     2    1
    13     2     3   ar
    14    30    31   ar
    15    30    29   ar
    16    31    32   ar
    17    23    22    1
    18    21    17    1
    19     5    16    1
    20     5     4   ar
    21    17    16   ar
    22    17    18   ar
    23    16    15   ar
    24    24    18    1
    25    24    27    1
    26    24    25    1
    27    18    19   ar
    28    15    22    1
    29    15    20   ar
    30    19    20   ar
    31    19    29    1
    32     3     4   ar
    33     3     7    1
    34    29    28   ar
    35     4    11    1
    36    32    35    1
    37    32    33   ar
    38    13    11    1
    39    28    33   ar
    40    28    36    1
    41    11    12    1
    42    11    14    1
    43    37    36    1
