@<TRIPOS>MOLECULE
mol_data/opt/b3lyp/geoms/mol2/6gi6gi-6gi-6gi-.out
 54 57 0 0 0
SMALL
GASTEIGER

@<TRIPOS>ATOM
      1 C          -3.5967   -1.5727   -1.7817 C.ar    1  LIG1        0.0946
      2 C          -2.7228   -2.0586   -0.8006 C.ar    1  LIG1       -0.0297
      3 C          -2.7470   -1.4375    0.4393 C.ar    1  LIG1       -0.0543
      4 C          -3.5865   -0.3434    0.6942 C.ar    1  LIG1       -0.0243
      5 C          -4.3933    0.0908   -0.3785 C.ar    1  LIG1        0.0777
      6 N          -4.4023   -0.5353   -1.5709 N.ar    1  LIG1       -0.2404
      7 H          -2.1092   -1.8118    1.2361 H       1  LIG1        0.0622
      8 H          -2.0667   -2.9006   -0.9911 H       1  LIG1        0.0644
      9 S          -3.7398   -2.2757   -3.4184 S.3     1  LIG1       -0.1234
     10 H          -2.8819   -3.2968   -3.2233 H       1  LIG1        0.1086
     11 C          -3.6115    0.2699    2.0749 C.3     1  LIG1       -0.0377
     12 H          -4.5929    0.6802    2.3215 H       1  LIG1        0.0278
     13 H          -2.8828    1.0828    2.1776 H       1  LIG1        0.0278
     14 H          -3.3589   -0.4832    2.8270 H       1  LIG1        0.0278
     15 C          -6.6726    1.2810   -0.5722 C.ar    1  LIG1        0.1038
     16 C          -5.2885    1.2815   -0.2695 C.ar    1  LIG1        0.0325
     17 C          -4.7630    2.4979    0.1698 C.ar    1  LIG1       -0.0451
     18 C          -5.5375    3.6515    0.3266 C.ar    1  LIG1       -0.0237
     19 C          -6.9080    3.5229    0.0242 C.ar    1  LIG1        0.0777
     20 N          -7.4338    2.3610   -0.3984 N.ar    1  LIG1       -0.2397
     21 H          -3.7033    2.5500    0.4040 H       1  LIG1        0.0628
     22 S          -7.6026   -0.1295   -1.1459 S.3     1  LIG1       -0.1227
     23 H          -6.5366   -0.8236   -1.5946 H       1  LIG1        0.1086
     24 C          -4.8923    4.9176    0.8402 C.3     1  LIG1       -0.0377
     25 H          -5.5812    5.5078    1.4482 H       1  LIG1        0.0278
     26 H          -4.5431    5.5622    0.0249 H       1  LIG1        0.0278
     27 H          -4.0189    4.6756    1.4528 H       1  LIG1        0.0278
     28 C          -9.0732    4.6421    0.8626 C.ar    1  LIG1        0.1038
     29 C          -7.8611    4.6676    0.1300 C.ar    1  LIG1        0.0325
     30 C          -7.5659    5.8707   -0.5142 C.ar    1  LIG1       -0.0451
     31 C          -8.3883    6.9983   -0.4344 C.ar    1  LIG1       -0.0237
     32 C          -9.5472    6.8672    0.3566 C.ar    1  LIG1        0.0777
     33 N          -9.8516    5.7173    0.9807 N.ar    1  LIG1       -0.2397
     34 H          -6.6550    5.9344   -1.1028 H       1  LIG1        0.0628
     35 S          -9.6944    3.2361    1.7706 S.3     1  LIG1       -0.1227
     36 H          -8.9864    2.3132    1.0868 H       1  LIG1        0.1086
     37 C          -7.9828    8.2707   -1.1407 C.3     1  LIG1       -0.0377
     38 H          -8.2802    9.1588   -0.5787 H       1  LIG1        0.0278
     39 H          -8.4342    8.3501   -2.1365 H       1  LIG1        0.0278
     40 H          -6.8978    8.2999   -1.2772 H       1  LIG1        0.0278
     41 C         -10.9412    8.4966    1.7860 C.ar    1  LIG1        0.1031
     42 C         -10.5225    7.9860    0.5303 C.ar    1  LIG1        0.0325
     43 C         -11.0767    8.5877   -0.6035 C.ar    1  LIG1       -0.0457
     44 C         -11.9594    9.6671   -0.5068 C.ar    1  LIG1       -0.0317
     45 C         -12.2340   10.1165    0.7859 C.ar    1  LIG1        0.0318
     46 N         -11.7538    9.5491    1.8949 N.ar    1  LIG1       -0.2481
     47 H         -10.8147    8.1985   -1.5840 H       1  LIG1        0.0628
     48 H         -12.8873   10.9751    0.9385 H       1  LIG1        0.0832
     49 S         -10.4060    7.8684    3.3716 S.3     1  LIG1       -0.1228
     50 H         -10.0823    6.6358    2.9286 H       1  LIG1        0.1086
     51 C         -12.5816   10.3056   -1.7223 C.3     1  LIG1       -0.0383
     52 H         -13.1099   11.2255   -1.4572 H       1  LIG1        0.0278
     53 H         -13.3055    9.6349   -2.1999 H       1  LIG1        0.0278
     54 H         -11.8276   10.5570   -2.4762 H       1  LIG1        0.0278
@<TRIPOS>BOND
     1     9    10    1
     2     9     1    1
     3    54    51    1
     4    53    51    1
     5    39    37    1
     6     1     6   ar
     7     1     2   ar
     8    51    52    1
     9    51    44    1
    10    23    22    1
    11    47    43    1
    12     6     5   ar
    13    40    37    1
    14    22    15    1
    15    37    38    1
    16    37    31    1
    17    34    30    1
    18     8     2    1
    19     2     3   ar
    20    43    44   ar
    21    43    42   ar
    22    15    20   ar
    23    15    16   ar
    24    30    31   ar
    25    30    29   ar
    26    44    45   ar
    27    31    32   ar
    28    20    19   ar
    29     5    16    1
    30     5     4   ar
    31    16    17   ar
    32    19    29    1
    33    19    18   ar
    34    26    24    1
    35    29    28   ar
    36    17    18   ar
    37    17    21    1
    38    18    24    1
    39    32    42    1
    40    32    33   ar
    41     3     4   ar
    42     3     7    1
    43    42    41   ar
    44     4    11    1
    45    45    48    1
    46    45    46   ar
    47    24    25    1
    48    24    27    1
    49    28    33   ar
    50    28    35    1
    51    36    35    1
    52    41    46   ar
    53    41    49    1
    54    11    13    1
    55    11    12    1
    56    11    14    1
    57    50    49    1
