@<TRIPOS>MOLECULE
mol_data/opt/b3lyp/geoms/mol2/6gi6gi6gi6gi-.out
 54 57 0 0 0
SMALL
GASTEIGER

@<TRIPOS>ATOM
      1 C          -3.6101   -1.5791   -1.7862 C.ar    1  LIG1        0.0946
      2 C          -2.7243   -2.0580   -0.8122 C.ar    1  LIG1       -0.0297
      3 C          -2.7350   -1.4294    0.4240 C.ar    1  LIG1       -0.0543
      4 C          -3.5729   -0.3347    0.6819 C.ar    1  LIG1       -0.0243
      5 C          -4.3927    0.0920   -0.3841 C.ar    1  LIG1        0.0777
      6 N          -4.4145   -0.5414   -1.5724 N.ar    1  LIG1       -0.2404
      7 H          -2.0877   -1.7980    1.2158 H       1  LIG1        0.0622
      8 H          -2.0693   -2.9004   -1.0052 H       1  LIG1        0.0644
      9 S          -3.7711   -2.2922   -3.4168 S.3     1  LIG1       -0.1234
     10 H          -2.9095   -3.3109   -3.2255 H       1  LIG1        0.1086
     11 C          -3.5830    0.2867    2.0592 C.3     1  LIG1       -0.0377
     12 H          -4.5621    0.6971    2.3146 H       1  LIG1        0.0278
     13 H          -2.8544    1.1012    2.1487 H       1  LIG1        0.0278
     14 H          -3.3206   -0.4615    2.8127 H       1  LIG1        0.0278
     15 C          -6.6754    1.2784   -0.5595 C.ar    1  LIG1        0.1038
     16 C          -5.2880    1.2822   -0.2721 C.ar    1  LIG1        0.0325
     17 C          -4.7592    2.5017    0.1546 C.ar    1  LIG1       -0.0451
     18 C          -5.5334    3.6553    0.3133 C.ar    1  LIG1       -0.0237
     19 C          -6.9069    3.5234    0.0267 C.ar    1  LIG1        0.0777
     20 N          -7.4359    2.3585   -0.3835 N.ar    1  LIG1       -0.2397
     21 H          -3.6971    2.5564    0.3768 H       1  LIG1        0.0628
     22 S          -7.6100   -0.1363   -1.1150 S.3     1  LIG1       -0.1227
     23 H          -6.5481   -0.8317   -1.5714 H       1  LIG1        0.1086
     24 C          -4.8840    4.9249    0.8127 C.3     1  LIG1       -0.0377
     25 H          -5.5670    5.5180    1.4246 H       1  LIG1        0.0278
     26 H          -4.5442    5.5652   -0.0099 H       1  LIG1        0.0278
     27 H          -4.0038    4.6874    1.4173 H       1  LIG1        0.0278
     28 C          -9.0644    4.6447    0.8821 C.ar    1  LIG1        0.1038
     29 C          -7.8602    4.6676    0.1365 C.ar    1  LIG1        0.0325
     30 C          -7.5733    5.8675   -0.5175 C.ar    1  LIG1       -0.0451
     31 C          -8.3961    6.9946   -0.4350 C.ar    1  LIG1       -0.0237
     32 C          -9.5464    6.8665    0.3690 C.ar    1  LIG1        0.0777
     33 N          -9.8427    5.7197    1.0025 N.ar    1  LIG1       -0.2397
     34 H          -6.6688    5.9289   -1.1162 H       1  LIG1        0.0628
     35 S          -9.6742    3.2431    1.8044 S.3     1  LIG1       -0.1227
     36 H          -8.9725    2.3172    1.1180 H       1  LIG1        0.1086
     37 C          -7.9998    8.2635   -1.1526 C.3     1  LIG1       -0.0377
     38 H          -8.2920    9.1543   -0.5922 H       1  LIG1        0.0278
     39 H          -8.4622    8.3371   -2.1438 H       1  LIG1        0.0278
     40 H          -6.9164    8.2931   -1.3012 H       1  LIG1        0.0278
     41 C         -10.9266    8.5025    1.8043 C.ar    1  LIG1        0.1031
     42 C         -10.5211    7.9851    0.5470 C.ar    1  LIG1        0.0325
     43 C         -11.0883    8.5798   -0.5841 C.ar    1  LIG1       -0.0457
     44 C         -11.9711    9.6587   -0.4840 C.ar    1  LIG1       -0.0317
     45 C         -12.2321   10.1153    0.8091 C.ar    1  LIG1        0.0318
     46 N         -11.7392    9.5547    1.9160 N.ar    1  LIG1       -0.2481
     47 H         -10.8366    8.1851   -1.5652 H       1  LIG1        0.0628
     48 H         -12.8846   10.9740    0.9638 H       1  LIG1        0.0832
     49 S         -10.3735    7.8838    3.3874 S.3     1  LIG1       -0.1228
     50 H         -10.0535    6.6490    2.9479 H       1  LIG1        0.1086
     51 C         -12.6072   10.2896   -1.6963 C.3     1  LIG1       -0.0383
     52 H         -13.1339   11.2103   -1.4305 H       1  LIG1        0.0278
     53 H         -13.3354    9.6153   -2.1623 H       1  LIG1        0.0278
     54 H         -11.8617   10.5377   -2.4596 H       1  LIG1        0.0278
@<TRIPOS>BOND
     1     9    10    1
     2     9     1    1
     3    54    51    1
     4    53    51    1
     5    39    37    1
     6     1     6   ar
     7     1     2   ar
     8    51    52    1
     9    51    44    1
    10     6     5   ar
    11    23    22    1
    12    47    43    1
    13    40    37    1
    14    37    38    1
    15    37    31    1
    16    34    30    1
    17    22    15    1
    18     8     2    1
    19     2     3   ar
    20    43    44   ar
    21    43    42   ar
    22    15    20   ar
    23    15    16   ar
    24    30    31   ar
    25    30    29   ar
    26    44    45   ar
    27    31    32   ar
    28     5    16    1
    29     5     4   ar
    30    20    19   ar
    31    16    17   ar
    32    26    24    1
    33    19    29    1
    34    19    18   ar
    35    29    28   ar
    36    17    18   ar
    37    17    21    1
    38    18    24    1
    39    32    42    1
    40    32    33   ar
    41     3     4   ar
    42     3     7    1
    43    42    41   ar
    44     4    11    1
    45    45    48    1
    46    45    46   ar
    47    24    27    1
    48    24    25    1
    49    28    33   ar
    50    28    35    1
    51    36    35    1
    52    41    46   ar
    53    41    49    1
    54    11    13    1
    55    11    12    1
    56    11    14    1
    57    50    49    1
