@<TRIPOS>MOLECULE
mol_data/opt/b3lyp/geoms/mol2/6gi6gi6gi.out
 41 43 0 0 0
SMALL
GASTEIGER

@<TRIPOS>ATOM
      1 C          -4.1173   -1.8323   -1.3576 C.ar    1  LIG1        0.0946
      2 C          -2.9326   -2.0799   -0.6524 C.ar    1  LIG1       -0.0297
      3 C          -2.5750   -1.1709    0.3323 C.ar    1  LIG1       -0.0543
      4 C          -3.3480   -0.0300    0.5911 C.ar    1  LIG1       -0.0243
      5 C          -4.4982    0.1432   -0.2076 C.ar    1  LIG1        0.0777
      6 N          -4.8698   -0.7579   -1.1370 N.ar    1  LIG1       -0.2404
      7 H          -1.6814   -1.3503    0.9250 H       1  LIG1        0.0622
      8 H          -2.3265   -2.9570   -0.8503 H       1  LIG1        0.0644
      9 S          -4.7602   -2.9143   -2.6270 S.3     1  LIG1       -0.1234
     10 H          -3.8290   -3.8796   -2.4936 H       1  LIG1        0.1086
     11 C          -2.9430    0.9071    1.7051 C.3     1  LIG1       -0.0377
     12 H          -3.8068    1.3891    2.1672 H       1  LIG1        0.0278
     13 H          -2.2761    1.7026    1.3518 H       1  LIG1        0.0278
     14 H          -2.4031    0.3585    2.4823 H       1  LIG1        0.0278
     15 C          -6.7793    1.2959    0.1312 C.ar    1  LIG1        0.1038
     16 C          -5.3798    1.3422   -0.0816 C.ar    1  LIG1        0.0325
     17 C          -4.8187    2.6182   -0.1612 C.ar    1  LIG1       -0.0451
     18 C          -5.5691    3.7894   -0.0228 C.ar    1  LIG1       -0.0237
     19 C          -6.9469    3.6190    0.2201 C.ar    1  LIG1        0.0777
     20 N          -7.5061    2.4003    0.2990 N.ar    1  LIG1       -0.2397
     21 H          -3.7495    2.7040   -0.3351 H       1  LIG1        0.0628
     22 S          -7.7503   -0.1950    0.2759 S.3     1  LIG1       -0.1227
     23 H          -6.8611   -0.9984   -0.3432 H       1  LIG1        0.1086
     24 C          -4.8801    5.1321   -0.0922 C.3     1  LIG1       -0.0377
     25 H          -5.3457    5.8609    0.5748 H       1  LIG1        0.0278
     26 H          -4.9040    5.5555   -1.1032 H       1  LIG1        0.0278
     27 H          -3.8276    5.0339    0.1897 H       1  LIG1        0.0278
     28 C          -8.7274    4.9749    1.4978 C.ar    1  LIG1        0.1031
     29 C          -7.8757    4.7786    0.3803 C.ar    1  LIG1        0.0325
     30 C          -7.9312    5.7494   -0.6243 C.ar    1  LIG1       -0.0457
     31 C          -8.7475    6.8784   -0.5126 C.ar    1  LIG1       -0.0317
     32 C          -9.4837    6.9841    0.6688 C.ar    1  LIG1        0.0318
     33 N          -9.4852    6.0643    1.6363 N.ar    1  LIG1       -0.2481
     34 H          -7.3251    5.6146   -1.5166 H       1  LIG1        0.0628
     35 H         -10.1174    7.8535    0.8415 H       1  LIG1        0.0832
     36 S          -8.8619    3.8586    2.8869 S.3     1  LIG1       -0.1228
     37 H          -8.4226    2.7658    2.2292 H       1  LIG1        0.1086
     38 C          -8.8338    7.9170   -1.6017 C.3     1  LIG1       -0.0383
     39 H          -9.3780    8.8017   -1.2599 H       1  LIG1        0.0278
     40 H          -9.3561    7.5287   -2.4841 H       1  LIG1        0.0278
     41 H          -7.8401    8.2401   -1.9301 H       1  LIG1        0.0278
@<TRIPOS>BOND
     1     9    10    1
     2     9     1    1
     3    40    38    1
     4    41    38    1
     5    38    39    1
     6    38    31    1
     7    34    30    1
     8     1     6   ar
     9     1     2   ar
    10     6     5   ar
    11    26    24    1
    12     8     2    1
    13     2     3   ar
    14    30    31   ar
    15    30    29   ar
    16    31    32   ar
    17    23    22    1
    18    21    17    1
    19     5    16    1
    20     5     4   ar
    21    17    16   ar
    22    17    18   ar
    23    24    18    1
    24    24    27    1
    25    24    25    1
    26    16    15   ar
    27    18    19   ar
    28    15    22    1
    29    15    20   ar
    30    19    20   ar
    31    19    29    1
    32     3     4   ar
    33     3     7    1
    34    29    28   ar
    35     4    11    1
    36    32    35    1
    37    32    33   ar
    38    13    11    1
    39    28    33   ar
    40    28    36    1
    41    11    12    1
    42    11    14    1
    43    37    36    1
