@<TRIPOS>MOLECULE
mol_data/opt/b3lyp/geoms/mol2/6gi6gi-.out
 28 29 0 0 0
SMALL
GASTEIGER

@<TRIPOS>ATOM
      1 C          -4.4336   -1.9875   -0.7178 C.ar    1  LIG1        0.0946
      2 C          -3.0684   -2.0624   -0.4150 C.ar    1  LIG1       -0.0297
      3 C          -2.4796   -0.9426    0.1545 C.ar    1  LIG1       -0.0543
      4 C          -3.2123    0.2292    0.3885 C.ar    1  LIG1       -0.0243
      5 C          -4.5711    0.2083    0.0085 C.ar    1  LIG1        0.0777
      6 N          -5.1543   -0.8889   -0.5100 N.ar    1  LIG1       -0.2404
      7 H          -1.4299   -0.9762    0.4351 H       1  LIG1        0.0622
      8 H          -2.4944   -2.9641   -0.5979 H       1  LIG1        0.0644
      9 S          -5.3704   -3.3419   -1.4146 S.3     1  LIG1       -0.1234
     10 H          -4.3713   -4.2466   -1.3979 H       1  LIG1        0.1086
     11 C          -2.5426    1.4103    1.0518 C.3     1  LIG1       -0.0377
     12 H          -3.2367    1.9667    1.6853 H       1  LIG1        0.0278
     13 H          -2.1336    2.1169    0.3200 H       1  LIG1        0.0278
     14 H          -1.7085    1.0721    1.6735 H       1  LIG1        0.0278
     15 C          -6.6850    1.4264    0.8440 C.ar    1  LIG1        0.1031
     16 C          -5.4492    1.4095    0.1467 C.ar    1  LIG1        0.0325
     17 C          -5.0505    2.6116   -0.4454 C.ar    1  LIG1       -0.0457
     18 C          -5.8055    3.7810   -0.3192 C.ar    1  LIG1       -0.0317
     19 C          -6.9666    3.6765    0.4489 C.ar    1  LIG1        0.0318
     20 N          -7.3997    2.5420    1.0030 N.ar    1  LIG1       -0.2481
     21 H          -4.1292    2.6298   -1.0221 H       1  LIG1        0.0628
     22 H          -7.5899    4.5539    0.6186 H       1  LIG1        0.0832
     23 S          -7.4236    0.0154    1.6541 S.3     1  LIG1       -0.1228
     24 H          -6.7703   -0.9193    0.9338 H       1  LIG1        0.1086
     25 C          -5.3959    5.0753   -0.9742 C.3     1  LIG1       -0.0383
     26 H          -6.0234    5.9041   -0.6347 H       1  LIG1        0.0278
     27 H          -5.4865    5.0180   -2.0653 H       1  LIG1        0.0278
     28 H          -4.3544    5.3292   -0.7489 H       1  LIG1        0.0278
@<TRIPOS>BOND
     1    27    25    1
     2     9    10    1
     3     9     1    1
     4    21    17    1
     5    25    28    1
     6    25    26    1
     7    25    18    1
     8     1     6   ar
     9     1     2   ar
    10     8     2    1
    11     6     5   ar
    12    17    18   ar
    13    17    16   ar
    14     2     3   ar
    15    18    19   ar
    16     5    16    1
    17     5     4   ar
    18    16    15   ar
    19     3     4   ar
    20     3     7    1
    21    13    11    1
    22     4    11    1
    23    19    22    1
    24    19    20   ar
    25    15    20   ar
    26    15    23    1
    27    24    23    1
    28    11    14    1
    29    11    12    1
