@<TRIPOS>MOLECULE
mol_data/opt/b3lyp/geoms/mol2/6gi6gi-6gi6gi.out
 54 57 0 0 0
SMALL
GASTEIGER

@<TRIPOS>ATOM
      1 C          -3.6084   -1.5828   -1.7750 C.ar    1  LIG1        0.0946
      2 C          -2.7275   -2.0628   -0.7971 C.ar    1  LIG1       -0.0297
      3 C          -2.7431   -1.4343    0.4392 C.ar    1  LIG1       -0.0543
      4 C          -3.5809   -0.3388    0.6934 C.ar    1  LIG1       -0.0243
      5 C          -4.3954    0.0889   -0.3761 C.ar    1  LIG1        0.0777
      6 N          -4.4126   -0.5443   -1.5646 N.ar    1  LIG1       -0.2404
      7 H          -2.0997   -1.8037    1.2338 H       1  LIG1        0.0622
      8 H          -2.0726   -2.9059   -0.9872 H       1  LIG1        0.0644
      9 S          -3.7629   -2.2956   -3.4063 S.3     1  LIG1       -0.1234
     10 H          -2.9034   -3.3153   -3.2113 H       1  LIG1        0.1086
     11 C          -3.5963    0.2826    2.0707 C.3     1  LIG1       -0.0377
     12 H          -4.5758    0.6947    2.3216 H       1  LIG1        0.0278
     13 H          -2.8666    1.0958    2.1636 H       1  LIG1        0.0278
     14 H          -3.3387   -0.4661    2.8254 H       1  LIG1        0.0278
     15 C          -6.6760    1.2778   -0.5615 C.ar    1  LIG1        0.1038
     16 C          -5.2899    1.2803   -0.2681 C.ar    1  LIG1        0.0325
     17 C          -4.7617    2.4992    0.1607 C.ar    1  LIG1       -0.0451
     18 C          -5.5353    3.6536    0.3160 C.ar    1  LIG1       -0.0237
     19 C          -6.9078    3.5231    0.0235 C.ar    1  LIG1        0.0777
     20 N          -7.4362    2.3587   -0.3889 N.ar    1  LIG1       -0.2397
     21 H          -3.7005    2.5528    0.3875 H       1  LIG1        0.0628
     22 S          -7.6096   -0.1360   -1.1209 S.3     1  LIG1       -0.1227
     23 H          -6.5465   -0.8325   -1.5727 H       1  LIG1        0.1086
     24 C          -4.8868    4.9227    0.8180 C.3     1  LIG1       -0.0377
     25 H          -5.5716    5.5161    1.4276 H       1  LIG1        0.0278
     26 H          -4.5435    5.5629   -0.0032 H       1  LIG1        0.0278
     27 H          -4.0090    4.6843    1.4258 H       1  LIG1        0.0278
     28 C          -9.0676    4.6467    0.8698 C.ar    1  LIG1        0.1038
     29 C          -7.8603    4.6682    0.1292 C.ar    1  LIG1        0.0325
     30 C          -7.5695    5.8678   -0.5236 C.ar    1  LIG1       -0.0451
     31 C          -8.3915    6.9958   -0.4446 C.ar    1  LIG1       -0.0237
     32 C          -9.5451    6.8690    0.3547 C.ar    1  LIG1        0.0777
     33 N          -9.8453    5.7225    0.9870 N.ar    1  LIG1       -0.2397
     34 H          -6.6625    5.9283   -1.1186 H       1  LIG1        0.0628
     35 S          -9.6828    3.2457    1.7896 S.3     1  LIG1       -0.1227
     36 H          -8.9793    2.3191    1.1061 H       1  LIG1        0.1086
     37 C          -7.9908    8.2642   -1.1607 C.3     1  LIG1       -0.0377
     38 H          -8.2855    9.1554   -0.6022 H       1  LIG1        0.0278
     39 H          -8.4482    8.3374   -2.1543 H       1  LIG1        0.0278
     40 H          -6.9067    8.2932   -1.3038 H       1  LIG1        0.0278
     41 C         -10.9296    8.5065    1.7841 C.ar    1  LIG1        0.1031
     42 C         -10.5194    7.9886    0.5286 C.ar    1  LIG1        0.0325
     43 C         -11.0813    8.5838   -0.6049 C.ar    1  LIG1       -0.0457
     44 C         -11.9635    9.6637   -0.5085 C.ar    1  LIG1       -0.0317
     45 C         -12.2293   10.1205    0.7835 C.ar    1  LIG1        0.0318
     46 N         -11.7416    9.5595    1.8924 N.ar    1  LIG1       -0.2481
     47 H         -10.8259    8.1889   -1.5849 H       1  LIG1        0.0628
     48 H         -12.8816   10.9799    0.9355 H       1  LIG1        0.0832
     49 S         -10.3837    7.8874    3.3696 S.3     1  LIG1       -0.1228
     50 H         -10.0627    6.6523    2.9315 H       1  LIG1        0.1086
     51 C         -12.5940   10.2950   -1.7234 C.3     1  LIG1       -0.0383
     52 H         -13.1206   11.2164   -1.4600 H       1  LIG1        0.0278
     53 H         -13.3211    9.6215   -2.1922 H       1  LIG1        0.0278
     54 H         -11.8452   10.5421   -2.4838 H       1  LIG1        0.0278
@<TRIPOS>BOND
     1     9    10    1
     2     9     1    1
     3    54    51    1
     4    53    51    1
     5    39    37    1
     6     1     6   ar
     7     1     2   ar
     8    51    52    1
     9    51    44    1
    10    47    43    1
    11    23    22    1
    12     6     5   ar
    13    40    37    1
    14    37    38    1
    15    37    31    1
    16    22    15    1
    17    34    30    1
    18     8     2    1
    19     2     3   ar
    20    43    44   ar
    21    43    42   ar
    22    15    20   ar
    23    15    16   ar
    24    30    31   ar
    25    30    29   ar
    26    44    45   ar
    27    31    32   ar
    28    20    19   ar
    29     5    16    1
    30     5     4   ar
    31    16    17   ar
    32    26    24    1
    33    19    29    1
    34    19    18   ar
    35    29    28   ar
    36    17    18   ar
    37    17    21    1
    38    18    24    1
    39    32    42    1
    40    32    33   ar
    41     3     4   ar
    42     3     7    1
    43    42    41   ar
    44     4    11    1
    45    45    48    1
    46    45    46   ar
    47    24    27    1
    48    24    25    1
    49    28    33   ar
    50    28    35    1
    51    36    35    1
    52    41    46   ar
    53    41    49    1
    54    11    13    1
    55    11    12    1
    56    11    14    1
    57    50    49    1
