@<TRIPOS>MOLECULE
mol_data/opt/b3lyp/geoms/mol2/6gi6gi6gi-6gi.out
 54 57 0 0 0
SMALL
GASTEIGER

@<TRIPOS>ATOM
      1 C          -3.6166   -1.5848   -1.7823 C.ar    1  LIG1        0.0946
      2 C          -2.7301   -2.0627   -0.8086 C.ar    1  LIG1       -0.0297
      3 C          -2.7388   -1.4321    0.4266 C.ar    1  LIG1       -0.0543
      4 C          -3.5755   -0.3364    0.6837 C.ar    1  LIG1       -0.0243
      5 C          -4.3961    0.0893   -0.3820 C.ar    1  LIG1        0.0777
      6 N          -4.4199   -0.5460   -1.5692 N.ar    1  LIG1       -0.2404
      7 H          -2.0908   -1.8000    1.2182 H       1  LIG1        0.0622
      8 H          -2.0760   -2.9060   -1.0010 H       1  LIG1        0.0644
      9 S          -3.7802   -2.3005   -3.4115 S.3     1  LIG1       -0.1234
     10 H          -2.9197   -3.3199   -3.2194 H       1  LIG1        0.1086
     11 C          -3.5833    0.2874    2.0600 C.3     1  LIG1       -0.0377
     12 H          -4.5618    0.6987    2.3160 H       1  LIG1        0.0278
     13 H          -2.8541    1.1017    2.1471 H       1  LIG1        0.0278
     14 H          -3.3202   -0.4596    2.8144 H       1  LIG1        0.0278
     15 C          -6.6781    1.2772   -0.5563 C.ar    1  LIG1        0.1038
     16 C          -5.2903    1.2805   -0.2709 C.ar    1  LIG1        0.0325
     17 C          -4.7600    2.5003    0.1529 C.ar    1  LIG1       -0.0451
     18 C          -5.5331    3.6547    0.3106 C.ar    1  LIG1       -0.0237
     19 C          -6.9071    3.5234    0.0261 C.ar    1  LIG1        0.0777
     20 N          -7.4375    2.3582   -0.3813 N.ar    1  LIG1       -0.2397
     21 H          -3.6976    2.5546    0.3735 H       1  LIG1        0.0628
     22 S          -7.6146   -0.1379   -1.1079 S.3     1  LIG1       -0.1227
     23 H          -6.5539   -0.8349   -1.5648 H       1  LIG1        0.1086
     24 C          -4.8820    4.9248    0.8069 C.3     1  LIG1       -0.0377
     25 H          -5.5638    5.5194    1.4187 H       1  LIG1        0.0278
     26 H          -4.5430    5.5634   -0.0174 H       1  LIG1        0.0278
     27 H          -4.0012    4.6877    1.4106 H       1  LIG1        0.0278
     28 C          -9.0626    4.6479    0.8825 C.ar    1  LIG1        0.1038
     29 C          -7.8595    4.6685    0.1350 C.ar    1  LIG1        0.0325
     30 C          -7.5728    5.8669   -0.5216 C.ar    1  LIG1       -0.0451
     31 C          -8.3948    6.9947   -0.4401 C.ar    1  LIG1       -0.0237
     32 C          -9.5439    6.8690    0.3658 C.ar    1  LIG1        0.0777
     33 N          -9.8401    5.7235    1.0020 N.ar    1  LIG1       -0.2397
     34 H          -6.6691    5.9267   -1.1218 H       1  LIG1        0.0628
     35 S          -9.6718    3.2484    1.8084 S.3     1  LIG1       -0.1227
     36 H          -8.9722    2.3207    1.1222 H       1  LIG1        0.1086
     37 C          -7.9987    8.2620   -1.1607 C.3     1  LIG1       -0.0377
     38 H          -8.2891    9.1541   -0.6014 H       1  LIG1        0.0278
     39 H          -8.4629    8.3342   -2.1513 H       1  LIG1        0.0278
     40 H          -6.9155    8.2904   -1.3114 H       1  LIG1        0.0278
     41 C         -10.9211    8.5084    1.8000 C.ar    1  LIG1        0.1031
     42 C         -10.5177    7.9885    0.5431 C.ar    1  LIG1        0.0325
     43 C         -11.0862    8.5814   -0.5883 C.ar    1  LIG1       -0.0457
     44 C         -11.9683    9.6610   -0.4889 C.ar    1  LIG1       -0.0317
     45 C         -12.2272   10.1200    0.8038 C.ar    1  LIG1        0.0318
     46 N         -11.7330    9.5612    1.9110 N.ar    1  LIG1       -0.2481
     47 H         -10.8362    8.1848   -1.5690 H       1  LIG1        0.0628
     48 H         -12.8791   10.9794    0.9579 H       1  LIG1        0.0832
     49 S         -10.3658    7.8925    3.3835 S.3     1  LIG1       -0.1228
     50 H         -10.0474    6.6565    2.9459 H       1  LIG1        0.1086
     51 C         -12.6059   10.2899   -1.7014 C.3     1  LIG1       -0.0383
     52 H         -13.1315   11.2115   -1.4366 H       1  LIG1        0.0278
     53 H         -13.3352    9.6152   -2.1649 H       1  LIG1        0.0278
     54 H         -11.8614   10.5360   -2.4663 H       1  LIG1        0.0278
@<TRIPOS>BOND
     1     9    10    1
     2     9     1    1
     3    54    51    1
     4    53    51    1
     5    39    37    1
     6     1     6   ar
     7     1     2   ar
     8    51    52    1
     9    51    44    1
    10     6     5   ar
    11    47    43    1
    12    23    22    1
    13    40    37    1
    14    37    38    1
    15    37    31    1
    16    34    30    1
    17    22    15    1
    18     8     2    1
    19     2     3   ar
    20    43    44   ar
    21    43    42   ar
    22    15    20   ar
    23    15    16   ar
    24    30    31   ar
    25    30    29   ar
    26    44    45   ar
    27    31    32   ar
    28     5    16    1
    29     5     4   ar
    30    20    19   ar
    31    16    17   ar
    32    26    24    1
    33    19    29    1
    34    19    18   ar
    35    29    28   ar
    36    17    18   ar
    37    17    21    1
    38    18    24    1
    39    32    42    1
    40    32    33   ar
    41     3     4   ar
    42     3     7    1
    43    42    41   ar
    44     4    11    1
    45    45    48    1
    46    45    46   ar
    47    24    27    1
    48    24    25    1
    49    28    33   ar
    50    28    35    1
    51    36    35    1
    52    41    46   ar
    53    41    49    1
    54    11    13    1
    55    11    12    1
    56    11    14    1
    57    50    49    1
