@<TRIPOS>MOLECULE
mol_data/opt/b3lyp/geoms/mol2/6gl.out
 16 16 0 0 0
SMALL
GASTEIGER

@<TRIPOS>ATOM
      1 C          -4.6057   -2.0467    0.0001 C.ar    1  LIG1        0.0942
      2 C          -3.2098   -2.1138    0.0001 C.ar    1  LIG1       -0.0266
      3 C          -2.4789   -0.9257   -0.0001 C.ar    1  LIG1       -0.0159
      4 C          -3.1700    0.2888   -0.0002 C.ar    1  LIG1        0.1382
      5 C          -4.5729    0.2448   -0.0002 C.ar    1  LIG1        0.0704
      6 N          -5.2714   -0.8868   -0.0001 N.ar    1  LIG1       -0.2454
      7 H          -1.3958   -0.9627   -0.0001 H       1  LIG1        0.0655
      8 H          -2.6924   -3.0671    0.0002 H       1  LIG1        0.0645
      9 H          -5.1303    1.1789   -0.0003 H       1  LIG1        0.0867
     10 S          -5.6724   -3.4867    0.0003 S.3     1  LIG1       -0.1234
     11 H          -4.6903   -4.4101    0.0003 H       1  LIG1        0.1086
     12 O          -2.6057    1.5286   -0.0004 O.3     1  LIG1       -0.4936
     13 C          -1.1884    1.6154   -0.0005 C.3     1  LIG1        0.0789
     14 H          -0.9518    2.6799   -0.0007 H       1  LIG1        0.0660
     15 H          -0.7547    1.1498    0.8939 H       1  LIG1        0.0660
     16 H          -0.7549    1.1495   -0.8948 H       1  LIG1        0.0660
@<TRIPOS>BOND
     1    16    13    1
     2    14    13    1
     3    13    12    1
     4    13    15    1
     5    12     4    1
     6     9     5    1
     7     4     5   ar
     8     4     3   ar
     9     5     6   ar
    10     7     3    1
    11     3     2   ar
    12     6     1   ar
    13     2     1   ar
    14     2     8    1
    15     1    10    1
    16    10    11    1
