@<TRIPOS>MOLECULE
mol_data/opt/b3lyp/geoms/mol2/6gl6gl6gl-.out
 44 46 0 0 0
SMALL
GASTEIGER

@<TRIPOS>ATOM
      1 C          -4.2186   -2.2433   -0.3175 C.ar    1  LIG1        0.0949
      2 C          -2.8608   -2.2008    0.0060 C.ar    1  LIG1       -0.0265
      3 C          -2.3119   -0.9728    0.3611 C.ar    1  LIG1       -0.0153
      4 C          -3.1107    0.1744    0.3654 C.ar    1  LIG1        0.1461
      5 C          -4.4758    0.0477    0.0006 C.ar    1  LIG1        0.1163
      6 N          -4.9833   -1.1521   -0.3154 N.ar    1  LIG1       -0.2370
      7 H          -1.2651   -0.9192    0.6352 H       1  LIG1        0.0656
      8 H          -2.2443   -3.0927   -0.0089 H       1  LIG1        0.0645
      9 S          -5.0902   -3.7364   -0.7795 S.3     1  LIG1       -0.1234
     10 H          -4.0746   -4.5886   -0.5375 H       1  LIG1        0.1086
     11 O          -2.6582    1.4118    0.7152 O.3     1  LIG1       -0.4930
     12 C          -1.3322    1.5320    1.2155 C.3     1  LIG1        0.0789
     13 H          -1.2123    2.5804    1.4900 H       1  LIG1        0.0660
     14 H          -1.1803    0.9058    2.1029 H       1  LIG1        0.0660
     15 H          -0.5862    1.2706    0.4545 H       1  LIG1        0.0660
     16 C          -6.7180    1.2274    0.4512 C.ar    1  LIG1        0.1042
     17 C          -5.3944    1.2188   -0.0474 C.ar    1  LIG1        0.0391
     18 C          -4.9524    2.4085   -0.6451 C.ar    1  LIG1       -0.0060
     19 C          -5.7559    3.5436   -0.6934 C.ar    1  LIG1        0.1467
     20 C          -7.0409    3.4821   -0.1004 C.ar    1  LIG1        0.1164
     21 N          -7.4692    2.3302    0.4257 N.ar    1  LIG1       -0.2363
     22 H          -3.9591    2.4320   -1.0704 H       1  LIG1        0.0662
     23 S          -7.5629   -0.1402    1.2322 S.3     1  LIG1       -0.1227
     24 H          -6.8001   -1.1024    0.6704 H       1  LIG1        0.1086
     25 O          -5.3795    4.7124   -1.2912 O.3     1  LIG1       -0.4929
     26 C          -4.1588    4.7387   -2.0172 C.3     1  LIG1        0.0789
     27 H          -4.0988    5.7326   -2.4621 H       1  LIG1        0.0660
     28 H          -3.2921    4.5836   -1.3619 H       1  LIG1        0.0660
     29 H          -4.1481    3.9845   -2.8137 H       1  LIG1        0.0660
     30 C          -9.3456    4.6063   -0.3152 C.ar    1  LIG1        0.1034
     31 C          -7.9551    4.6566   -0.0455 C.ar    1  LIG1        0.0390
     32 C          -7.4159    5.9080    0.3028 C.ar    1  LIG1       -0.0066
     33 C          -8.2249    7.0388    0.3367 C.ar    1  LIG1        0.1388
     34 C          -9.5743    6.8833   -0.0047 C.ar    1  LIG1        0.0705
     35 N         -10.1090    5.7085   -0.3103 N.ar    1  LIG1       -0.2447
     36 H          -6.3610    5.9742    0.5303 H       1  LIG1        0.0662
     37 H         -10.2280    7.7530   -0.0147 H       1  LIG1        0.0867
     38 S         -10.2829    3.1526   -0.7620 S.3     1  LIG1       -0.1228
     39 H          -9.4020    2.2612   -0.2579 H       1  LIG1        0.1086
     40 O          -7.8198    8.2996    0.6687 O.3     1  LIG1       -0.4936
     41 C          -6.4586    8.4868    1.0200 C.3     1  LIG1        0.0789
     42 H          -6.3490    9.5474    1.2503 H       1  LIG1        0.0660
     43 H          -6.1831    7.8957    1.9032 H       1  LIG1        0.0660
     44 H          -5.7866    8.2258    0.1919 H       1  LIG1        0.0660
@<TRIPOS>BOND
     1    29    26    1
     2    27    26    1
     3    26    28    1
     4    26    25    1
     5    25    19    1
     6    22    18    1
     7     9    10    1
     8     9     1    1
     9    38    30    1
    10    38    39    1
    11    19    18   ar
    12    19    20   ar
    13    18    17   ar
    14     1     6   ar
    15     1     2   ar
    16     6     5   ar
    17    30    35   ar
    18    30    31   ar
    19    35    34   ar
    20    20    31    1
    21    20    21   ar
    22    17     5    1
    23    17    16   ar
    24    31    32   ar
    25    37    34    1
    26     8     2    1
    27    34    33   ar
    28     5     4   ar
    29     2     3   ar
    30    44    41    1
    31    32    33   ar
    32    32    36    1
    33    33    40    1
    34     3     4   ar
    35     3     7    1
    36     4    11    1
    37    21    16   ar
    38    16    23    1
    39    15    12    1
    40    40    41    1
    41    24    23    1
    42    11    12    1
    43    41    42    1
    44    41    43    1
    45    12    13    1
    46    12    14    1
