@<TRIPOS>MOLECULE
mol_data/opt/b3lyp/geoms/mol2/6gl6gl6gl.out
 44 46 0 0 0
SMALL
GASTEIGER

@<TRIPOS>ATOM
      1 C          -4.0996   -1.9078   -1.4449 C.ar    1  LIG1        0.0949
      2 C          -2.8719   -2.1229   -0.8150 C.ar    1  LIG1       -0.0265
      3 C          -2.4315   -1.1720    0.1001 C.ar    1  LIG1       -0.0153
      4 C          -3.2017   -0.0320    0.3480 C.ar    1  LIG1        0.1461
      5 C          -4.4251    0.1207   -0.3536 C.ar    1  LIG1        0.1163
      6 N          -4.8371   -0.8226   -1.2122 N.ar    1  LIG1       -0.2370
      7 H          -1.4917   -1.3273    0.6162 H       1  LIG1        0.0656
      8 H          -2.2747   -3.0047   -1.0189 H       1  LIG1        0.0645
      9 S          -4.8252   -3.0350   -2.6309 S.3     1  LIG1       -0.1234
     10 H          -3.9066   -4.0118   -2.4962 H       1  LIG1        0.1086
     11 O          -2.8536    0.9397    1.2376 O.3     1  LIG1       -0.4930
     12 C          -1.7239    0.7210    2.0744 C.3     1  LIG1        0.0789
     13 H          -1.6863    1.5749    2.7512 H       1  LIG1        0.0660
     14 H          -1.8318   -0.2002    2.6594 H       1  LIG1        0.0660
     15 H          -0.7924    0.6775    1.4961 H       1  LIG1        0.0660
     16 C          -6.7011    1.2659    0.0044 C.ar    1  LIG1        0.1042
     17 C          -5.2982    1.3132   -0.1691 C.ar    1  LIG1        0.0391
     18 C          -4.7144    2.5881   -0.1568 C.ar    1  LIG1       -0.0060
     19 C          -5.4760    3.7360    0.0408 C.ar    1  LIG1        0.1467
     20 C          -6.8671    3.5876    0.2562 C.ar    1  LIG1        0.1164
     21 N          -7.4180    2.3698    0.2301 N.ar    1  LIG1       -0.2363
     22 H          -3.6443    2.6647   -0.2879 H       1  LIG1        0.0662
     23 S          -7.7118   -0.2077    0.0296 S.3     1  LIG1       -0.1227
     24 H          -6.8266   -0.9897   -0.6231 H       1  LIG1        0.1086
     25 O          -4.9550    4.9977    0.0620 O.3     1  LIG1       -0.4929
     26 C          -3.5446    5.1485   -0.0157 C.3     1  LIG1        0.0789
     27 H          -3.3540    6.2180    0.0810 H       1  LIG1        0.0660
     28 H          -3.0378    4.6151    0.7978 H       1  LIG1        0.0660
     29 H          -3.1500    4.7975   -0.9778 H       1  LIG1        0.0660
     30 C          -8.7377    4.8082    1.5286 C.ar    1  LIG1        0.1034
     31 C          -7.7630    4.7527    0.5035 C.ar    1  LIG1        0.0390
     32 C          -7.6463    5.8776   -0.3310 C.ar    1  LIG1       -0.0066
     33 C          -8.4414    6.9988   -0.1142 C.ar    1  LIG1        0.1388
     34 C          -9.3331    6.9652    0.9653 C.ar    1  LIG1        0.0705
     35 N          -9.4765    5.9038    1.7489 N.ar    1  LIG1       -0.2447
     36 H          -6.9202    5.8579   -1.1321 H       1  LIG1        0.0662
     37 H          -9.9494    7.8362    1.1780 H       1  LIG1        0.0867
     38 S          -9.0894    3.5126    2.7101 S.3     1  LIG1       -0.1228
     39 H          -8.6036    2.5042    1.9564 H       1  LIG1        0.1086
     40 O          -8.4261    8.1422   -0.8589 O.3     1  LIG1       -0.4936
     41 C          -7.5409    8.2003   -1.9662 C.3     1  LIG1        0.0789
     42 H          -7.6919    9.1796   -2.4223 H       1  LIG1        0.0660
     43 H          -6.4930    8.1058   -1.6527 H       1  LIG1        0.0660
     44 H          -7.7649    7.4198   -2.7048 H       1  LIG1        0.0660
@<TRIPOS>BOND
     1    44    41    1
     2     9    10    1
     3     9     1    1
     4    42    41    1
     5    41    43    1
     6    41    40    1
     7     1     6   ar
     8     1     2   ar
     9     6     5   ar
    10    36    32    1
    11     8     2    1
    12    29    26    1
    13    40    33    1
    14     2     3   ar
    15    24    23    1
    16     5    17    1
    17     5     4   ar
    18    32    33   ar
    19    32    31   ar
    20    22    18    1
    21    17    18   ar
    22    17    16   ar
    23    18    19   ar
    24    33    34   ar
    25    26    25    1
    26    26    27    1
    27    26    28    1
    28    16    23    1
    29    16    21   ar
    30    19    25    1
    31    19    20   ar
    32     3     4   ar
    33     3     7    1
    34    21    20   ar
    35    20    31    1
    36     4    11    1
    37    31    30   ar
    38    34    37    1
    39    34    35   ar
    40    11    12    1
    41    15    12    1
    42    30    35   ar
    43    30    38    1
    44    39    38    1
    45    12    14    1
    46    12    13    1
