@<TRIPOS>MOLECULE
mol_data/opt/b3lyp/geoms/mol2/6gl6gl.out
 30 31 0 0 0
SMALL
GASTEIGER

@<TRIPOS>ATOM
      1 C          -4.4368   -2.0445   -0.7385 C.ar    1  LIG1        0.0949
      2 C          -3.0655   -2.1325   -0.4922 C.ar    1  LIG1       -0.0265
      3 C          -2.4230   -1.0151    0.0324 C.ar    1  LIG1       -0.0153
      4 C          -3.1472    0.1552    0.2764 C.ar    1  LIG1        0.1461
      5 C          -4.5335    0.1663   -0.0241 C.ar    1  LIG1        0.1163
      6 N          -5.1316   -0.9309   -0.5079 N.ar    1  LIG1       -0.2370
      7 H          -1.3628   -1.0660    0.2498 H       1  LIG1        0.0656
      8 H          -2.5084   -3.0411   -0.6926 H       1  LIG1        0.0645
      9 S          -5.4225   -3.3880   -1.3937 S.3     1  LIG1       -0.1234
     10 H          -4.4464   -4.3171   -1.3780 H       1  LIG1        0.1086
     11 O          -2.6033    1.2894    0.8009 O.3     1  LIG1       -0.4930
     12 C          -1.2501    1.2534    1.2353 C.3     1  LIG1        0.0789
     13 H          -1.0529    2.2319    1.6742 H       1  LIG1        0.0660
     14 H          -1.0928    0.4778    1.9947 H       1  LIG1        0.0660
     15 H          -0.5591    1.0872    0.3990 H       1  LIG1        0.0660
     16 C          -6.6402    1.3792    0.8135 C.ar    1  LIG1        0.1034
     17 C          -5.3746    1.3802    0.1803 C.ar    1  LIG1        0.0390
     18 C          -4.8934    2.6146   -0.2891 C.ar    1  LIG1       -0.0066
     19 C          -5.6326    3.7772   -0.0939 C.ar    1  LIG1        0.1388
     20 C          -6.8480    3.6671    0.5941 C.ar    1  LIG1        0.0705
     21 N          -7.3312    2.5080    1.0221 N.ar    1  LIG1       -0.2447
     22 H          -3.9357    2.6432   -0.7908 H       1  LIG1        0.0662
     23 H          -7.4376    4.5610    0.7855 H       1  LIG1        0.0867
     24 S          -7.4765   -0.0497    1.4907 S.3     1  LIG1       -0.1228
     25 H          -6.8284   -0.9633    0.7393 H       1  LIG1        0.1086
     26 O          -5.2769    5.0270   -0.5083 O.3     1  LIG1       -0.4936
     27 C          -4.0511    5.1710   -1.2084 C.3     1  LIG1        0.0789
     28 H          -3.9623    6.2318   -1.4462 H       1  LIG1        0.0660
     29 H          -3.1949    4.8660   -0.5927 H       1  LIG1        0.0660
     30 H          -4.0466    4.5910   -2.1405 H       1  LIG1        0.0660
@<TRIPOS>BOND
     1    30    27    1
     2    28    27    1
     3     9    10    1
     4     9     1    1
     5    27    29    1
     6    27    26    1
     7    22    18    1
     8     1     6   ar
     9     1     2   ar
    10     8     2    1
    11    26    19    1
    12     6     5   ar
    13     2     3   ar
    14    18    19   ar
    15    18    17   ar
    16    19    20   ar
    17     5    17    1
    18     5     4   ar
    19     3     7    1
    20     3     4   ar
    21    17    16   ar
    22     4    11    1
    23    15    12    1
    24    20    23    1
    25    20    21   ar
    26    25    24    1
    27    11    12    1
    28    16    21   ar
    29    16    24    1
    30    12    13    1
    31    12    14    1
