@<TRIPOS>MOLECULE
mol_data/opt/b3lyp/geoms/mol2/6gl6gl-6gl-6gl-.out
 58 61 0 0 0
SMALL
GASTEIGER

@<TRIPOS>ATOM
      1 C          -4.0699   -2.3133   -0.2916 C.ar    1  LIG1        0.0949
      2 C          -2.6836   -2.2021   -0.4195 C.ar    1  LIG1       -0.0265
      3 C          -2.1330   -0.9264   -0.4853 C.ar    1  LIG1       -0.0153
      4 C          -2.9610    0.1969   -0.4015 C.ar    1  LIG1        0.1461
      5 C          -4.3566   -0.0044   -0.2486 C.ar    1  LIG1        0.1163
      6 N          -4.8625   -1.2452   -0.2109 N.ar    1  LIG1       -0.2370
      7 H          -1.0618   -0.8166   -0.6033 H       1  LIG1        0.0656
      8 H          -2.0457   -3.0773   -0.4739 H       1  LIG1        0.0645
      9 S          -4.9445   -3.8719   -0.2086 S.3     1  LIG1       -0.1234
     10 H          -3.8782   -4.6595   -0.4501 H       1  LIG1        0.1086
     11 O          -2.5079    1.4804   -0.4715 O.3     1  LIG1       -0.4930
     12 C          -1.1340    1.6996   -0.7696 C.3     1  LIG1        0.0789
     13 H          -1.0153    2.7809   -0.8442 H       1  LIG1        0.0660
     14 H          -0.4806    1.3189    0.0252 H       1  LIG1        0.0660
     15 H          -0.8524    1.2381   -1.7237 H       1  LIG1        0.0660
     16 C          -6.5588    1.2137   -0.7855 C.ar    1  LIG1        0.1042
     17 C          -5.3111    1.1319   -0.1239 C.ar    1  LIG1        0.0391
     18 C          -4.9902    2.2035    0.7217 C.ar    1  LIG1       -0.0060
     19 C          -5.8287    3.3062    0.8563 C.ar    1  LIG1        0.1467
     20 C          -7.0215    3.3392    0.0920 C.ar    1  LIG1        0.1164
     21 N          -7.3397    2.2899   -0.6741 N.ar    1  LIG1       -0.2363
     22 H          -4.0618    2.1624    1.2736 H       1  LIG1        0.0662
     23 S          -7.2527   -0.0088   -1.8882 S.3     1  LIG1       -0.1227
     24 H          -6.5459   -1.0465   -1.3907 H       1  LIG1        0.1086
     25 O          -5.5693    4.3528    1.6942 O.3     1  LIG1       -0.4929
     26 C          -4.4813    4.2408    2.6026 C.3     1  LIG1        0.0789
     27 H          -4.5219    5.1346    3.2261 H       1  LIG1        0.0660
     28 H          -4.5791    3.3517    3.2371 H       1  LIG1        0.0660
     29 H          -3.5166    4.2085    2.0806 H       1  LIG1        0.0660
     30 C          -9.3730    4.3908    0.1196 C.ar    1  LIG1        0.1042
     31 C          -7.9597    4.4938    0.1116 C.ar    1  LIG1        0.0391
     32 C          -7.4360    5.7956    0.1273 C.ar    1  LIG1       -0.0060
     33 C          -8.2598    6.9151    0.1761 C.ar    1  LIG1        0.1467
     34 C          -9.6601    6.7150    0.2300 C.ar    1  LIG1        0.1164
     35 N         -10.1529    5.4727    0.2010 N.ar    1  LIG1       -0.2363
     36 H          -6.3626    5.9161    0.1178 H       1  LIG1        0.0662
     37 S         -10.3261    2.8822    0.0949 S.3     1  LIG1       -0.1227
     38 H          -9.3230    2.1058   -0.3739 H       1  LIG1        0.1086
     39 O          -7.7921    8.1991    0.1970 O.3     1  LIG1       -0.4929
     40 C          -6.3903    8.4057    0.2890 C.3     1  LIG1        0.0789
     41 H          -6.2525    9.4852    0.3620 H       1  LIG1        0.0660
     42 H          -5.9702    7.9253    1.1813 H       1  LIG1        0.0660
     43 H          -5.8644    8.0345   -0.6002 H       1  LIG1        0.0660
     44 C         -11.7423    7.8927    1.1763 C.ar    1  LIG1        0.1034
     45 C         -10.6265    7.8470    0.3050 C.ar    1  LIG1        0.0390
     46 C         -10.4339    8.9503   -0.5447 C.ar    1  LIG1       -0.0066
     47 C         -11.2922   10.0436   -0.4843 C.ar    1  LIG1        0.1388
     48 C         -12.3280   10.0065    0.4572 C.ar    1  LIG1        0.0705
     49 N         -12.5444    8.9637    1.2489 N.ar    1  LIG1       -0.2447
     50 H          -9.6005    8.9368   -1.2333 H       1  LIG1        0.0662
     51 H         -12.9997   10.8574    0.5489 H       1  LIG1        0.0867
     52 S         -12.2187    6.6193    2.3372 S.3     1  LIG1       -0.1228
     53 H         -11.5868    5.6118    1.6982 H       1  LIG1        0.1086
     54 O         -11.2114   11.1638   -1.2606 O.3     1  LIG1       -0.4936
     55 C         -10.1750   11.2263   -2.2272 C.3     1  LIG1        0.0789
     56 H         -10.2916   12.1856   -2.7333 H       1  LIG1        0.0660
     57 H          -9.1821   11.1824   -1.7606 H       1  LIG1        0.0660
     58 H         -10.2590   10.4171   -2.9644 H       1  LIG1        0.0660
@<TRIPOS>BOND
     1    58    55    1
     2    56    55    1
     3    55    57    1
     4    55    54    1
     5    23    24    1
     6    23    16    1
     7    15    12    1
     8    54    47    1
     9    50    46    1
    10    13    12    1
    11    16    21   ar
    12    16    17   ar
    13    12    11    1
    14    12    14    1
    15    21    20   ar
    16     7     3    1
    17    43    40    1
    18    46    47   ar
    19    46    45   ar
    20     3     2   ar
    21     3     4   ar
    22    47    48   ar
    23     8     2    1
    24    11     4    1
    25    10     9    1
    26     2     1   ar
    27     4     5   ar
    28    38    37    1
    29     1     6   ar
    30     1     9    1
    31     5     6   ar
    32     5    17    1
    33    17    18   ar
    34    20    31    1
    35    20    19   ar
    36    37    30    1
    37    31    30   ar
    38    31    32   ar
    39    36    32    1
    40    30    35   ar
    41    32    33   ar
    42    33    39    1
    43    33    34   ar
    44    39    40    1
    45    35    34   ar
    46    34    45    1
    47    40    41    1
    48    40    42    1
    49    45    44   ar
    50    48    51    1
    51    48    49   ar
    52    18    19   ar
    53    18    22    1
    54    19    25    1
    55    44    49   ar
    56    44    52    1
    57    25    26    1
    58    53    52    1
    59    29    26    1
    60    26    27    1
    61    26    28    1
