@<TRIPOS>MOLECULE
mol_data/opt/b3lyp/geoms/mol2/6gl6gl-6gl.out
 44 46 0 0 0
SMALL
GASTEIGER

@<TRIPOS>ATOM
      1 C          -4.2169   -2.2430    0.3163 C.ar    1  LIG1        0.0949
      2 C          -2.8547   -2.1977    0.0124 C.ar    1  LIG1       -0.0265
      3 C          -2.3022   -0.9676   -0.3295 C.ar    1  LIG1       -0.0153
      4 C          -3.1021    0.1788   -0.3401 C.ar    1  LIG1        0.1461
      5 C          -4.4721    0.0491    0.0049 C.ar    1  LIG1        0.1163
      6 N          -4.9827   -1.1527    0.3084 N.ar    1  LIG1       -0.2370
      7 H          -1.2517   -0.9117   -0.5885 H       1  LIG1        0.0656
      8 H          -2.2375   -3.0891    0.0322 H       1  LIG1        0.0645
      9 S          -5.0932   -3.7394    0.7596 S.3     1  LIG1       -0.1234
     10 H          -4.0744   -4.5896    0.5249 H       1  LIG1        0.1086
     11 O          -2.6460    1.4181   -0.6779 O.3     1  LIG1       -0.4930
     12 C          -1.3131    1.5419   -1.1585 C.3     1  LIG1        0.0789
     13 H          -1.1904    2.5916   -1.4266 H       1  LIG1        0.0660
     14 H          -0.5778    1.2778   -0.3881 H       1  LIG1        0.0660
     15 H          -1.1478    0.9198   -2.0464 H       1  LIG1        0.0660
     16 C          -6.7091    1.2281   -0.4718 C.ar    1  LIG1        0.1042
     17 C          -5.3926    1.2189    0.0452 C.ar    1  LIG1        0.0391
     18 C          -4.9606    2.4064    0.6545 C.ar    1  LIG1       -0.0060
     19 C          -5.7661    3.5403    0.6968 C.ar    1  LIG1        0.1467
     20 C          -7.0429    3.4798    0.0860 C.ar    1  LIG1        0.1164
     21 N          -7.4622    2.3298   -0.4514 N.ar    1  LIG1       -0.2363
     22 H          -3.9734    2.4292    1.0937 H       1  LIG1        0.0662
     23 S          -7.5409   -0.1365   -1.2713 S.3     1  LIG1       -0.1227
     24 H          -6.7856   -1.1007   -0.7029 H       1  LIG1        0.1086
     25 O          -5.3997    4.7067    1.3050 O.3     1  LIG1       -0.4929
     26 C          -4.1888    4.7315    2.0475 C.3     1  LIG1        0.0789
     27 H          -4.1362    5.7236    2.4974 H       1  LIG1        0.0660
     28 H          -4.1879    3.9738    2.8408 H       1  LIG1        0.0660
     29 H          -3.3132    4.5803    1.4032 H       1  LIG1        0.0660
     30 C          -9.3520    4.5996    0.2744 C.ar    1  LIG1        0.1034
     31 C          -7.9580    4.6532    0.0242 C.ar    1  LIG1        0.0390
     32 C          -7.4160    5.9071   -0.3105 C.ar    1  LIG1       -0.0066
     33 C          -8.2260    7.0369   -0.3501 C.ar    1  LIG1        0.1388
     34 C          -9.5798    6.8778   -0.0279 C.ar    1  LIG1        0.0705
     35 N         -10.1169    5.7008    0.2645 N.ar    1  LIG1       -0.2447
     36 H          -6.3581    5.9759   -0.5233 H       1  LIG1        0.0662
     37 H         -10.2349    7.7465   -0.0226 H       1  LIG1        0.0867
     38 S         -10.2932    3.1424    0.7012 S.3     1  LIG1       -0.1228
     39 H          -9.4043    2.2548    0.2046 H       1  LIG1        0.1086
     40 O          -7.8184    8.2999   -0.6703 O.3     1  LIG1       -0.4936
     41 C          -6.4527    8.4908   -1.0019 C.3     1  LIG1        0.0789
     42 H          -6.3416    9.5527   -1.2255 H       1  LIG1        0.0660
     43 H          -5.7918    8.2266   -0.1660 H       1  LIG1        0.0660
     44 H          -6.1644    7.9045   -1.8843 H       1  LIG1        0.0660
@<TRIPOS>BOND
     1    15    12    1
     2    44    41    1
     3    13    12    1
     4    23    24    1
     5    23    16    1
     6    42    41    1
     7    12    11    1
     8    12    14    1
     9    41    40    1
    10    41    43    1
    11    11     4    1
    12    40    33    1
    13     7     3    1
    14    36    32    1
    15    16    21   ar
    16    16    17   ar
    17    21    20   ar
    18    33    32   ar
    19    33    34   ar
    20     4     3   ar
    21     4     5   ar
    22     3     2   ar
    23    32    31   ar
    24    34    37    1
    25    34    35   ar
    26     5    17    1
    27     5     6   ar
    28     2     8    1
    29     2     1   ar
    30    31    20    1
    31    31    30   ar
    32    17    18   ar
    33    20    19   ar
    34    39    38    1
    35    35    30   ar
    36    30    38    1
    37     6     1   ar
    38     1     9    1
    39    10     9    1
    40    18    19   ar
    41    18    22    1
    42    19    25    1
    43    25    26    1
    44    29    26    1
    45    26    27    1
    46    26    28    1
