@<TRIPOS>MOLECULE
mol_data/opt/b3lyp/geoms/mol2/6gl6gl6gl-6gl-.out
 58 61 0 0 0
SMALL
GASTEIGER

@<TRIPOS>ATOM
      1 C          -3.9556   -2.2438   -0.6743 C.ar    1  LIG1        0.0949
      2 C          -2.6257   -2.1812   -0.2521 C.ar    1  LIG1       -0.0265
      3 C          -2.1584   -0.9758    0.2614 C.ar    1  LIG1       -0.0153
      4 C          -3.0076    0.1330    0.3228 C.ar    1  LIG1        0.1461
      5 C          -4.3380   -0.0100   -0.1473 C.ar    1  LIG1        0.1163
      6 N          -4.7684   -1.1894   -0.6168 N.ar    1  LIG1       -0.2370
      7 H          -1.1357   -0.9093    0.6127 H       1  LIG1        0.0656
      8 H          -1.9694   -3.0424   -0.3112 H       1  LIG1        0.0645
      9 S          -4.7237   -3.7146   -1.3436 S.3     1  LIG1       -0.1234
     10 H          -3.6842   -4.5436   -1.1245 H       1  LIG1        0.1086
     11 O          -2.6369    1.3458    0.8220 O.3     1  LIG1       -0.4930
     12 C          -1.3609    1.4632    1.4405 C.3     1  LIG1        0.0789
     13 H          -1.3109    2.4815    1.8270 H       1  LIG1        0.0660
     14 H          -1.2519    0.7551    2.2708 H       1  LIG1        0.0660
     15 H          -0.5458    1.3095    0.7224 H       1  LIG1        0.0660
     16 C          -6.6548    1.0269    0.2718 C.ar    1  LIG1        0.1042
     17 C          -5.3050    1.1226   -0.1403 C.ar    1  LIG1        0.0391
     18 C          -4.8839    2.3832   -0.5876 C.ar    1  LIG1       -0.0060
     19 C          -5.7338    3.4852   -0.5729 C.ar    1  LIG1        0.1467
     20 C          -7.0467    3.3140   -0.0687 C.ar    1  LIG1        0.1164
     21 N          -7.4509    2.0968    0.3110 N.ar    1  LIG1       -0.2363
     22 H          -3.8693    2.4898   -0.9447 H       1  LIG1        0.0662
     23 S          -7.4788   -0.4472    0.8542 S.3     1  LIG1       -0.1227
     24 H          -6.6491   -1.3119    0.2312 H       1  LIG1        0.1086
     25 O          -5.3748    4.7216   -1.0290 O.3     1  LIG1       -0.4929
     26 C          -4.1285    4.8605   -1.6985 C.3     1  LIG1        0.0789
     27 H          -4.0926    5.8928   -2.0488 H       1  LIG1        0.0660
     28 H          -3.2816    4.6788   -1.0247 H       1  LIG1        0.0660
     29 H          -4.0576    4.1834   -2.5583 H       1  LIG1        0.0660
     30 C          -9.3999    4.3463   -0.2395 C.ar    1  LIG1        0.1042
     31 C          -8.0160    4.4361    0.0489 C.ar    1  LIG1        0.0391
     32 C          -7.5611    5.6862    0.4969 C.ar    1  LIG1       -0.0060
     33 C          -8.4113    6.7825    0.5953 C.ar    1  LIG1        0.1467
     34 C          -9.7639    6.6207    0.2067 C.ar    1  LIG1        0.1164
     35 N         -10.1982    5.4146   -0.1722 N.ar    1  LIG1       -0.2363
     36 H          -6.5194    5.7875    0.7652 H       1  LIG1        0.0662
     37 S         -10.2788    2.8900   -0.7803 S.3     1  LIG1       -0.1227
     38 H          -9.3624    2.0116   -0.3122 H       1  LIG1        0.1086
     39 O          -8.0158    8.0065    1.0577 O.3     1  LIG1       -0.4929
     40 C          -6.7070    8.1351    1.5935 C.3     1  LIG1        0.0789
     41 H          -6.6368    9.1580    1.9656 H       1  LIG1        0.0660
     42 H          -6.5411    7.4362    2.4227 H       1  LIG1        0.0660
     43 H          -5.9358    7.9754    0.8288 H       1  LIG1        0.0660
     44 C         -12.0806    7.6465    0.6646 C.ar    1  LIG1        0.1034
     45 C         -10.7409    7.7448    0.2106 C.ar    1  LIG1        0.0390
     46 C         -10.3212    8.9972   -0.2735 C.ar    1  LIG1       -0.0066
     47 C         -11.1871   10.0852   -0.2589 C.ar    1  LIG1        0.1388
     48 C         -12.4704    9.8881    0.2659 C.ar    1  LIG1        0.0705
     49 N         -12.8966    8.7100    0.7016 N.ar    1  LIG1       -0.2447
     50 H          -9.3105    9.0990   -0.6435 H       1  LIG1        0.0662
     51 H         -13.1632   10.7255    0.3165 H       1  LIG1        0.0867
     52 S         -12.8735    6.1809    1.3074 S.3     1  LIG1       -0.1228
     53 H         -12.0129    5.3046    0.7432 H       1  LIG1        0.1086
     54 O         -10.8962   11.3422   -0.7067 O.3     1  LIG1       -0.4936
     55 C          -9.6005   11.5729   -1.2348 C.3     1  LIG1        0.0789
     56 H          -9.5756   12.6239   -1.5262 H       1  LIG1        0.0660
     57 H          -8.8187   11.3869   -0.4866 H       1  LIG1        0.0660
     58 H          -9.4051   10.9498   -2.1174 H       1  LIG1        0.0660
@<TRIPOS>BOND
     1    29    26    1
     2    58    55    1
     3    27    26    1
     4    26    25    1
     5    26    28    1
     6    56    55    1
     7     9    10    1
     8     9     1    1
     9    55    54    1
    10    55    57    1
    11    25    19    1
    12    22    18    1
    13    37    38    1
    14    37    30    1
    15    54    47    1
    16     1     6   ar
    17     1     2   ar
    18    50    46    1
    19     6     5   ar
    20    18    19   ar
    21    18    17   ar
    22    19    20   ar
    23     8     2    1
    24    46    47   ar
    25    46    45   ar
    26    47    48   ar
    27     2     3   ar
    28    30    35   ar
    29    30    31   ar
    30    35    34   ar
    31     5    17    1
    32     5     4   ar
    33    17    16   ar
    34    20    31    1
    35    20    21   ar
    36    31    32   ar
    37    34    45    1
    38    34    33   ar
    39    45    44   ar
    40    24    23    1
    41     3     4   ar
    42     3     7    1
    43    48    51    1
    44    48    49   ar
    45    16    21   ar
    46    16    23    1
    47     4    11    1
    48    32    33   ar
    49    32    36    1
    50    33    39    1
    51    44    49   ar
    52    44    52    1
    53    15    12    1
    54    53    52    1
    55    11    12    1
    56    43    40    1
    57    39    40    1
    58    12    13    1
    59    12    14    1
    60    40    41    1
    61    40    42    1
