@<TRIPOS>MOLECULE
mol_data/opt/b3lyp/geoms/mol2/6gl6gl-6gl-.out
 44 46 0 0 0
SMALL
GASTEIGER

@<TRIPOS>ATOM
      1 C          -4.2124   -2.2421    0.3201 C.ar    1  LIG1        0.0949
      2 C          -2.8477   -2.1940    0.0281 C.ar    1  LIG1       -0.0265
      3 C          -2.2942   -0.9621   -0.3061 C.ar    1  LIG1       -0.0153
      4 C          -3.0958    0.1830   -0.3208 C.ar    1  LIG1        0.1461
      5 C          -4.4685    0.0504    0.0120 C.ar    1  LIG1        0.1163
      6 N          -4.9798   -1.1530    0.3082 N.ar    1  LIG1       -0.2370
      7 H          -1.2416   -0.9039   -0.5558 H       1  LIG1        0.0656
      8 H          -2.2292   -3.0843    0.0510 H       1  LIG1        0.0645
      9 S          -5.0901   -3.7407    0.7521 S.3     1  LIG1       -0.1234
     10 H          -4.0679   -4.5889    0.5249 H       1  LIG1        0.1086
     11 O          -2.6387    1.4239   -0.6517 O.3     1  LIG1       -0.4930
     12 C          -1.3026    1.5506   -1.1226 C.3     1  LIG1        0.0789
     13 H          -1.1796    2.6010   -1.3878 H       1  LIG1        0.0660
     14 H          -0.5724    1.2863   -0.3475 H       1  LIG1        0.0660
     15 H          -1.1301    0.9305   -2.0105 H       1  LIG1        0.0660
     16 C          -6.7032    1.2270   -0.4812 C.ar    1  LIG1        0.1042
     17 C          -5.3912    1.2187    0.0472 C.ar    1  LIG1        0.0391
     18 C          -4.9662    2.4055    0.6626 C.ar    1  LIG1       -0.0060
     19 C          -5.7736    3.5381    0.7002 C.ar    1  LIG1        0.1467
     20 C          -7.0448    3.4772    0.0779 C.ar    1  LIG1        0.1164
     21 N          -7.4578    2.3277   -0.4653 N.ar    1  LIG1       -0.2363
     22 H          -3.9828    2.4288    1.1105 H       1  LIG1        0.0662
     23 S          -7.5265   -0.1374   -1.2901 S.3     1  LIG1       -0.1227
     24 H          -6.7736   -1.1014   -0.7180 H       1  LIG1        0.1086
     25 O          -5.4144    4.7037    1.3143 O.3     1  LIG1       -0.4929
     26 C          -4.2096    4.7289    2.0666 C.3     1  LIG1        0.0789
     27 H          -4.1621    5.7202    2.5189 H       1  LIG1        0.0660
     28 H          -4.2138    3.9697    2.8584 H       1  LIG1        0.0660
     29 H          -3.3286    4.5803    1.4291 H       1  LIG1        0.0660
     30 C          -9.3569    4.5940    0.2476 C.ar    1  LIG1        0.1034
     31 C          -7.9607    4.6496    0.0102 C.ar    1  LIG1        0.0390
     32 C          -7.4171    5.9048   -0.3174 C.ar    1  LIG1       -0.0066
     33 C          -8.2280    7.0338   -0.3622 C.ar    1  LIG1        0.1388
     34 C          -9.5845    6.8725   -0.0528 C.ar    1  LIG1        0.0705
     35 N         -10.1229    5.6943    0.2327 N.ar    1  LIG1       -0.2447
     36 H          -6.3574    5.9751   -0.5204 H       1  LIG1        0.0662
     37 H         -10.2406    7.7404   -0.0519 H       1  LIG1        0.0867
     38 S         -10.3003    3.1351    0.6631 S.3     1  LIG1       -0.1228
     39 H          -9.4057    2.2493    0.1733 H       1  LIG1        0.1086
     40 O          -7.8189    8.2977   -0.6764 O.3     1  LIG1       -0.4936
     41 C          -6.4505    8.4907   -0.9953 C.3     1  LIG1        0.0789
     42 H          -6.3386    9.5532   -1.2160 H       1  LIG1        0.0660
     43 H          -5.7968    8.2258   -0.1540 H       1  LIG1        0.0660
     44 H          -6.1535    7.9063   -1.8761 H       1  LIG1        0.0660
@<TRIPOS>BOND
     1    15    12    1
     2    44    41    1
     3    13    12    1
     4    23    24    1
     5    23    16    1
     6    42    41    1
     7    12    11    1
     8    12    14    1
     9    41    40    1
    10    41    43    1
    11    40    33    1
    12    11     4    1
    13     7     3    1
    14    36    32    1
    15    16    21   ar
    16    16    17   ar
    17    21    20   ar
    18    33    32   ar
    19    33    34   ar
    20     4     3   ar
    21     4     5   ar
    22    32    31   ar
    23     3     2   ar
    24    34    37    1
    25    34    35   ar
    26    31    20    1
    27    31    30   ar
    28     5    17    1
    29     5     6   ar
    30     2     8    1
    31     2     1   ar
    32    17    18   ar
    33    20    19   ar
    34    39    38    1
    35    35    30   ar
    36    30    38    1
    37     6     1   ar
    38     1     9    1
    39    10     9    1
    40    18    19   ar
    41    18    22    1
    42    19    25    1
    43    25    26    1
    44    29    26    1
    45    26    27    1
    46    26    28    1
