@<TRIPOS>MOLECULE
mol_data/opt/b3lyp/geoms/mol2/6gl6gl6gl-6gl.out
 58 61 0 0 0
SMALL
GASTEIGER

@<TRIPOS>ATOM
      1 C          -3.9666   -2.2483   -0.6796 C.ar    1  LIG1        0.0949
      2 C          -2.6324   -2.1847   -0.2710 C.ar    1  LIG1       -0.0265
      3 C          -2.1593   -0.9776    0.2329 C.ar    1  LIG1       -0.0153
      4 C          -3.0073    0.1319    0.2984 C.ar    1  LIG1        0.1461
      5 C          -4.3423   -0.0122   -0.1577 C.ar    1  LIG1        0.1163
      6 N          -4.7781   -1.1932   -0.6182 N.ar    1  LIG1       -0.2370
      7 H          -1.1331   -0.9104    0.5736 H       1  LIG1        0.0656
      8 H          -1.9772   -3.0465   -0.3334 H       1  LIG1        0.0645
      9 S          -4.7421   -3.7212   -1.3353 S.3     1  LIG1       -0.1234
     10 H          -3.7014   -4.5503   -1.1222 H       1  LIG1        0.1086
     11 O          -2.6310    1.3465    0.7892 O.3     1  LIG1       -0.4930
     12 C          -1.3489    1.4656    1.3945 C.3     1  LIG1        0.0789
     13 H          -1.2945    2.4854    1.7764 H       1  LIG1        0.0660
     14 H          -1.2319    0.7608    2.2264 H       1  LIG1        0.0660
     15 H          -0.5410    1.3087    0.6688 H       1  LIG1        0.0660
     16 C          -6.6542    1.0278    0.2805 C.ar    1  LIG1        0.1042
     17 C          -5.3086    1.1210   -0.1455 C.ar    1  LIG1        0.0391
     18 C          -4.8912    2.3796   -0.6018 C.ar    1  LIG1       -0.0060
     19 C          -5.7403    3.4822   -0.5830 C.ar    1  LIG1        0.1467
     20 C          -7.0481    3.3138   -0.0650 C.ar    1  LIG1        0.1164
     21 N          -7.4492    2.0983    0.3235 N.ar    1  LIG1       -0.2363
     22 H          -3.8802    2.4841   -0.9695 H       1  LIG1        0.0662
     23 S          -7.4733   -0.4437    0.8767 S.3     1  LIG1       -0.1227
     24 H          -6.6501   -1.3113    0.2492 H       1  LIG1        0.1086
     25 O          -5.3852    4.7166   -1.0475 O.3     1  LIG1       -0.4929
     26 C          -4.1452    4.8524   -1.7291 C.3     1  LIG1        0.0789
     27 H          -4.1121    5.8833   -2.0835 H       1  LIG1        0.0660
     28 H          -3.2922    4.6726   -1.0625 H       1  LIG1        0.0660
     29 H          -4.0825    4.1721   -2.5871 H       1  LIG1        0.0660
     30 C          -9.4024    4.3470   -0.2161 C.ar    1  LIG1        0.1042
     31 C          -8.0155    4.4370    0.0580 C.ar    1  LIG1        0.0391
     32 C          -7.5552    5.6885    0.4965 C.ar    1  LIG1       -0.0060
     33 C          -8.4036    6.7858    0.5991 C.ar    1  LIG1        0.1467
     34 C          -9.7602    6.6234    0.2248 C.ar    1  LIG1        0.1164
     35 N         -10.1992    5.4162   -0.1450 N.ar    1  LIG1       -0.2363
     36 H          -6.5107    5.7901    0.7537 H       1  LIG1        0.0662
     37 S         -10.2876    2.8893   -0.7421 S.3     1  LIG1       -0.1227
     38 H          -9.3670    2.0121   -0.2802 H       1  LIG1        0.1086
     39 O          -8.0027    8.0114    1.0525 O.3     1  LIG1       -0.4929
     40 C          -6.6887    8.1410    1.5753 C.3     1  LIG1        0.0789
     41 H          -6.6142    9.1653    1.9428 H       1  LIG1        0.0660
     42 H          -6.5154    7.4452    2.4055 H       1  LIG1        0.0660
     43 H          -5.9250    7.9779    0.8039 H       1  LIG1        0.0660
     44 C         -12.0713    7.6527    0.7025 C.ar    1  LIG1        0.1034
     45 C         -10.7363    7.7483    0.2342 C.ar    1  LIG1        0.0390
     46 C         -10.3209    8.9984   -0.2594 C.ar    1  LIG1       -0.0066
     47 C         -11.1860   10.0869   -0.2405 C.ar    1  LIG1        0.1388
     48 C         -12.4639    9.8927    0.2983 C.ar    1  LIG1        0.0705
     49 N         -12.8863    8.7168    0.7433 N.ar    1  LIG1       -0.2447
     50 H          -9.3140    9.0979   -0.6402 H       1  LIG1        0.0662
     51 H         -13.1557   10.7308    0.3524 H       1  LIG1        0.0867
     52 S         -12.8580    6.1902    1.3599 S.3     1  LIG1       -0.1228
     53 H         -12.0044    5.3110    0.7897 H       1  LIG1        0.1086
     54 O         -10.8990   11.3419   -0.6964 O.3     1  LIG1       -0.4936
     55 C          -9.6088   11.5696   -1.2389 C.3     1  LIG1        0.0789
     56 H          -9.5863   12.6193   -1.5351 H       1  LIG1        0.0660
     57 H          -8.8193   11.3862   -0.4982 H       1  LIG1        0.0660
     58 H          -9.4229   10.9426   -2.1209 H       1  LIG1        0.0660
@<TRIPOS>BOND
     1    29    26    1
     2    58    55    1
     3    27    26    1
     4    26    28    1
     5    26    25    1
     6    56    55    1
     7     9    10    1
     8     9     1    1
     9    55    54    1
    10    55    57    1
    11    25    19    1
    12    22    18    1
    13    37    38    1
    14    37    30    1
    15    54    47    1
    16     1     6   ar
    17     1     2   ar
    18    50    46    1
    19     6     5   ar
    20    18    19   ar
    21    18    17   ar
    22    19    20   ar
    23     8     2    1
    24     2     3   ar
    25    46    47   ar
    26    46    45   ar
    27    47    48   ar
    28    30    35   ar
    29    30    31   ar
    30     5    17    1
    31     5     4   ar
    32    17    16   ar
    33    35    34   ar
    34    20    31    1
    35    20    21   ar
    36    31    32   ar
    37    34    45    1
    38    34    33   ar
    39     3     4   ar
    40     3     7    1
    41    45    44   ar
    42    24    23    1
    43    16    21   ar
    44    16    23    1
    45    48    51    1
    46    48    49   ar
    47     4    11    1
    48    32    33   ar
    49    32    36    1
    50    33    39    1
    51    15    12    1
    52    44    49   ar
    53    44    52    1
    54    11    12    1
    55    53    52    1
    56    43    40    1
    57    39    40    1
    58    12    13    1
    59    12    14    1
    60    40    41    1
    61    40    42    1
