@<TRIPOS>MOLECULE
mol_data/opt/b3lyp/geoms/mol2/6gl6gl-6gl-6gl.out
 58 61 0 0 0
SMALL
GASTEIGER

@<TRIPOS>ATOM
      1 C          -4.0628   -2.3107   -0.2894 C.ar    1  LIG1        0.0949
      2 C          -2.6767   -2.1981   -0.4187 C.ar    1  LIG1       -0.0265
      3 C          -2.1277   -0.9218   -0.4864 C.ar    1  LIG1       -0.0153
      4 C          -2.9569    0.2006   -0.4031 C.ar    1  LIG1        0.1461
      5 C          -4.3522   -0.0022   -0.2486 C.ar    1  LIG1        0.1163
      6 N          -4.8566   -1.2435   -0.2092 N.ar    1  LIG1       -0.2370
      7 H          -1.0567   -0.8109   -0.6055 H       1  LIG1        0.0656
      8 H          -2.0379   -3.0726   -0.4726 H       1  LIG1        0.0645
      9 S          -4.9355   -3.8703   -0.2038 S.3     1  LIG1       -0.1234
     10 H          -3.8686   -4.6569   -0.4465 H       1  LIG1        0.1086
     11 O          -2.5054    1.4846   -0.4750 O.3     1  LIG1       -0.4930
     12 C          -1.1320    1.7050   -0.7738 C.3     1  LIG1        0.0789
     13 H          -1.0144    2.7863   -0.8494 H       1  LIG1        0.0660
     14 H          -0.4778    1.3257    0.0211 H       1  LIG1        0.0660
     15 H          -0.8501    1.2430   -1.7276 H       1  LIG1        0.0660
     16 C          -6.5560    1.2131   -0.7852 C.ar    1  LIG1        0.1042
     17 C          -5.3079    1.1332   -0.1243 C.ar    1  LIG1        0.0391
     18 C          -4.9875    2.2059    0.7200 C.ar    1  LIG1       -0.0060
     19 C          -5.8270    3.3079    0.8539 C.ar    1  LIG1        0.1467
     20 C          -7.0203    3.3390    0.0904 C.ar    1  LIG1        0.1164
     21 N          -7.3379    2.2885   -0.6744 N.ar    1  LIG1       -0.2363
     22 H          -4.0587    2.1664    1.2713 H       1  LIG1        0.0662
     23 S          -7.2496   -0.0113   -1.8860 S.3     1  LIG1       -0.1227
     24 H          -6.5409   -1.0477   -1.3885 H       1  LIG1        0.1086
     25 O          -5.5681    4.3556    1.6907 O.3     1  LIG1       -0.4929
     26 C          -4.4799    4.2452    2.5990 C.3     1  LIG1        0.0789
     27 H          -4.5212    5.1395    3.2219 H       1  LIG1        0.0660
     28 H          -4.5769    3.3565    3.2342 H       1  LIG1        0.0660
     29 H          -3.5152    4.2134    2.0770 H       1  LIG1        0.0660
     30 C          -9.3730    4.3882    0.1183 C.ar    1  LIG1        0.1042
     31 C          -7.9597    4.4927    0.1093 C.ar    1  LIG1        0.0391
     32 C          -7.4374    5.7951    0.1234 C.ar    1  LIG1       -0.0060
     33 C          -8.2623    6.9138    0.1715 C.ar    1  LIG1        0.1467
     34 C          -9.6624    6.7122    0.2266 C.ar    1  LIG1        0.1164
     35 N         -10.1539    5.4695    0.1992 N.ar    1  LIG1       -0.2363
     36 H          -6.3641    5.9167    0.1132 H       1  LIG1        0.0662
     37 S         -10.3244    2.8787    0.0956 S.3     1  LIG1       -0.1227
     38 H          -9.3207    2.1030   -0.3731 H       1  LIG1        0.1086
     39 O          -7.7959    8.1983    0.1907 O.3     1  LIG1       -0.4929
     40 C          -6.3943    8.4064    0.2817 C.3     1  LIG1        0.0789
     41 H          -6.2575    9.4862    0.3533 H       1  LIG1        0.0660
     42 H          -5.9733    7.9275    1.1744 H       1  LIG1        0.0660
     43 H          -5.8685    8.0347   -0.6073 H       1  LIG1        0.0660
     44 C         -11.7448    7.8892    1.1736 C.ar    1  LIG1        0.1034
     45 C         -10.6298    7.8435    0.3013 C.ar    1  LIG1        0.0390
     46 C         -10.4390    8.9460   -0.5498 C.ar    1  LIG1       -0.0066
     47 C         -11.2980   10.0387   -0.4896 C.ar    1  LIG1        0.1388
     48 C         -12.3328   10.0018    0.4531 C.ar    1  LIG1        0.0705
     49 N         -12.5475    8.9597    1.2462 N.ar    1  LIG1       -0.2447
     50 H          -9.6063    8.9325   -1.2392 H       1  LIG1        0.0662
     51 H         -13.0049   10.8524    0.5448 H       1  LIG1        0.0867
     52 S         -12.2193    6.6164    2.3360 S.3     1  LIG1       -0.1228
     53 H         -11.5867    5.6089    1.6976 H       1  LIG1        0.1086
     54 O         -11.2190   11.1580   -1.2672 O.3     1  LIG1       -0.4936
     55 C         -10.1842   11.2200   -2.2355 C.3     1  LIG1        0.0789
     56 H         -10.3023   12.1785   -2.7429 H       1  LIG1        0.0660
     57 H          -9.1906   11.1776   -1.7705 H       1  LIG1        0.0660
     58 H         -10.2688   10.4097   -2.9714 H       1  LIG1        0.0660
@<TRIPOS>BOND
     1    58    55    1
     2    56    55    1
     3    55    57    1
     4    55    54    1
     5    23    24    1
     6    23    16    1
     7    15    12    1
     8    54    47    1
     9    50    46    1
    10    13    12    1
    11    16    21   ar
    12    16    17   ar
    13    12    11    1
    14    12    14    1
    15    21    20   ar
    16    43    40    1
    17     7     3    1
    18    46    47   ar
    19    46    45   ar
    20    47    48   ar
    21     3     2   ar
    22     3     4   ar
    23    11     4    1
    24     8     2    1
    25    10     9    1
    26     2     1   ar
    27     4     5   ar
    28    38    37    1
    29     1     6   ar
    30     1     9    1
    31     5     6   ar
    32     5    17    1
    33    17    18   ar
    34    20    31    1
    35    20    19   ar
    36    37    30    1
    37    31    30   ar
    38    31    32   ar
    39    36    32    1
    40    30    35   ar
    41    32    33   ar
    42    33    39    1
    43    33    34   ar
    44    39    40    1
    45    35    34   ar
    46    34    45    1
    47    40    41    1
    48    40    42    1
    49    45    44   ar
    50    48    51    1
    51    48    49   ar
    52    18    19   ar
    53    18    22    1
    54    19    25    1
    55    44    49   ar
    56    44    52    1
    57    25    26    1
    58    53    52    1
    59    29    26    1
    60    26    27    1
    61    26    28    1
