@<TRIPOS>MOLECULE
mol_data/opt/b3lyp/geoms/mol2/6gl6gl-6gl6gl.out
 58 61 0 0 0
SMALL
GASTEIGER

@<TRIPOS>ATOM
      1 C          -3.9575   -2.2434    0.6892 C.ar    1  LIG1        0.0949
      2 C          -2.6243   -2.1795    0.2772 C.ar    1  LIG1       -0.0265
      3 C          -2.1538   -0.9731   -0.2309 C.ar    1  LIG1       -0.0153
      4 C          -3.0032    0.1353   -0.2971 C.ar    1  LIG1        0.1461
      5 C          -4.3369   -0.0090    0.1627 C.ar    1  LIG1        0.1163
      6 N          -4.7703   -1.1894    0.6271 N.ar    1  LIG1       -0.2370
      7 H          -1.1285   -0.9055   -0.5742 H       1  LIG1        0.0656
      8 H          -1.9680   -3.0403    0.3403 H       1  LIG1        0.0645
      9 S          -4.7297   -3.7156    1.3505 S.3     1  LIG1       -0.1234
     10 H          -3.6898   -4.5447    1.1339 H       1  LIG1        0.1086
     11 O          -2.6294    1.3491   -0.7917 O.3     1  LIG1       -0.4930
     12 C          -1.3492    1.4679   -1.4012 C.3     1  LIG1        0.0789
     13 H          -1.2970    2.4867   -1.7861 H       1  LIG1        0.0660
     14 H          -0.5390    1.3139   -0.6775 H       1  LIG1        0.0660
     15 H          -1.2339    0.7609   -2.2315 H       1  LIG1        0.0660
     16 C          -6.6511    1.0273   -0.2722 C.ar    1  LIG1        0.1042
     17 C          -5.3044    1.1231    0.1501 C.ar    1  LIG1        0.0391
     18 C          -4.8874    2.3833    0.6022 C.ar    1  LIG1       -0.0060
     19 C          -5.7376    3.4849    0.5827 C.ar    1  LIG1        0.1467
     20 C          -7.0466    3.3138    0.0684 C.ar    1  LIG1        0.1164
     21 N          -7.4474    2.0969   -0.3160 N.ar    1  LIG1       -0.2363
     22 H          -3.8755    2.4899    0.9670 H       1  LIG1        0.0662
     23 S          -7.4701   -0.4466   -0.8625 S.3     1  LIG1       -0.1227
     24 H          -6.6442   -1.3117   -0.2350 H       1  LIG1        0.1086
     25 O          -5.3827    4.7209    1.0431 O.3     1  LIG1       -0.4929
     26 C          -4.1409    4.8599    1.7209 C.3     1  LIG1        0.0789
     27 H          -4.1080    5.8918    2.0724 H       1  LIG1        0.0660
     28 H          -4.0752    4.1819    2.5805 H       1  LIG1        0.0660
     29 H          -3.2896    4.6792    1.0524 H       1  LIG1        0.0660
     30 C          -9.4017    4.3447    0.2225 C.ar    1  LIG1        0.1042
     31 C          -8.0156    4.4356   -0.0551 C.ar    1  LIG1        0.0391
     32 C          -7.5578    5.6865   -0.4978 C.ar    1  LIG1       -0.0060
     33 C          -8.4077    6.7826   -0.6012 C.ar    1  LIG1        0.1467
     34 C          -9.7632    6.6195   -0.2234 C.ar    1  LIG1        0.1164
     35 N         -10.1999    5.4128    0.1505 N.ar    1  LIG1       -0.2363
     36 H          -6.5140    5.7887   -0.7577 H       1  LIG1        0.0662
     37 S         -10.2840    2.8873    0.7544 S.3     1  LIG1       -0.1227
     38 H          -9.3635    2.0100    0.2925 H       1  LIG1        0.1086
     39 O          -8.0092    8.0074   -1.0587 O.3     1  LIG1       -0.4929
     40 C          -6.6965    8.1374   -1.5845 C.3     1  LIG1        0.0789
     41 H          -6.6240    9.1608   -1.9547 H       1  LIG1        0.0660
     42 H          -5.9310    7.9770   -0.8143 H       1  LIG1        0.0660
     43 H          -6.5241    7.4397   -2.4134 H       1  LIG1        0.0660
     44 C         -12.0767    7.6448   -0.6985 C.ar    1  LIG1        0.1034
     45 C         -10.7407    7.7433   -0.2336 C.ar    1  LIG1        0.0390
     46 C         -10.3257    8.9951    0.2558 C.ar    1  LIG1       -0.0066
     47 C         -11.1921   10.0826    0.2359 C.ar    1  LIG1        0.1388
     48 C         -12.4709    9.8855   -0.2995 C.ar    1  LIG1        0.0705
     49 N         -12.8930    8.7079   -0.7403 N.ar    1  LIG1       -0.2447
     50 H          -9.3180    9.0968    0.6341 H       1  LIG1        0.0662
     51 H         -13.1638   10.7226   -0.3543 H       1  LIG1        0.0867
     52 S         -12.8632    6.1797   -1.3501 S.3     1  LIG1       -0.1228
     53 H         -12.0072    5.3031   -0.7797 H       1  LIG1        0.1086
     54 O         -10.9054   11.3391    0.6879 O.3     1  LIG1       -0.4936
     55 C          -9.6143   11.5698    1.2268 C.3     1  LIG1        0.0789
     56 H          -9.5924   12.6203    1.5202 H       1  LIG1        0.0660
     57 H          -9.4256   10.9453    2.1101 H       1  LIG1        0.0660
     58 H          -8.8263   11.3854    0.4848 H       1  LIG1        0.0660
@<TRIPOS>BOND
     1    43    40    1
     2    15    12    1
     3    41    40    1
     4    13    12    1
     5    40    39    1
     6    40    42    1
     7    12    11    1
     8    12    14    1
     9    52    53    1
    10    52    44    1
    11    39    33    1
    12    23    16    1
    13    23    24    1
    14    11     4    1
    15    36    32    1
    16    49    44   ar
    17    49    48   ar
    18    44    45   ar
    19    33    32   ar
    20    33    34   ar
    21     7     3    1
    22    32    31   ar
    23    51    48    1
    24    21    16   ar
    25    21    20   ar
    26    48    47   ar
    27     4     3   ar
    28     4     5   ar
    29    16    17   ar
    30    45    34    1
    31    45    46   ar
    32     3     2   ar
    33    34    35   ar
    34    31    20    1
    35    31    30   ar
    36    20    19   ar
    37    17     5    1
    38    17    18   ar
    39    35    30   ar
    40     5     6   ar
    41    30    37    1
    42    47    46   ar
    43    47    54    1
    44    46    50    1
    45     2     8    1
    46     2     1   ar
    47    38    37    1
    48    58    55    1
    49    19    18   ar
    50    19    25    1
    51    18    22    1
    52     6     1   ar
    53    54    55    1
    54     1     9    1
    55    25    26    1
    56    29    26    1
    57    10     9    1
    58    55    56    1
    59    55    57    1
    60    26    27    1
    61    26    28    1
