@<TRIPOS>MOLECULE
mol_data/opt/b3lyp/geoms/mol2/6gl6gl6gl6gl.out
 58 61 0 0 0
SMALL
GASTEIGER

@<TRIPOS>ATOM
      1 C          -4.2125   -2.4415   -0.0013 C.ar    1  LIG1        0.0949
      2 C          -2.8196   -2.4450   -0.0010 C.ar    1  LIG1       -0.0265
      3 C          -2.1854   -1.2099   -0.0005 C.ar    1  LIG1       -0.0153
      4 C          -2.9180   -0.0199   -0.0002 C.ar    1  LIG1        0.1461
      5 C          -4.3498   -0.0859   -0.0006 C.ar    1  LIG1        0.1163
      6 N          -4.9088   -1.3110   -0.0011 N.ar    1  LIG1       -0.2370
      7 H          -1.1036   -1.1797   -0.0002 H       1  LIG1        0.0656
      8 H          -2.2442   -3.3636   -0.0012 H       1  LIG1        0.0645
      9 S          -5.2128   -3.9261   -0.0020 S.3     1  LIG1       -0.1234
     10 H          -4.1863   -4.7982   -0.0021 H       1  LIG1        0.1086
     11 O          -2.2904    1.1933    0.0004 O.3     1  LIG1       -0.4930
     12 C          -0.8677    1.2443    0.0007 C.3     1  LIG1        0.0789
     13 H          -0.6112    2.3040    0.0012 H       1  LIG1        0.0660
     14 H          -0.4484    0.7714    0.8964 H       1  LIG1        0.0660
     15 H          -0.4479    0.7721   -0.8951 H       1  LIG1        0.0660
     16 C          -6.7050    1.0248   -0.0004 C.ar    1  LIG1        0.1042
     17 C          -5.2776    1.0848   -0.0004 C.ar    1  LIG1        0.0391
     18 C          -4.7733    2.4009   -0.0003 C.ar    1  LIG1       -0.0060
     19 C          -5.5666    3.5394   -0.0002 C.ar    1  LIG1        0.1467
     20 C          -6.9855    3.3945   -0.0000 C.ar    1  LIG1        0.1164
     21 N          -7.4440    2.1353   -0.0002 N.ar    1  LIG1       -0.2363
     22 H          -3.7075    2.5285   -0.0004 H       1  LIG1        0.0662
     23 S          -7.7625   -0.4062   -0.0005 S.3     1  LIG1       -0.1227
     24 H          -6.7260   -1.2850   -0.0008 H       1  LIG1        0.1086
     25 O          -5.0031    4.7893   -0.0001 O.3     1  LIG1       -0.4929
     26 C          -3.5881    4.9147   -0.0002 C.3     1  LIG1        0.0789
     27 H          -3.3865    5.9867   -0.0001 H       1  LIG1        0.0660
     28 H          -3.1425    4.4632    0.8944 H       1  LIG1        0.0660
     29 H          -3.1427    4.4634   -0.8951 H       1  LIG1        0.0660
     30 C          -9.4063    4.3461    0.0005 C.ar    1  LIG1        0.1042
     31 C          -7.9864    4.4979    0.0002 C.ar    1  LIG1        0.0391
     32 C          -7.5667    5.8433    0.0003 C.ar    1  LIG1       -0.0060
     33 C          -8.4316    6.9278    0.0005 C.ar    1  LIG1        0.1467
     34 C          -9.8406    6.6921    0.0008 C.ar    1  LIG1        0.1164
     35 N         -10.2158    5.4064    0.0007 N.ar    1  LIG1       -0.2363
     36 H          -6.5104    6.0364    0.0001 H       1  LIG1        0.0662
     37 S         -10.3527    2.8414    0.0005 S.3     1  LIG1       -0.1227
     38 H          -9.2448    2.0475    0.0002 H       1  LIG1        0.1086
     39 O          -7.9448    8.2105    0.0006 O.3     1  LIG1       -0.4929
     40 C          -6.5415    8.4235    0.0006 C.3     1  LIG1        0.0789
     41 H          -6.4076    9.5062    0.0007 H       1  LIG1        0.0660
     42 H          -6.0673    8.0008    0.8948 H       1  LIG1        0.0660
     43 H          -6.0674    8.0011   -0.8940 H       1  LIG1        0.0660
     44 C         -12.3258    7.4681    0.0019 C.ar    1  LIG1        0.1034
     45 C         -10.9152    7.7311    0.0010 C.ar    1  LIG1        0.0390
     46 C         -10.5584    9.1019    0.0004 C.ar    1  LIG1       -0.0066
     47 C         -11.5148   10.1061    0.0007 C.ar    1  LIG1        0.1388
     48 C         -12.8604    9.7278    0.0016 C.ar    1  LIG1        0.0705
     49 N         -13.2347    8.4599    0.0022 N.ar    1  LIG1       -0.2447
     50 H          -9.5157    9.3626   -0.0003 H       1  LIG1        0.0662
     51 H         -13.6405   10.4869    0.0019 H       1  LIG1        0.0867
     52 S         -13.1736    5.9072    0.0028 S.3     1  LIG1       -0.1228
     53 H         -12.0334    5.1690    0.0021 H       1  LIG1        0.1086
     54 O         -11.2553   11.4489    0.0001 O.3     1  LIG1       -0.4936
     55 C          -9.8996   11.8613   -0.0008 C.3     1  LIG1        0.0789
     56 H          -9.9152   12.9523   -0.0011 H       1  LIG1        0.0660
     57 H          -9.3670   11.5083    0.8923 H       1  LIG1        0.0660
     58 H          -9.3681   11.5078   -0.8944 H       1  LIG1        0.0660
@<TRIPOS>BOND
     1    29    26    1
     2    15    12    1
     3    58    55    1
     4    43    40    1
     5    10     9    1
     6     9     1    1
     7     1     6   ar
     8     1     2   ar
     9     8     2    1
    10    56    55    1
    11     6     5   ar
    12     2     3   ar
    13    55    54    1
    14    55    57    1
    15    24    23    1
    16     5    17    1
    17     5     4   ar
    18    23    16    1
    19     3     7    1
    20     3     4   ar
    21    22    18    1
    22    17    16   ar
    23    17    18   ar
    24    16    21   ar
    25    18    19   ar
    26    50    46    1
    27     4    11    1
    28    26    27    1
    29    26    25    1
    30    26    28    1
    31    19    25    1
    32    19    20   ar
    33    21    20   ar
    34    20    31    1
    35    36    32    1
    36    54    47    1
    37    38    37    1
    38    31    32   ar
    39    31    30   ar
    40    32    33   ar
    41    11    12    1
    42    46    47   ar
    43    46    45   ar
    44    37    30    1
    45    30    35   ar
    46    33    39    1
    47    33    34   ar
    48    40    39    1
    49    40    41    1
    50    40    42    1
    51    47    48   ar
    52    35    34   ar
    53    12    13    1
    54    12    14    1
    55    34    45    1
    56    45    44   ar
    57    48    51    1
    58    48    49   ar
    59    44    49   ar
    60    44    52    1
    61    53    52    1
