@<TRIPOS>MOLECULE
mol_data/opt/b3lyp/geoms/mol2/6gl6gl-.out
 30 31 0 0 0
SMALL
GASTEIGER

@<TRIPOS>ATOM
      1 C          -4.4377   -2.0497    0.7185 C.ar    1  LIG1        0.0949
      2 C          -3.0661   -2.1361    0.4734 C.ar    1  LIG1       -0.0265
      3 C          -2.4229   -1.0149   -0.0422 C.ar    1  LIG1       -0.0153
      4 C          -3.1467    0.1572   -0.2784 C.ar    1  LIG1        0.1461
      5 C          -4.5333    0.1662    0.0204 C.ar    1  LIG1        0.1163
      6 N          -5.1321   -0.9344    0.4953 N.ar    1  LIG1       -0.2370
      7 H          -1.3624   -1.0643   -0.2587 H       1  LIG1        0.0656
      8 H          -2.5094   -3.0462    0.6677 H       1  LIG1        0.0645
      9 S          -5.4245   -3.3984    1.3630 S.3     1  LIG1       -0.1234
     10 H          -4.4487   -4.3277    1.3404 H       1  LIG1        0.1086
     11 O          -2.6020    1.2953   -0.7938 O.3     1  LIG1       -0.4930
     12 C          -1.2478    1.2630   -1.2253 C.3     1  LIG1        0.0789
     13 H          -1.0499    2.2450   -1.6560 H       1  LIG1        0.0660
     14 H          -0.5588    1.0904   -0.3888 H       1  LIG1        0.0660
     15 H          -1.0885    0.4935   -1.9905 H       1  LIG1        0.0660
     16 C          -6.6391    1.3849   -0.8106 C.ar    1  LIG1        0.1034
     17 C          -5.3741    1.3815   -0.1760 C.ar    1  LIG1        0.0390
     18 C          -4.8938    2.6123    0.3033 C.ar    1  LIG1       -0.0066
     19 C          -5.6330    3.7762    0.1162 C.ar    1  LIG1        0.1388
     20 C          -6.8476    3.6710   -0.5739 C.ar    1  LIG1        0.0705
     21 N          -7.3301    2.5150   -1.0113 N.ar    1  LIG1       -0.2447
     22 H          -3.9366    2.6373    0.8063 H       1  LIG1        0.0662
     23 H          -7.4374    4.5662   -0.7590 H       1  LIG1        0.0867
     24 S          -7.4732   -0.0386   -1.5001 S.3     1  LIG1       -0.1228
     25 H          -6.8281   -0.9576   -0.7525 H       1  LIG1        0.1086
     26 O          -5.2781    5.0230    0.5405 O.3     1  LIG1       -0.4936
     27 C          -4.0534    5.1620    1.2434 C.3     1  LIG1        0.0789
     28 H          -3.9653    6.2209    1.4895 H       1  LIG1        0.0660
     29 H          -4.0500    4.5748    2.1710 H       1  LIG1        0.0660
     30 H          -3.1961    4.8621    0.6266 H       1  LIG1        0.0660
@<TRIPOS>BOND
     1    15    12    1
     2    13    12    1
     3    24    16    1
     4    24    25    1
     5    12    11    1
     6    12    14    1
     7    21    16   ar
     8    21    20   ar
     9    16    17   ar
    10    11     4    1
    11    23    20    1
    12    20    19   ar
    13     4     3   ar
    14     4     5   ar
    15     7     3    1
    16    17     5    1
    17    17    18   ar
    18     3     2   ar
    19     5     6   ar
    20    19    18   ar
    21    19    26    1
    22    18    22    1
    23     2     8    1
    24     2     1   ar
    25     6     1   ar
    26    26    27    1
    27    30    27    1
    28     1     9    1
    29    27    28    1
    30    27    29    1
    31    10     9    1
