@<TRIPOS>MOLECULE
mol_data/opt/b3lyp/geoms/mol2/6gl6gl6gl6gl-.out
 58 61 0 0 0
SMALL
GASTEIGER

@<TRIPOS>ATOM
      1 C          -3.6821   -1.9936   -1.2125 C.ar    1  LIG1        0.0949
      2 C          -2.5153   -2.0929   -0.4511 C.ar    1  LIG1       -0.0265
      3 C          -2.2368   -1.0739    0.4538 C.ar    1  LIG1       -0.0153
      4 C          -3.1016    0.0192    0.5635 C.ar    1  LIG1        0.1461
      5 C          -4.2520    0.0541   -0.2656 C.ar    1  LIG1        0.1163
      6 N          -4.5090   -0.9537   -1.1115 N.ar    1  LIG1       -0.2370
      7 H          -1.3480   -1.1394    1.0697 H       1  LIG1        0.0656
      8 H          -1.8432   -2.9383   -0.5480 H       1  LIG1        0.0645
      9 S          -4.2038   -3.2199   -2.4068 S.3     1  LIG1       -0.1234
     10 H          -3.2502   -4.1282   -2.1210 H       1  LIG1        0.1086
     11 O          -2.9118    1.0513    1.4328 O.3     1  LIG1       -0.4930
     12 C          -1.8632    0.9495    2.3896 C.3     1  LIG1        0.0789
     13 H          -1.9514    1.8337    3.0213 H       1  LIG1        0.0660
     14 H          -1.9721    0.0506    3.0080 H       1  LIG1        0.0660
     15 H          -0.8759    0.9448    1.9111 H       1  LIG1        0.0660
     16 C          -6.6251    1.0485   -0.2230 C.ar    1  LIG1        0.1042
     17 C          -5.2170    1.1883   -0.2345 C.ar    1  LIG1        0.0391
     18 C          -4.7250    2.5009   -0.2123 C.ar    1  LIG1       -0.0060
     19 C          -5.5772    3.5996   -0.1571 C.ar    1  LIG1        0.1467
     20 C          -6.9722    3.3632   -0.1021 C.ar    1  LIG1        0.1164
     21 N          -7.4329    2.1080   -0.1362 N.ar    1  LIG1       -0.2363
     22 H          -3.6543    2.6476   -0.2215 H       1  LIG1        0.0662
     23 S          -7.5337   -0.4892   -0.2443 S.3     1  LIG1       -0.1227
     24 H          -6.5274   -1.2311   -0.7533 H       1  LIG1        0.1086
     25 O          -5.1427    4.8939   -0.1310 O.3     1  LIG1       -0.4929
     26 C          -3.7450    5.1374   -0.0478 C.3     1  LIG1        0.0789
     27 H          -3.6356    6.2202    0.0237 H       1  LIG1        0.0660
     28 H          -3.3078    4.6694    0.8425 H       1  LIG1        0.0660
     29 H          -3.2162    4.7797   -0.9404 H       1  LIG1        0.0660
     30 C          -9.1107    4.4633    0.8149 C.ar    1  LIG1        0.1042
     31 C          -7.9679    4.4667   -0.0194 C.ar    1  LIG1        0.0391
     32 C          -7.8014    5.5996   -0.8301 C.ar    1  LIG1       -0.0060
     33 C          -8.6799    6.6770   -0.7697 C.ar    1  LIG1        0.1467
     34 C          -9.7475    6.6225    0.1596 C.ar    1  LIG1        0.1164
     35 N          -9.9256    5.5174    0.8913 N.ar    1  LIG1       -0.2363
     36 H          -6.9626    5.6257   -1.5109 H       1  LIG1        0.0662
     37 S          -9.6100    3.1450    1.9118 S.3     1  LIG1       -0.1227
     38 H          -8.9525    2.1724    1.2425 H       1  LIG1        0.1086
     39 O          -8.5749    7.7824   -1.5659 O.3     1  LIG1       -0.4929
     40 C          -7.6239    7.7677   -2.6210 C.3     1  LIG1        0.0789
     41 H          -7.7762    8.6968   -3.1717 H       1  LIG1        0.0660
     42 H          -6.5942    7.7380   -2.2422 H       1  LIG1        0.0660
     43 H          -7.7842    6.9168   -3.2945 H       1  LIG1        0.0660
     44 C         -12.1018    7.6031    0.5140 C.ar    1  LIG1        0.1034
     45 C         -10.7005    7.7503    0.3551 C.ar    1  LIG1        0.0390
     46 C         -10.1876    9.0595    0.3941 C.ar    1  LIG1       -0.0066
     47 C         -11.0409   10.1473    0.5427 C.ar    1  LIG1        0.1388
     48 C         -12.4142    9.8887    0.6336 C.ar    1  LIG1        0.0705
     49 N         -12.9175    8.6615    0.6267 N.ar    1  LIG1       -0.2447
     50 H          -9.1208    9.2021    0.2928 H       1  LIG1        0.0662
     51 H         -13.1112   10.7192    0.7238 H       1  LIG1        0.0867
     52 S         -13.0084    6.0642    0.5216 S.3     1  LIG1       -0.1228
     53 H         -11.9480    5.2848    0.8286 H       1  LIG1        0.1086
     54 O         -10.6602   11.4575    0.6016 O.3     1  LIG1       -0.4936
     55 C          -9.2759   11.7495    0.5044 C.3     1  LIG1        0.0789
     56 H          -9.1905   12.8351    0.5710 H       1  LIG1        0.0660
     57 H          -8.7064   11.2925    1.3244 H       1  LIG1        0.0660
     58 H          -8.8564   11.4123   -0.4525 H       1  LIG1        0.0660
@<TRIPOS>BOND
     1    43    40    1
     2    41    40    1
     3    40    42    1
     4    40    39    1
     5     9    10    1
     6     9     1    1
     7    39    33    1
     8    36    32    1
     9     1     6   ar
    10     1     2   ar
    11     6     5   ar
    12    29    26    1
    13    32    33   ar
    14    32    31   ar
    15    33    34   ar
    16    24    23    1
    17     8     2    1
    18    58    55    1
    19     2     3   ar
    20     5    17    1
    21     5     4   ar
    22    23    16    1
    23    17    16   ar
    24    17    18   ar
    25    16    21   ar
    26    22    18    1
    27    18    19   ar
    28    19    25    1
    29    19    20   ar
    30    21    20   ar
    31    25    26    1
    32    20    31    1
    33    26    27    1
    34    26    28    1
    35    31    30   ar
    36    34    45    1
    37    34    35   ar
    38    50    46    1
    39    45    46   ar
    40    45    44   ar
    41    46    47   ar
    42     3     4   ar
    43     3     7    1
    44    55    56    1
    45    55    54    1
    46    55    57    1
    47    44    52    1
    48    44    49   ar
    49    52    53    1
    50    47    54    1
    51    47    48   ar
    52     4    11    1
    53    49    48   ar
    54    48    51    1
    55    30    35   ar
    56    30    37    1
    57    38    37    1
    58    11    12    1
    59    15    12    1
    60    12    14    1
    61    12    13    1
