@<TRIPOS>MOLECULE
mol_data/opt/b3lyp/geoms/mol2/6gl6gl-6gl6gl-.out
 58 61 0 0 0
SMALL
GASTEIGER

@<TRIPOS>ATOM
      1 C          -3.9666   -2.2487    0.6788 C.ar    1  LIG1        0.0949
      2 C          -2.6300   -2.1830    0.2786 C.ar    1  LIG1       -0.0265
      3 C          -2.1547   -0.9740   -0.2187 C.ar    1  LIG1       -0.0153
      4 C          -3.0030    0.1352   -0.2857 C.ar    1  LIG1        0.1461
      5 C          -4.3407   -0.0112    0.1620 C.ar    1  LIG1        0.1163
      6 N          -4.7785   -1.1941    0.6159 N.ar    1  LIG1       -0.2370
      7 H          -1.1265   -0.9049   -0.5531 H       1  LIG1        0.0656
      8 H          -1.9746   -3.0445    0.3422 H       1  LIG1        0.0645
      9 S          -4.7449   -3.7243    1.3254 S.3     1  LIG1       -0.1234
     10 H          -3.7038   -4.5528    1.1120 H       1  LIG1        0.1086
     11 O          -2.6247    1.3516   -0.7703 O.3     1  LIG1       -0.4930
     12 C          -1.3388    1.4737   -1.3671 C.3     1  LIG1        0.0789
     13 H          -1.2829    2.4948   -1.7453 H       1  LIG1        0.0660
     14 H          -0.5355    1.3149   -0.6369 H       1  LIG1        0.0660
     15 H          -1.2161    0.7717   -2.2006 H       1  LIG1        0.0660
     16 C          -6.6505    1.0287   -0.2868 C.ar    1  LIG1        0.1042
     17 C          -5.3075    1.1214    0.1475 C.ar    1  LIG1        0.0391
     18 C          -4.8938    2.3788    0.6105 C.ar    1  LIG1       -0.0060
     19 C          -5.7433    3.4809    0.5901 C.ar    1  LIG1        0.1467
     20 C          -7.0480    3.3133    0.0635 C.ar    1  LIG1        0.1164
     21 N          -7.4460    2.0989   -0.3312 N.ar    1  LIG1       -0.2363
     22 H          -3.8850    2.4827    0.9846 H       1  LIG1        0.0662
     23 S          -7.4650   -0.4414   -0.8927 S.3     1  LIG1       -0.1227
     24 H          -6.6452   -1.3104   -0.2628 H       1  LIG1        0.1086
     25 O          -5.3920    4.7140    1.0607 O.3     1  LIG1       -0.4929
     26 C          -4.1558    4.8487    1.7494 C.3     1  LIG1        0.0789
     27 H          -4.1254    5.8786    2.1070 H       1  LIG1        0.0660
     28 H          -4.0973    4.1659    2.6057 H       1  LIG1        0.0660
     29 H          -3.2991    4.6715    1.0869 H       1  LIG1        0.0660
     30 C          -9.4037    4.3448    0.2031 C.ar    1  LIG1        0.1042
     31 C          -8.0152    4.4364   -0.0618 C.ar    1  LIG1        0.0391
     32 C          -7.5528    5.6895   -0.4935 C.ar    1  LIG1       -0.0060
     33 C          -8.4012    6.7866   -0.5982 C.ar    1  LIG1        0.1467
     34 C          -9.7601    6.6222   -0.2333 C.ar    1  LIG1        0.1164
     35 N         -10.2007    5.4137    0.1301 N.ar    1  LIG1       -0.2363
     36 H          -6.5068    5.7924   -0.7437 H       1  LIG1        0.0662
     37 S         -10.2913    2.8850    0.7194 S.3     1  LIG1       -0.1227
     38 H          -9.3676    2.0097    0.2601 H       1  LIG1        0.1086
     39 O          -7.9980    8.0138   -1.0451 O.3     1  LIG1       -0.4929
     40 C          -6.6808    8.1459   -1.5589 C.3     1  LIG1        0.0789
     41 H          -6.6045    9.1714   -1.9227 H       1  LIG1        0.0660
     42 H          -5.9220    7.9808   -0.7831 H       1  LIG1        0.0660
     43 H          -6.5016    7.4528   -2.3902 H       1  LIG1        0.0660
     44 C         -12.0687    7.6513   -0.7230 C.ar    1  LIG1        0.1034
     45 C         -10.7368    7.7465   -0.2459 C.ar    1  LIG1        0.0390
     46 C         -10.3255    8.9955    0.2539 C.ar    1  LIG1       -0.0066
     47 C         -11.1911   10.0835    0.2324 C.ar    1  LIG1        0.1388
     48 C         -12.4654    9.8900   -0.3153 C.ar    1  LIG1        0.0705
     49 N         -12.8841    8.7150   -0.7662 N.ar    1  LIG1       -0.2447
     50 H          -9.3211    9.0946    0.6415 H       1  LIG1        0.0662
     51 H         -13.1573   10.7278   -0.3716 H       1  LIG1        0.0867
     52 S         -12.8503    6.1902   -1.3894 S.3     1  LIG1       -0.1228
     53 H         -11.9996    5.3099   -0.8164 H       1  LIG1        0.1086
     54 O         -10.9079   11.3374    0.6936 O.3     1  LIG1       -0.4936
     55 C          -9.6213   11.5645    1.2450 C.3     1  LIG1        0.0789
     56 H          -9.6015   12.6134    1.5441 H       1  LIG1        0.0660
     57 H          -9.4407   10.9353    2.1264 H       1  LIG1        0.0660
     58 H          -8.8270   11.3837    0.5088 H       1  LIG1        0.0660
@<TRIPOS>BOND
     1    43    40    1
     2    15    12    1
     3    41    40    1
     4    13    12    1
     5    40    39    1
     6    40    42    1
     7    52    53    1
     8    52    44    1
     9    12    11    1
    10    12    14    1
    11    39    33    1
    12    23    16    1
    13    23    24    1
    14    11     4    1
    15    49    44   ar
    16    49    48   ar
    17    36    32    1
    18    44    45   ar
    19    33    32   ar
    20    33    34   ar
    21     7     3    1
    22    32    31   ar
    23    51    48    1
    24    21    16   ar
    25    21    20   ar
    26    48    47   ar
    27    16    17   ar
    28     4     3   ar
    29     4     5   ar
    30    45    34    1
    31    45    46   ar
    32    34    35   ar
    33     3     2   ar
    34    31    20    1
    35    31    30   ar
    36    20    19   ar
    37    35    30   ar
    38    17     5    1
    39    17    18   ar
    40     5     6   ar
    41    30    37    1
    42    47    46   ar
    43    47    54    1
    44    46    50    1
    45    38    37    1
    46     2     8    1
    47     2     1   ar
    48    58    55    1
    49    19    18   ar
    50    19    25    1
    51    18    22    1
    52     6     1   ar
    53     1     9    1
    54    54    55    1
    55    25    26    1
    56    29    26    1
    57    10     9    1
    58    55    56    1
    59    55    57    1
    60    26    27    1
    61    26    28    1
