@<TRIPOS>MOLECULE
mol_data/opt/b3lyp/geoms/mol2/6ha13eh-6fd-13fe13li.out
 62 66 0 0 0
SMALL
GASTEIGER

@<TRIPOS>ATOM
      1 C          -4.9153   -1.9290    1.5346 C.ar    1  LIG1        0.1169
      2 C          -3.5321   -2.2116    1.5094 C.ar    1  LIG1       -0.0221
      3 C          -2.6856   -1.2720    0.9416 C.ar    1  LIG1       -0.0565
      4 C          -3.2010   -0.0845    0.4182 C.ar    1  LIG1       -0.0341
      5 C          -4.5847    0.1093    0.4863 C.ar    1  LIG1        0.0905
      6 N          -5.4255   -0.8011    1.0302 N.ar    1  LIG1       -0.2309
      7 H          -1.6164   -1.4599    0.9061 H       1  LIG1        0.0619
      8 H          -3.1512   -3.1355    1.9325 H       1  LIG1        0.0652
      9 N          -5.8093   -2.7967    2.1308 N.pl3   1  LIG1       -0.3431
     10 H          -6.7771   -2.6320    1.8938 H       1  LIG1        0.1437
     11 H          -5.5450   -3.7686    2.1852 H       1  LIG1        0.1437
     12 H          -2.5598    0.6641   -0.0280 H       1  LIG1        0.0639
     13 C          -5.2449    1.3085   -0.0197 C.ar    1  LIG1        0.0829
     14 C          -4.7907    2.4984   -0.6108 C.ar    1  LIG1        0.0726
     15 C          -5.9386    3.3312   -0.8274 C.ar    1  LIG1        0.0666
     16 C          -7.0600    2.6377   -0.3756 C.ar    1  LIG1        0.0743
     17 N          -6.6040    1.4010    0.0797 N.ar    1  LIG1       -0.3504
     18 H          -7.1049    0.7414    0.6620 H       1  LIG1        0.1660
     19 C          -3.4780    2.8693   -0.9866 C.1     1  LIG1       -0.0656
     20 C          -2.3858    3.2557   -1.3457 C.1     1  LIG1       -0.1138
     21 H          -1.4153    3.5809   -1.6412 H       1  LIG1        0.1232
     22 N          -5.8969    4.6122   -1.3691 N.pl3   1  LIG1       -0.3554
     23 H          -5.0349    4.7997   -1.8675 H       1  LIG1        0.1424
     24 H          -6.7076    4.8624   -1.9222 H       1  LIG1        0.1424
     25 C          -9.5079    2.0737   -0.6502 C.ar    1  LIG1        0.2224
     26 C          -8.4691    3.0099   -0.3743 C.ar    1  LIG1        0.0627
     27 C          -8.8959    4.3192   -0.1530 C.ar    1  LIG1       -0.0279
     28 C         -10.2583    4.6624   -0.1484 C.ar    1  LIG1        0.0801
     29 C         -11.2107    3.6202   -0.3120 C.ar    1  LIG1        0.1119
     30 N         -10.7909    2.3616   -0.5946 N.ar    1  LIG1       -0.2096
     31 H          -8.1598    5.0972    0.0209 H       1  LIG1        0.0639
     32 O          -9.2334    0.7884   -0.9871 O.3     1  LIG1       -0.4919
     33 H          -8.2823    0.7049   -1.1608 H       1  LIG1        0.2937
     34 N         -10.7289    7.2079   -0.0571 N.1     1  LIG1       -0.1908
     35 C         -10.5748    6.0541   -0.0698 C.1     1  LIG1        0.1014
     36 C         -12.6489    3.7420   -0.2419 C.ar    1  LIG1        0.1100
     37 C         -13.5637    4.6410    0.3071 C.ar    1  LIG1        0.1596
     38 C         -14.8809    4.1176    0.1313 C.ar    1  LIG1        0.0935
     39 C         -14.7448    2.8693   -0.5087 C.ar    1  LIG1        0.0862
     40 N         -13.4133    2.6794   -0.7261 N.ar    1  LIG1       -0.3478
     41 H         -12.9558    1.8131   -0.9762 H       1  LIG1        0.1661
     42 O         -13.2684    5.7972    0.9280 O.3     1  LIG1       -0.5034
     43 H         -14.1042    6.2313    1.1638 H       1  LIG1        0.2923
     44 C         -16.0377    4.8351    0.5118 C.1     1  LIG1       -0.0638
     45 C         -16.9543    5.5383    0.8812 C.1     1  LIG1       -0.1137
     46 H         -17.7937    6.1242    1.1755 H       1  LIG1        0.1232
     47 C         -15.7234    1.9146   -0.9669 C.ar    1  LIG1        0.1067
     48 C         -16.9871    1.5456   -0.5051 C.ar    1  LIG1        0.1496
     49 C         -17.5085    0.5267   -1.3551 C.ar    1  LIG1        0.0092
     50 C         -16.5471    0.2977   -2.3182 C.ar    1  LIG1        0.0087
     51 N         -15.4632    1.1009   -2.0635 N.ar    1  LIG1       -0.3563
     52 H         -14.7246    1.2855   -2.7241 H       1  LIG1        0.1655
     53 H         -16.5534   -0.3785   -3.1606 H       1  LIG1        0.0811
     54 O         -17.6678    2.0398    0.5725 O.3     1  LIG1       -0.4927
     55 C         -17.0939    1.7529    1.8498 C.3     1  LIG1        0.0789
     56 H         -17.7878    2.1495    2.5932 H       1  LIG1        0.0660
     57 H         -16.9789    0.6713    1.9960 H       1  LIG1        0.0660
     58 H         -16.1209    2.2395    1.9746 H       1  LIG1        0.0660
     59 C         -18.8369   -0.1498   -1.2021 C.3     1  LIG1       -0.0348
     60 H         -19.0062   -0.8699   -2.0076 H       1  LIG1        0.0279
     61 H         -19.6567    0.5762   -1.2190 H       1  LIG1        0.0279
     62 H         -18.9106   -0.6892   -0.2509 H       1  LIG1        0.0279
@<TRIPOS>BOND
     1    53    50    1
     2    52    51    1
     3    50    51   ar
     4    50    49   ar
     5    51    47   ar
     6    60    59    1
     7    24    22    1
     8    23    22    1
     9    21    20    1
    10    22    15    1
    11    49    59    1
    12    49    48   ar
    13    20    19    3
    14    61    59    1
    15    59    62    1
    16    33    32    1
    17    32    25    1
    18    19    14    1
    19    41    40    1
    20    47    39    1
    21    47    48   ar
    22    15    14   ar
    23    15    16   ar
    24    40    39   ar
    25    40    36   ar
    26    25    30   ar
    27    25    26   ar
    28    14    13   ar
    29    30    29   ar
    30    39    38   ar
    31    48    54    1
    32    16    26    1
    33    16    17   ar
    34    26    27   ar
    35    29    36    1
    36    29    28   ar
    37    36    37   ar
    38    27    28   ar
    39    27    31    1
    40    28    35    1
    41    35    34    3
    42    12     4    1
    43    13    17   ar
    44    13     5    1
    45    17    18    1
    46    38    37   ar
    47    38    44    1
    48    37    42    1
    49     4     5   ar
    50     4     3   ar
    51     5     6   ar
    52    44    45    3
    53    54    55    1
    54    45    46    1
    55     7     3    1
    56    42    43    1
    57     3     2   ar
    58     6     1   ar
    59     2     1   ar
    60     2     8    1
    61     1     9    1
    62    55    58    1
    63    55    57    1
    64    55    56    1
    65    10     9    1
    66     9    11    1
