@<TRIPOS>MOLECULE
mol_data/opt/b3lyp/geoms/mol2/6ha12fl13eh13fd-6ee-12fd-6lf6ef-.out
 95 102 0 0 0
SMALL
GASTEIGER

@<TRIPOS>ATOM
      1 C          -5.1578   -2.0064   -2.0052 C.ar    1  LIG1        0.1169
      2 C          -3.7950   -2.0419   -2.3634 C.ar    1  LIG1       -0.0221
      3 C          -3.0399   -0.8945   -2.1713 C.ar    1  LIG1       -0.0564
      4 C          -3.6310    0.2493   -1.6409 C.ar    1  LIG1       -0.0324
      5 C          -4.9956    0.1947   -1.3105 C.ar    1  LIG1        0.1119
      6 N          -5.7463   -0.9179   -1.4859 N.ar    1  LIG1       -0.2292
      7 H          -1.9871   -0.8868   -2.4388 H       1  LIG1        0.0619
      8 H          -3.3580   -2.9473   -2.7720 H       1  LIG1        0.0652
      9 N          -5.9417   -3.1403   -2.1366 N.pl3   1  LIG1       -0.3431
     10 H          -6.9407   -2.9891   -2.1360 H       1  LIG1        0.1437
     11 H          -5.6318   -3.8239   -2.8110 H       1  LIG1        0.1437
     12 H          -3.0665    1.1597   -1.4886 H       1  LIG1        0.0640
     13 C          -5.6431    1.3728   -0.7643 C.ar    1  LIG1        0.1989
     14 C          -5.1803    2.6145   -0.3858 C.ar    1  LIG1        0.2076
     15 C          -6.2867    3.3657    0.1004 C.ar    1  LIG1        0.2099
     16 C          -7.4018    2.5600   -0.0159 C.ar    1  LIG1        0.1983
     17 O          -7.0035    1.3486   -0.5295 O.2     1  LIG1       -0.4442
     18 O          -3.9109    3.0851   -0.4399 O.3     1  LIG1       -0.5008
     19 H          -3.9571    4.0229   -0.1925 H       1  LIG1        0.2924
     20 O          -6.1349    4.6454    0.5526 O.3     1  LIG1       -0.4884
     21 C          -6.1137    4.7720    1.9877 C.3     1  LIG1        0.0791
     22 H          -5.8906    5.8197    2.1954 H       1  LIG1        0.0660
     23 H          -7.0874    4.5206    2.4148 H       1  LIG1        0.0660
     24 H          -5.3373    4.1324    2.4235 H       1  LIG1        0.0660
     25 C          -8.8064    2.6551    0.2574 C.ar    1  LIG1        0.1038
     26 C          -9.6743    3.6849    0.6733 C.ar    1  LIG1        0.0743
     27 C         -10.9950    3.1240    0.7552 C.ar    1  LIG1        0.0681
     28 C         -10.9052    1.7844    0.3722 C.ar    1  LIG1        0.0892
     29 N          -9.5669    1.5300    0.0974 N.ar    1  LIG1       -0.3480
     30 H          -9.2156    0.7207   -0.3925 H       1  LIG1        0.1661
     31 C          -9.3969    5.0430    0.9495 C.1     1  LIG1       -0.0656
     32 C          -9.2652    6.2234    1.1960 C.1     1  LIG1       -0.1138
     33 H          -9.1160    7.2605    1.3871 H       1  LIG1        0.1232
     34 N         -12.1078    3.7934    1.2264 N.pl3   1  LIG1       -0.3553
     35 H         -12.0270    4.8007    1.1802 H       1  LIG1        0.1424
     36 H         -12.9971    3.4403    0.8945 H       1  LIG1        0.1424
     37 C         -11.8556    0.7115    0.2941 C.ar    1  LIG1        0.1085
     38 C         -13.2379    0.6408    0.1534 C.ar    1  LIG1        0.1616
     39 C         -13.6053   -0.7305    0.0245 C.ar    1  LIG1        0.1190
     40 C         -12.4178   -1.4983    0.0779 C.ar    1  LIG1        0.0709
     41 N         -11.4117   -0.5944    0.2533 N.ar    1  LIG1       -0.3489
     42 H         -10.4522   -0.8769    0.3993 H       1  LIG1        0.1661
     43 O         -14.0617    1.7242    0.0976 O.3     1  LIG1       -0.5034
     44 H         -14.9790    1.4245    0.0176 H       1  LIG1        0.2923
     45 N         -16.0720   -1.3846   -0.3404 N.1     1  LIG1       -0.1907
     46 C         -14.9421   -1.1397   -0.1821 C.1     1  LIG1        0.1050
     47 C         -10.8741   -3.4868   -0.2994 C.ar    1  LIG1        0.1231
     48 C         -12.1671   -2.9229   -0.0557 C.ar    1  LIG1        0.0347
     49 C         -13.2176   -3.8461    0.0636 C.ar    1  LIG1       -0.0323
     50 C         -13.0132   -5.2206   -0.0831 C.ar    1  LIG1        0.0545
     51 C         -11.6965   -5.6597   -0.4067 C.ar    1  LIG1        0.1264
     52 N         -10.6765   -4.7975   -0.4792 N.ar    1  LIG1       -0.2333
     53 H         -14.2159   -3.5023    0.3061 H       1  LIG1        0.0638
     54 C          -9.6705   -2.7039   -0.4008 C.1     1  LIG1       -0.0491
     55 C          -8.6462   -2.0541   -0.4721 C.1     1  LIG1       -0.1124
     56 H          -7.7254   -1.5018   -0.5965 H       1  LIG1        0.1232
     57 C         -14.0927   -6.1127    0.1763 C.1     1  LIG1       -0.0674
     58 C         -15.0299   -6.8300    0.4413 C.1     1  LIG1       -0.1138
     59 H         -15.8492   -7.4752    0.6597 H       1  LIG1        0.1232
     60 C         -11.3495   -7.0533   -0.6531 C.ar    1  LIG1        0.1975
     61 C         -11.9504   -8.1180   -1.2875 C.ar    1  LIG1        0.1826
     62 C         -11.0016   -9.1957   -1.2810 C.ar    1  LIG1        0.1396
     63 C          -9.8600   -8.7130   -0.6489 C.ar    1  LIG1        0.1620
     64 O         -10.0742   -7.4365   -0.2872 O.2     1  LIG1       -0.4479
     65 O         -13.1650   -8.1259   -1.8689 O.3     1  LIG1       -0.5023
     66 H         -13.3213   -8.9941   -2.2690 H       1  LIG1        0.2923
     67 N         -11.5456  -11.4557   -2.3952 N.1     1  LIG1       -0.1906
     68 C         -11.2503  -10.4519   -1.8804 C.1     1  LIG1        0.1067
     69 C          -7.3691   -8.6276   -0.1735 C.ar    1  LIG1        0.2262
     70 C          -8.5929   -9.3478   -0.3224 C.ar    1  LIG1        0.0836
     71 C          -8.5237  -10.7331   -0.1603 C.ar    1  LIG1       -0.0022
     72 C          -7.3124  -11.3539    0.1485 C.ar    1  LIG1        0.1437
     73 C          -6.1737  -10.5491    0.3063 C.ar    1  LIG1        0.1188
     74 N          -6.2280   -9.2169    0.1337 N.ar    1  LIG1       -0.2085
     75 H          -9.4063  -11.3539   -0.2628 H       1  LIG1        0.0663
     76 O          -7.3915   -7.2983   -0.3760 O.3     1  LIG1       -0.4792
     77 C          -6.1517   -6.5918   -0.2375 C.3     1  LIG1        0.0804
     78 H          -6.3765   -5.5577   -0.4999 H       1  LIG1        0.0660
     79 H          -5.7832   -6.6526    0.7904 H       1  LIG1        0.0660
     80 H          -5.3895   -7.0067   -0.9026 H       1  LIG1        0.0660
     81 O          -7.3202  -12.7118    0.2890 O.3     1  LIG1       -0.5046
     82 H          -6.4096  -13.0271    0.3790 H       1  LIG1        0.2922
     83 C          -3.6789  -10.9005   -0.0799 C.ar    1  LIG1        0.1226
     84 C          -4.8559  -11.1313    0.6816 C.ar    1  LIG1        0.0413
     85 C          -4.7467  -11.9234    1.8286 C.ar    1  LIG1       -0.0067
     86 C          -3.5025  -12.4374    2.1972 C.ar    1  LIG1        0.1356
     87 C          -2.3986  -12.1336    1.3910 C.ar    1  LIG1        0.0704
     88 N          -2.4826  -11.3959    0.2887 N.ar    1  LIG1       -0.2424
     89 H          -5.6084  -12.1160    2.4601 H       1  LIG1        0.0662
     90 H          -1.4080  -12.5088    1.6537 H       1  LIG1        0.0867
     91 C          -3.7029  -10.1657   -1.3105 C.1     1  LIG1       -0.0491
     92 C          -3.6942   -9.5826   -2.3697 C.1     1  LIG1       -0.1124
     93 H          -3.6863   -9.0721   -3.3046 H       1  LIG1        0.1232
     94 O          -3.4227  -13.1962    3.3214 O.3     1  LIG1       -0.5052
     95 H          -2.5049  -13.4655    3.4653 H       1  LIG1        0.2922
@<TRIPOS>BOND
     1    93    92    1
     2    11     9    1
     3     8     2    1
     4     7     3    1
     5    67    68    3
     6    92    91    3
     7     2     3   ar
     8     2     1   ar
     9    66    65    1
    10     3     4   ar
    11     9    10    1
    12     9     1    1
    13     1     6   ar
    14    68    62    1
    15    65    61    1
    16     4    12    1
    17     4     5   ar
    18     6     5   ar
    19    91    83    1
    20     5    13    1
    21    61    62   ar
    22    61    60   ar
    23    62    63   ar
    24    80    77    1
    25    13    17   ar
    26    13    14   ar
    27    60    51    1
    28    60    64   ar
    29    63    70    1
    30    63    64   ar
    31    56    55    1
    32    17    16   ar
    33    78    77    1
    34    52    51   ar
    35    52    47   ar
    36    55    54    3
    37    18    14    1
    38    18    19    1
    39    51    50   ar
    40    54    47    1
    41    30    29    1
    42    14    15   ar
    43    76    77    1
    44    76    69    1
    45    45    46    3
    46    70    69   ar
    47    70    71   ar
    48    47    48   ar
    49    75    71    1
    50    77    79    1
    51    46    39    1
    52    69    74   ar
    53    71    72   ar
    54    50    49   ar
    55    50    57    1
    56    83    88   ar
    57    83    84   ar
    58    48    49   ar
    59    48    40    1
    60    16    15   ar
    61    16    25    1
    62    44    43    1
    63    39    40   ar
    64    39    38   ar
    65    49    53    1
    66    40    41   ar
    67    29    25   ar
    68    29    28   ar
    69    43    38    1
    70    15    20    1
    71    74    73   ar
    72    72    81    1
    73    72    73   ar
    74    38    37   ar
    75    57    58    3
    76    41    37   ar
    77    41    42    1
    78    25    26   ar
    79    88    87   ar
    80    81    82    1
    81    37    28    1
    82    73    84    1
    83    28    27   ar
    84    58    59    1
    85    20    21    1
    86    26    27   ar
    87    26    31    1
    88    84    85   ar
    89    27    34    1
    90    36    34    1
    91    31    32    3
    92    35    34    1
    93    32    33    1
    94    87    90    1
    95    87    86   ar
    96    85    86   ar
    97    85    89    1
    98    21    22    1
    99    21    23    1
   100    21    24    1
   101    86    94    1
   102    94    95    1
