@<TRIPOS>MOLECULE
mol_data/opt/b3lyp/geoms/mol2/6ha12if-12id-13ei-.out
 48 51 0 0 0
SMALL
GASTEIGER

@<TRIPOS>ATOM
      1 C          -3.9245   -1.8251    1.0136 C.ar    1  LIG1        0.1169
      2 C          -2.6063   -1.8450    0.5076 C.ar    1  LIG1       -0.0221
      3 C          -2.1968   -0.7746   -0.2706 C.ar    1  LIG1       -0.0564
      4 C          -3.0720    0.2840   -0.5211 C.ar    1  LIG1       -0.0325
      5 C          -4.3569    0.2227    0.0390 C.ar    1  LIG1        0.1085
      6 N          -4.7755   -0.8209    0.7819 N.ar    1  LIG1       -0.2293
      7 H          -1.1950   -0.7609   -0.6904 H       1  LIG1        0.0619
      8 H          -1.9408   -2.6737    0.7280 H       1  LIG1        0.0652
      9 N          -4.3893   -2.8388    1.8295 N.pl3   1  LIG1       -0.3431
     10 H          -5.3913   -2.8375    1.9575 H       1  LIG1        0.1437
     11 H          -3.9713   -3.7507    1.7235 H       1  LIG1        0.1437
     12 H          -2.7718    1.1104   -1.1503 H       1  LIG1        0.0640
     13 C          -5.3260    1.3004   -0.1645 C.ar    1  LIG1        0.1605
     14 C          -5.2116    2.6094   -0.5944 C.ar    1  LIG1        0.0391
     15 C          -6.5385    3.1296   -0.5635 C.ar    1  LIG1        0.1694
     16 C          -7.3725    2.1362   -0.1028 C.ar    1  LIG1        0.2123
     17 O          -6.6268    1.0103    0.1350 O.2     1  LIG1       -0.4461
     18 C          -4.0058    3.3989   -1.0082 C.3     1  LIG1       -0.0325
     19 H          -4.2441    4.4651   -1.0075 H       1  LIG1        0.0280
     20 H          -3.6717    3.1409   -2.0205 H       1  LIG1        0.0280
     21 H          -3.1636    3.2360   -0.3291 H       1  LIG1        0.0280
     22 O          -6.8430    4.3982   -0.9496 O.3     1  LIG1       -0.5029
     23 H          -7.8041    4.4830   -1.0185 H       1  LIG1        0.2923
     24 C          -8.7912    2.0936    0.1269 C.ar    1  LIG1        0.1785
     25 C          -9.6891    3.0017    0.6253 C.ar    1  LIG1        0.0166
     26 C         -10.9818    2.3584    0.5579 C.ar    1  LIG1        0.1025
     27 C         -10.7819    1.0919    0.0299 C.ar    1  LIG1        0.1706
     28 O          -9.4522    0.9362   -0.2373 O.2     1  LIG1       -0.4485
     29 C          -9.4208    4.3539    1.2116 C.3     1  LIG1       -0.0348
     30 H          -9.9030    4.4488    2.1898 H       1  LIG1        0.0279
     31 H          -9.8277    5.1585    0.5868 H       1  LIG1        0.0279
     32 H          -8.3499    4.5247    1.3413 H       1  LIG1        0.0279
     33 N         -13.0690    3.4921    1.5640 N.1     1  LIG1       -0.1907
     34 C         -12.1623    2.9408    1.0838 C.1     1  LIG1        0.1033
     35 C         -11.5827   -0.0650   -0.2572 C.ar    1  LIG1        0.0992
     36 C         -12.9556   -0.2734   -0.4719 C.ar    1  LIG1        0.0558
     37 C         -13.1382   -1.6704   -0.7451 C.ar    1  LIG1       -0.0171
     38 C         -11.8887   -2.2520   -0.6997 C.ar    1  LIG1        0.0064
     39 N         -10.9629   -1.2854   -0.4123 N.ar    1  LIG1       -0.3570
     40 H          -9.9674   -1.4158   -0.3224 H       1  LIG1        0.1655
     41 H         -11.5952   -3.2804   -0.8499 H       1  LIG1        0.0810
     42 C         -13.9864    0.6954   -0.4942 C.1     1  LIG1       -0.0672
     43 C         -14.8969    1.4919   -0.5454 C.1     1  LIG1       -0.1138
     44 H         -15.6708    2.2237   -0.5495 H       1  LIG1        0.1232
     45 C         -14.4445   -2.3420   -1.0362 C.3     1  LIG1       -0.0371
     46 H         -14.3026   -3.4061   -1.2443 H       1  LIG1        0.0278
     47 H         -14.9395   -1.8898   -1.9027 H       1  LIG1        0.0278
     48 H         -15.1372   -2.2517   -0.1922 H       1  LIG1        0.0278
@<TRIPOS>BOND
     1    20    18    1
     2    47    45    1
     3    46    45    1
     4    12     4    1
     5    45    37    1
     6    45    48    1
     7    23    22    1
     8    18    19    1
     9    18    14    1
    10    18    21    1
    11    22    15    1
    12    41    38    1
    13    37    38   ar
    14    37    36   ar
    15    38    39   ar
    16     7     3    1
    17    14    15   ar
    18    14    13   ar
    19    15    16   ar
    20    44    43    1
    21    43    42    3
    22     4     3   ar
    23     4     5   ar
    24    42    36    1
    25    36    35   ar
    26    39    40    1
    27    39    35   ar
    28     3     2   ar
    29    35    27    1
    30    28    27   ar
    31    28    24   ar
    32    13     5    1
    33    13    17   ar
    34    16    24    1
    35    16    17   ar
    36    27    26   ar
    37     5     6   ar
    38    24    25   ar
    39     2     8    1
    40     2     1   ar
    41    26    25   ar
    42    26    34    1
    43    31    29    1
    44    25    29    1
    45     6     1   ar
    46     1     9    1
    47    34    33    3
    48    29    32    1
    49    29    30    1
    50    11     9    1
    51     9    10    1
