@<TRIPOS>MOLECULE
mol_data/opt/b3lyp/geoms/mol2/6ha6ha6ha.out
 35 37 0 0 0
SMALL
GASTEIGER

@<TRIPOS>ATOM
      1 C          -4.2287   -2.1546   -0.4575 C.ar    1  LIG1        0.1168
      2 C          -2.9221   -2.1404    0.0650 C.ar    1  LIG1       -0.0221
      3 C          -2.4589   -0.9506    0.6064 C.ar    1  LIG1       -0.0565
      4 C          -3.2716    0.1816    0.6100 C.ar    1  LIG1       -0.0355
      5 C          -4.5563    0.0957    0.0488 C.ar    1  LIG1        0.0764
      6 N          -5.0146   -1.0694   -0.4642 N.ar    1  LIG1       -0.2323
      7 H          -1.4629   -0.9040    1.0376 H       1  LIG1        0.0619
      8 H          -2.3128   -3.0384    0.0586 H       1  LIG1        0.0652
      9 N          -4.7877   -3.3175   -0.9567 N.pl3   1  LIG1       -0.3431
     10 H          -5.5866   -3.1727   -1.5577 H       1  LIG1        0.1437
     11 H          -4.1470   -4.0259   -1.2823 H       1  LIG1        0.1437
     12 H          -2.9248    1.1007    1.0645 H       1  LIG1        0.0639
     13 C          -6.8745    1.1960   -0.0747 C.ar    1  LIG1        0.1261
     14 C          -5.4478    1.2775   -0.0067 C.ar    1  LIG1        0.0399
     15 C          -4.9216    2.5736    0.0217 C.ar    1  LIG1       -0.0473
     16 C          -5.7331    3.6982   -0.0018 C.ar    1  LIG1       -0.0348
     17 C          -7.1265    3.5243   -0.0640 C.ar    1  LIG1        0.0764
     18 N          -7.6602    2.2878   -0.0906 N.ar    1  LIG1       -0.2317
     19 H          -3.8449    2.7071    0.0464 H       1  LIG1        0.0626
     20 N          -7.5261   -0.0030   -0.0851 N.pl3   1  LIG1       -0.3426
     21 H          -8.5023    0.0343   -0.3345 H       1  LIG1        0.1437
     22 H          -6.9674   -0.8039   -0.3598 H       1  LIG1        0.1437
     23 H          -5.2933    4.6857    0.0499 H       1  LIG1        0.0639
     24 C          -9.4172    4.6285    0.3019 C.ar    1  LIG1        0.1254
     25 C          -8.0451    4.6860   -0.1140 C.ar    1  LIG1        0.0399
     26 C          -7.5952    5.9262   -0.5813 C.ar    1  LIG1       -0.0478
     27 C          -8.4321    7.0378   -0.6097 C.ar    1  LIG1       -0.0428
     28 C          -9.7394    6.8659   -0.1585 C.ar    1  LIG1        0.0297
     29 N         -10.2279    5.7064    0.2784 N.ar    1  LIG1       -0.2401
     30 H          -6.5793    6.0153   -0.9525 H       1  LIG1        0.0626
     31 H         -10.4374    7.7024   -0.1585 H       1  LIG1        0.0830
     32 N          -9.9764    3.4860    0.7874 N.pl3   1  LIG1       -0.3426
     33 H         -10.9761    3.5149    0.9150 H       1  LIG1        0.1437
     34 H          -9.5018    2.6193    0.5629 H       1  LIG1        0.1437
     35 H          -8.0878    7.9974   -0.9788 H       1  LIG1        0.0633
@<TRIPOS>BOND
     1    10     9    1
     2    11     9    1
     3    35    27    1
     4     9     1    1
     5    30    26    1
     6    27    26   ar
     7    27    28   ar
     8    26    25   ar
     9     6     1   ar
    10     6     5   ar
    11     1     2   ar
    12    22    20    1
    13    21    20    1
    14    31    28    1
    15    28    29   ar
    16    25    17    1
    17    25    24   ar
    18    18    13   ar
    19    18    17   ar
    20    20    13    1
    21    13    14   ar
    22    17    16   ar
    23    14    15   ar
    24    14     5    1
    25    16    15   ar
    26    16    23    1
    27    15    19    1
    28     5     4   ar
    29     8     2    1
    30     2     3   ar
    31    29    24   ar
    32    24    32    1
    33    34    32    1
    34     3     4   ar
    35     3     7    1
    36     4    12    1
    37    32    33    1
