@<TRIPOS>MOLECULE
mol_data/opt/b3lyp/geoms/mol2/6ha6ha6ha-6ha-.out
 46 49 0 0 0
SMALL
GASTEIGER

@<TRIPOS>ATOM
      1 C          -4.2890   -2.2929   -0.4053 C.ar    1  LIG1        0.1168
      2 C          -3.0153   -2.3571    0.1902 C.ar    1  LIG1       -0.0221
      3 C          -2.5216   -1.2028    0.7794 C.ar    1  LIG1       -0.0565
      4 C          -3.2728   -0.0290    0.7591 C.ar    1  LIG1       -0.0355
      5 C          -4.5261   -0.0377    0.1254 C.ar    1  LIG1        0.0764
      6 N          -5.0153   -1.1673   -0.4354 N.ar    1  LIG1       -0.2323
      7 H          -1.5508   -1.2168    1.2668 H       1  LIG1        0.0619
      8 H          -2.4549   -3.2863    0.2013 H       1  LIG1        0.0652
      9 N          -4.8789   -3.4157   -0.9573 N.pl3   1  LIG1       -0.3431
     10 H          -5.6352   -3.2188   -1.5972 H       1  LIG1        0.1437
     11 H          -4.2599   -4.1529   -1.2600 H       1  LIG1        0.1437
     12 H          -2.9052    0.8632    1.2498 H       1  LIG1        0.0639
     13 C          -6.7807    1.1825   -0.0912 C.ar    1  LIG1        0.1261
     14 C          -5.3523    1.1903    0.0459 C.ar    1  LIG1        0.0399
     15 C          -4.7630    2.4542    0.1197 C.ar    1  LIG1       -0.0473
     16 C          -5.5164    3.6232    0.0725 C.ar    1  LIG1       -0.0348
     17 C          -6.9103    3.5088   -0.0554 C.ar    1  LIG1        0.0764
     18 N          -7.5099    2.3093   -0.1328 N.ar    1  LIG1       -0.2317
     19 H          -3.6836    2.5318    0.2026 H       1  LIG1        0.0626
     20 N          -7.4896    0.0204   -0.1490 N.pl3   1  LIG1       -0.3426
     21 H          -8.4620    0.1197   -0.3960 H       1  LIG1        0.1437
     22 H          -6.9725   -0.8109   -0.4097 H       1  LIG1        0.1437
     23 H          -5.0397    4.5896    0.1760 H       1  LIG1        0.0639
     24 C          -7.5005    5.9553   -0.6017 C.ar    1  LIG1        0.1261
     25 C          -7.8211    4.6800   -0.0660 C.ar    1  LIG1        0.0399
     26 C          -9.1048    4.5531    0.4760 C.ar    1  LIG1       -0.0473
     27 C          -9.9809    5.6266    0.5237 C.ar    1  LIG1       -0.0348
     28 C          -9.5708    6.8619   -0.0064 C.ar    1  LIG1        0.0764
     29 N          -8.3467    6.9942   -0.5578 N.ar    1  LIG1       -0.2317
     30 H          -9.3898    3.5866    0.8769 H       1  LIG1        0.0626
     31 N          -6.2825    6.2262   -1.2079 N.pl3   1  LIG1       -0.3426
     32 H          -5.8156    5.4389   -1.6363 H       1  LIG1        0.1437
     33 H          -6.3151    7.0518   -1.7912 H       1  LIG1        0.1437
     34 H         -10.9489    5.5167    0.9962 H       1  LIG1        0.0639
     35 C          -9.9858    9.3967   -0.0285 C.ar    1  LIG1        0.1254
     36 C         -10.4631    8.0447    0.0104 C.ar    1  LIG1        0.0399
     37 C         -11.8519    7.8836    0.0719 C.ar    1  LIG1       -0.0478
     38 C         -12.7076    8.9803    0.1206 C.ar    1  LIG1       -0.0428
     39 C         -12.1265   10.2465    0.1000 C.ar    1  LIG1        0.0297
     40 N         -10.8138   10.4598    0.0219 N.ar    1  LIG1       -0.2401
     41 H         -12.2699    6.8821    0.0565 H       1  LIG1        0.0626
     42 H         -12.7489   11.1400    0.1361 H       1  LIG1        0.0830
     43 N          -8.6564    9.6927   -0.0754 N.pl3   1  LIG1       -0.3426
     44 H          -8.0398    8.9576   -0.3998 H       1  LIG1        0.1437
     45 H          -8.4382   10.6621   -0.2464 H       1  LIG1        0.1437
     46 H         -13.7841    8.8578    0.1606 H       1  LIG1        0.0633
@<TRIPOS>BOND
     1    33    31    1
     2    32    31    1
     3    10     9    1
     4    11     9    1
     5    31    24    1
     6     9     1    1
     7    24    29   ar
     8    24    25   ar
     9    29    28   ar
    10     6     1   ar
    11     6     5   ar
    12    22    20    1
    13     1     2   ar
    14    44    43    1
    15    21    20    1
    16    45    43    1
    17    20    13    1
    18    18    13   ar
    19    18    17   ar
    20    13    14   ar
    21    43    35    1
    22    25    17    1
    23    25    26   ar
    24    17    16   ar
    25    35    36   ar
    26    35    40   ar
    27    28    36    1
    28    28    27   ar
    29    36    37   ar
    30    40    39   ar
    31    14    15   ar
    32    14     5    1
    33    41    37    1
    34    37    38   ar
    35    16    15   ar
    36    16    23    1
    37    39    38   ar
    38    39    42    1
    39    15    19    1
    40    38    46    1
    41     5     4   ar
    42     2     8    1
    43     2     3   ar
    44    26    27   ar
    45    26    30    1
    46    27    34    1
    47     4     3   ar
    48     4    12    1
    49     3     7    1
