@<TRIPOS>MOLECULE
mol_data/opt/b3lyp/geoms/mol2/6ha6ha-6ha6ha-.out
 46 49 0 0 0
SMALL
GASTEIGER

@<TRIPOS>ATOM
      1 C          -4.3789   -2.2730   -0.1606 C.ar    1  LIG1        0.1168
      2 C          -3.0206   -2.3442    0.2166 C.ar    1  LIG1       -0.0221
      3 C          -2.3801   -1.1603    0.5403 C.ar    1  LIG1       -0.0565
      4 C          -3.0717    0.0530    0.4749 C.ar    1  LIG1       -0.0355
      5 C          -4.4157    0.0329    0.0725 C.ar    1  LIG1        0.0764
      6 N          -5.0490   -1.1179   -0.2367 N.ar    1  LIG1       -0.2323
      7 H          -1.3407   -1.1751    0.8561 H       1  LIG1        0.0619
      8 H          -2.5079   -3.2998    0.2644 H       1  LIG1        0.0652
      9 N          -5.1046   -3.4164   -0.4344 N.pl3   1  LIG1       -0.3431
     10 H          -5.9771   -3.2467   -0.9144 H       1  LIG1        0.1437
     11 H          -4.5936   -4.2262   -0.7519 H       1  LIG1        0.1437
     12 H          -2.5951    0.9795    0.7693 H       1  LIG1        0.0639
     13 C          -4.7803    2.5523   -0.3415 C.ar    1  LIG1        0.1261
     14 C          -5.2553    1.2565    0.0088 C.ar    1  LIG1        0.0399
     15 C          -6.6190    1.1647    0.2954 C.ar    1  LIG1       -0.0473
     16 C          -7.4430    2.2850    0.2735 C.ar    1  LIG1       -0.0348
     17 C          -6.8751    3.5243   -0.0621 C.ar    1  LIG1        0.0764
     18 N          -5.5693    3.6324   -0.3703 N.ar    1  LIG1       -0.2317
     19 H          -7.0182    0.1902    0.5548 H       1  LIG1        0.0626
     20 N          -3.4575    2.7959   -0.6746 N.pl3   1  LIG1       -0.3426
     21 H          -2.9494    2.0328   -1.0993 H       1  LIG1        0.1437
     22 H          -3.3365    3.6900   -1.1318 H       1  LIG1        0.1437
     23 H          -8.4853    2.2091    0.5572 H       1  LIG1        0.0639
     24 C          -9.0169    4.9177   -0.3993 C.ar    1  LIG1        0.1261
     25 C          -7.6395    4.7958   -0.0591 C.ar    1  LIG1        0.0399
     26 C          -6.9898    5.9837    0.2846 C.ar    1  LIG1       -0.0473
     27 C          -7.6681    7.1970    0.3252 C.ar    1  LIG1       -0.0348
     28 C          -9.0324    7.2100   -0.0053 C.ar    1  LIG1        0.0764
     29 N          -9.6729    6.0833   -0.3672 N.ar    1  LIG1       -0.2317
     30 H          -5.9365    5.9308    0.5382 H       1  LIG1        0.0626
     31 N          -9.7873    3.8332   -0.7863 N.pl3   1  LIG1       -0.3426
     32 H         -10.6534    4.1161   -1.2254 H       1  LIG1        0.1437
     33 H          -9.3054    3.0771   -1.2520 H       1  LIG1        0.1437
     34 H          -7.1665    8.1004    0.6488 H       1  LIG1        0.0639
     35 C          -9.4032    9.7480   -0.2231 C.ar    1  LIG1        0.1254
     36 C          -9.8717    8.4340    0.0603 C.ar    1  LIG1        0.0399
     37 C         -11.2226    8.3130    0.4011 C.ar    1  LIG1       -0.0478
     38 C         -12.0362    9.4376    0.5072 C.ar    1  LIG1       -0.0428
     39 C         -11.4581   10.6768    0.2450 C.ar    1  LIG1        0.0297
     40 N         -10.1853   10.8354   -0.1256 N.ar    1  LIG1       -0.2401
     41 H         -11.6110    7.3176    0.5870 H       1  LIG1        0.0626
     42 H         -12.0445   11.5910    0.3234 H       1  LIG1        0.0830
     43 N          -8.0985   10.0107   -0.6108 N.pl3   1  LIG1       -0.3426
     44 H          -7.6225    9.2829   -1.1252 H       1  LIG1        0.1437
     45 H          -7.9982   10.9382   -1.0018 H       1  LIG1        0.1437
     46 H         -13.0810    9.3571    0.7866 H       1  LIG1        0.0633
@<TRIPOS>BOND
     1    33    31    1
     2    32    31    1
     3    22    20    1
     4    44    43    1
     5    21    20    1
     6    45    43    1
     7    10     9    1
     8    31    24    1
     9    11     9    1
    10    20    13    1
    11    43    35    1
    12     9     1    1
    13    24    29   ar
    14    24    25   ar
    15    18    13   ar
    16    18    17   ar
    17    29    28   ar
    18    13    14   ar
    19     6     1   ar
    20     6     5   ar
    21    35    40   ar
    22    35    36   ar
    23     1     2   ar
    24    40    39   ar
    25    17    25    1
    26    17    16   ar
    27    25    26   ar
    28    28    36    1
    29    28    27   ar
    30    14     5    1
    31    14    15   ar
    32    36    37   ar
    33     5     4   ar
    34     2     8    1
    35     2     3   ar
    36    39    42    1
    37    39    38   ar
    38    16    15   ar
    39    16    23    1
    40    26    27   ar
    41    26    30    1
    42    15    19    1
    43    27    34    1
    44    37    38   ar
    45    37    41    1
    46     4     3   ar
    47     4    12    1
    48    38    46    1
    49     3     7    1
