@<TRIPOS>MOLECULE
mol_data/opt/b3lyp/geoms/mol2/6ha6ha-6ha-6ha-.out
 46 49 0 0 0
SMALL
GASTEIGER

@<TRIPOS>ATOM
      1 C          -4.5674   -2.3140   -0.0394 C.ar    1  LIG1        0.1168
      2 C          -3.1729   -2.4543    0.1304 C.ar    1  LIG1       -0.0221
      3 C          -2.4206   -1.2990    0.2547 C.ar    1  LIG1       -0.0565
      4 C          -3.0411   -0.0473    0.1964 C.ar    1  LIG1       -0.0355
      5 C          -4.4304   -0.0007    0.0048 C.ar    1  LIG1        0.0764
      6 N          -5.1715   -1.1226   -0.1073 N.ar    1  LIG1       -0.2323
      7 H          -1.3472   -1.3649    0.4094 H       1  LIG1        0.0619
      8 H          -2.7165   -3.4380    0.1777 H       1  LIG1        0.0652
      9 N          -5.3932   -3.4193   -0.1042 N.pl3   1  LIG1       -0.3431
     10 H          -6.3192   -3.2238   -0.4573 H       1  LIG1        0.1437
     11 H          -4.9873   -4.2851   -0.4254 H       1  LIG1        0.1437
     12 H          -2.4702    0.8610    0.3424 H       1  LIG1        0.0639
     13 C          -4.7082    2.4953   -0.5632 C.ar    1  LIG1        0.1261
     14 C          -5.1958    1.2707   -0.0361 C.ar    1  LIG1        0.0399
     15 C          -6.5032    1.2997    0.4609 C.ar    1  LIG1       -0.0473
     16 C          -7.2488    2.4686    0.4736 C.ar    1  LIG1       -0.0348
     17 C          -6.6788    3.6435   -0.0462 C.ar    1  LIG1        0.0764
     18 N          -5.4281    3.6262   -0.5540 N.ar    1  LIG1       -0.2317
     19 H          -6.9151    0.3771    0.8550 H       1  LIG1        0.0626
     20 N          -3.4447    2.6167   -1.1221 N.pl3   1  LIG1       -0.3426
     21 H          -3.0538    1.7754   -1.5231 H       1  LIG1        0.1437
     22 H          -3.3565    3.4329   -1.7126 H       1  LIG1        0.1437
     23 H          -8.2391    2.4741    0.9110 H       1  LIG1        0.0639
     24 C          -6.8012    6.2077   -0.1297 C.ar    1  LIG1        0.1261
     25 C          -7.4250    4.9210   -0.0670 C.ar    1  LIG1        0.0399
     26 C          -8.8236    4.9359   -0.0083 C.ar    1  LIG1       -0.0473
     27 C          -9.5477    6.1183   -0.0013 C.ar    1  LIG1       -0.0348
     28 C          -8.8512    7.3380   -0.0620 C.ar    1  LIG1        0.0764
     29 N          -7.5055    7.3539   -0.1160 N.ar    1  LIG1       -0.2317
     30 H          -9.3630    3.9948    0.0163 H       1  LIG1        0.0626
     31 N          -5.4450    6.3475   -0.1654 N.pl3   1  LIG1       -0.3426
     32 H          -4.9245    5.5246   -0.4502 H       1  LIG1        0.1437
     33 H          -5.1062    7.2659   -0.4062 H       1  LIG1        0.1437
     34 H         -10.6271    6.0925    0.0729 H       1  LIG1        0.0639
     35 C          -8.9773    9.8724    0.3392 C.ar    1  LIG1        0.1254
     36 C          -9.5694    8.6339   -0.0785 C.ar    1  LIG1        0.0399
     37 C         -10.8980    8.7029   -0.5133 C.ar    1  LIG1       -0.0478
     38 C         -11.6013    9.9038   -0.5091 C.ar    1  LIG1       -0.0428
     39 C         -10.9279   11.0380   -0.0592 C.ar    1  LIG1        0.0297
     40 N          -9.6595   11.0362    0.3471 N.ar    1  LIG1       -0.2401
     41 H         -11.3809    7.8049   -0.8849 H       1  LIG1        0.0626
     42 H         -11.4303   12.0044   -0.0346 H       1  LIG1        0.0830
     43 N          -7.6964    9.9419    0.7945 N.pl3   1  LIG1       -0.3426
     44 H          -7.0860    9.1713    0.5482 H       1  LIG1        0.1437
     45 H          -7.3344   10.8734    0.9273 H       1  LIG1        0.1437
     46 H         -12.6281    9.9607   -0.8527 H       1  LIG1        0.0633
@<TRIPOS>BOND
     1    22    20    1
     2    21    20    1
     3    20    13    1
     4    41    37    1
     5    46    38    1
     6    13    18   ar
     7    13    14   ar
     8    18    17   ar
     9    37    38   ar
    10    37    36   ar
    11    38    39   ar
    12    10     9    1
    13    32    31    1
    14    11     9    1
    15    33    31    1
    16    31    24    1
    17    24    29   ar
    18    24    25   ar
    19    29    28   ar
    20     6     1   ar
    21     6     5   ar
    22     9     1    1
    23    36    28    1
    24    36    35   ar
    25    25    17    1
    26    25    26   ar
    27    28    27   ar
    28    39    42    1
    29    39    40   ar
    30    17    16   ar
    31     1     2   ar
    32    14     5    1
    33    14    15   ar
    34    26    27   ar
    35    26    30    1
    36    27    34    1
    37     5     4   ar
    38     2     8    1
    39     2     3   ar
    40     4     3   ar
    41     4    12    1
    42     3     7    1
    43    35    40   ar
    44    35    43    1
    45    15    16   ar
    46    15    19    1
    47    16    23    1
    48    44    43    1
    49    43    45    1
