@<TRIPOS>MOLECULE
mol_data/opt/b3lyp/geoms/mol2/6ha6ha-6ha.out
 35 37 0 0 0
SMALL
GASTEIGER

@<TRIPOS>ATOM
      1 C          -4.4208   -2.1638   -0.1323 C.ar    1  LIG1        0.1168
      2 C          -3.0359   -2.2194    0.1343 C.ar    1  LIG1       -0.0221
      3 C          -2.3775   -1.0241    0.3678 C.ar    1  LIG1       -0.0565
      4 C          -3.0789    0.1844    0.3222 C.ar    1  LIG1       -0.0355
      5 C          -4.4512    0.1480    0.0321 C.ar    1  LIG1        0.0764
      6 N          -5.1013   -1.0138   -0.1885 N.ar    1  LIG1       -0.2323
      7 H          -1.3156   -1.0259    0.5975 H       1  LIG1        0.0619
      8 H          -2.5158   -3.1715    0.1690 H       1  LIG1        0.0652
      9 N          -5.1602   -3.3176   -0.3111 N.pl3   1  LIG1       -0.3431
     10 H          -6.0694   -3.1644   -0.7241 H       1  LIG1        0.1437
     11 H          -4.6719   -4.1338   -0.6474 H       1  LIG1        0.1437
     12 H          -2.5854    1.1214    0.5471 H       1  LIG1        0.0639
     13 C          -4.8605    2.6514   -0.4305 C.ar    1  LIG1        0.1261
     14 C          -5.2990    1.3669   -0.0011 C.ar    1  LIG1        0.0399
     15 C          -6.6343    1.2818    0.3993 C.ar    1  LIG1       -0.0473
     16 C          -7.4624    2.3993    0.4092 C.ar    1  LIG1       -0.0348
     17 C          -6.9294    3.6282   -0.0105 C.ar    1  LIG1        0.0764
     18 N          -5.6541    3.7285   -0.4282 N.ar    1  LIG1       -0.2317
     19 H          -7.0068    0.3154    0.7212 H       1  LIG1        0.0626
     20 N          -3.5703    2.8874   -0.8791 N.pl3   1  LIG1       -0.3426
     21 H          -3.0966    2.1124   -1.3218 H       1  LIG1        0.1437
     22 H          -3.4935    3.7661   -1.3741 H       1  LIG1        0.1437
     23 H          -8.4789    2.3306    0.7759 H       1  LIG1        0.0639
     24 C          -9.0998    4.9979   -0.2140 C.ar    1  LIG1        0.1254
     25 C          -7.6986    4.8988    0.0169 C.ar    1  LIG1        0.0399
     26 C          -7.0211    6.0965    0.2665 C.ar    1  LIG1       -0.0478
     27 C          -7.7085    7.3049    0.3372 C.ar    1  LIG1       -0.0428
     28 C          -9.0855    7.2745    0.1338 C.ar    1  LIG1        0.0297
     29 N          -9.7666    6.1619   -0.1502 N.ar    1  LIG1       -0.2401
     30 H          -5.9472    6.0505    0.4108 H       1  LIG1        0.0626
     31 H          -9.6755    8.1882    0.1888 H       1  LIG1        0.0830
     32 N          -9.8894    3.8982   -0.5115 N.pl3   1  LIG1       -0.3426
     33 H         -10.7926    4.1678   -0.8786 H       1  LIG1        0.1437
     34 H          -9.4430    3.1394   -1.0072 H       1  LIG1        0.1437
     35 H          -7.1957    8.2374    0.5462 H       1  LIG1        0.0633
@<TRIPOS>BOND
     1    22    20    1
     2    21    20    1
     3    34    32    1
     4    20    13    1
     5    33    32    1
     6    10     9    1
     7    11     9    1
     8    32    24    1
     9    13    18   ar
    10    13    14   ar
    11    18    17   ar
    12     9     1    1
    13    24    29   ar
    14    24    25   ar
    15     6     1   ar
    16     6     5   ar
    17    29    28   ar
    18     1     2   ar
    19    17    25    1
    20    17    16   ar
    21    14     5    1
    22    14    15   ar
    23    25    26   ar
    24     5     4   ar
    25    28    31    1
    26    28    27   ar
    27     2     8    1
    28     2     3   ar
    29    26    27   ar
    30    26    30    1
    31     4     3   ar
    32     4    12    1
    33    27    35    1
    34     3     7    1
    35    15    16   ar
    36    15    19    1
    37    16    23    1
