@<TRIPOS>MOLECULE
mol_data/opt/b3lyp/geoms/mol2/6ha6ha-6ha-6ha.out
 46 49 0 0 0
SMALL
GASTEIGER

@<TRIPOS>ATOM
      1 C          -4.4725   -2.2835    0.0134 C.ar    1  LIG1        0.1168
      2 C          -3.0705   -2.3885    0.1414 C.ar    1  LIG1       -0.0221
      3 C          -2.3426   -1.2140    0.2248 C.ar    1  LIG1       -0.0565
      4 C          -2.9943    0.0217    0.1675 C.ar    1  LIG1       -0.0355
      5 C          -4.3896    0.0329    0.0190 C.ar    1  LIG1        0.0764
      6 N          -5.1067   -1.1077   -0.0533 N.ar    1  LIG1       -0.2323
      7 H          -1.2636   -1.2523    0.3467 H       1  LIG1        0.0619
      8 H          -2.5894   -3.3603    0.1891 H       1  LIG1        0.0652
      9 N          -5.2734   -3.4086   -0.0086 N.pl3   1  LIG1       -0.3431
     10 H          -6.2145   -3.2403   -0.3347 H       1  LIG1        0.1437
     11 H          -4.8574   -4.2696   -0.3299 H       1  LIG1        0.1437
     12 H          -2.4409    0.9454    0.2820 H       1  LIG1        0.0639
     13 C          -4.7433    2.5139   -0.5727 C.ar    1  LIG1        0.1261
     14 C          -5.1861    1.2853   -0.0162 C.ar    1  LIG1        0.0399
     15 C          -6.4788    1.2904    0.5189 C.ar    1  LIG1       -0.0473
     16 C          -7.2508    2.4419    0.5392 C.ar    1  LIG1       -0.0348
     17 C          -6.7236    3.6228   -0.0115 C.ar    1  LIG1        0.0764
     18 N          -5.4888    3.6281   -0.5561 N.ar    1  LIG1       -0.2317
     19 H          -6.8570    0.3638    0.9366 H       1  LIG1        0.0626
     20 N          -3.4998    2.6577   -1.1702 N.pl3   1  LIG1       -0.3426
     21 H          -3.1021    1.8211   -1.5745 H       1  LIG1        0.1437
     22 H          -3.4485    3.4693   -1.7714 H       1  LIG1        0.1437
     23 H          -8.2277    2.4309    1.0057 H       1  LIG1        0.0639
     24 C          -6.9028    6.1865   -0.1098 C.ar    1  LIG1        0.1261
     25 C          -7.4988    4.8837   -0.0230 C.ar    1  LIG1        0.0399
     26 C          -8.8933    4.8674    0.0673 C.ar    1  LIG1       -0.0473
     27 C          -9.6453    6.0373    0.0791 C.ar    1  LIG1       -0.0348
     28 C          -8.9659    7.2637   -0.0027 C.ar    1  LIG1        0.0764
     29 N          -7.6275    7.3173   -0.0936 N.ar    1  LIG1       -0.2317
     30 H          -9.4111    3.9149    0.1150 H       1  LIG1        0.0626
     31 N          -5.5528    6.3557   -0.1753 N.pl3   1  LIG1       -0.3426
     32 H          -5.0098    5.5519   -0.4677 H       1  LIG1        0.1437
     33 H          -5.2437    7.2925   -0.3833 H       1  LIG1        0.1437
     34 H         -10.7219    6.0006    0.1856 H       1  LIG1        0.0639
     35 C         -10.9607    8.8261   -0.4660 C.ar    1  LIG1        0.1254
     36 C          -9.6598    8.5766    0.0550 C.ar    1  LIG1        0.0399
     37 C          -9.0036    9.6638    0.6413 C.ar    1  LIG1       -0.0478
     38 C          -9.6301   10.9020    0.7509 C.ar    1  LIG1       -0.0428
     39 C         -10.9205   11.0176    0.2410 C.ar    1  LIG1        0.0297
     40 N         -11.5677   10.0199   -0.3659 N.ar    1  LIG1       -0.2401
     41 H          -7.9971    9.5062    1.0129 H       1  LIG1        0.0626
     42 H         -11.4627   11.9596    0.3095 H       1  LIG1        0.0830
     43 N         -11.7101    7.8526   -1.1091 N.pl3   1  LIG1       -0.3426
     44 H         -12.4852    8.2502   -1.6235 H       1  LIG1        0.1437
     45 H         -11.1947    7.1413   -1.6084 H       1  LIG1        0.1437
     46 H          -9.1370   11.7474    1.2183 H       1  LIG1        0.0633
@<TRIPOS>BOND
     1    22    20    1
     2    44    43    1
     3    45    43    1
     4    21    20    1
     5    20    13    1
     6    43    35    1
     7    13    18   ar
     8    13    14   ar
     9    18    17   ar
    10    32    31    1
    11    35    40   ar
    12    35    36   ar
    13    33    31    1
    14    40    39   ar
    15    10     9    1
    16    11     9    1
    17    31    24    1
    18    24    29   ar
    19    24    25   ar
    20    29    28   ar
    21     6     1   ar
    22     6     5   ar
    23    25    17    1
    24    25    26   ar
    25    14     5    1
    26    14    15   ar
    27    17    16   ar
    28     9     1    1
    29    28    36    1
    30    28    27   ar
    31     1     2   ar
    32     5     4   ar
    33    36    37   ar
    34    26    27   ar
    35    26    30    1
    36    27    34    1
    37     2     8    1
    38     2     3   ar
    39     4     3   ar
    40     4    12    1
    41     3     7    1
    42    39    42    1
    43    39    38   ar
    44    15    16   ar
    45    15    19    1
    46    16    23    1
    47    37    38   ar
    48    37    41    1
    49    38    46    1
