@<TRIPOS>MOLECULE
mol_data/opt/b3lyp/geoms/mol2/6ha6ha-4ha6ha.out
 47 50 0 0 0
SMALL
GASTEIGER

@<TRIPOS>ATOM
      1 C          -4.4542   -2.2755    0.1203 C.ar    1  LIG1        0.1168
      2 C          -3.0461   -2.3722    0.1406 C.ar    1  LIG1       -0.0221
      3 C          -2.3205   -1.1935    0.1117 C.ar    1  LIG1       -0.0565
      4 C          -2.9814    0.0370    0.0500 C.ar    1  LIG1       -0.0355
      5 C          -4.3843    0.0391    0.0130 C.ar    1  LIG1        0.0764
      6 N          -5.0981   -1.1054    0.0502 N.ar    1  LIG1       -0.2323
      7 H          -1.2350   -1.2240    0.1487 H       1  LIG1        0.0619
      8 H          -2.5573   -3.3399    0.1945 H       1  LIG1        0.0652
      9 N          -5.2486   -3.4018    0.2147 N.pl3   1  LIG1       -0.3431
     10 H          -6.2135   -3.2494   -0.0427 H       1  LIG1        0.1437
     11 H          -4.8556   -4.2759   -0.1002 H       1  LIG1        0.1437
     12 H          -2.4256    0.9658    0.0772 H       1  LIG1        0.0639
     13 C          -4.7944    2.4919   -0.6551 C.ar    1  LIG1        0.1261
     14 C          -5.1880    1.2872   -0.0156 C.ar    1  LIG1        0.0399
     15 C          -6.4362    1.3132    0.6160 C.ar    1  LIG1       -0.0473
     16 C          -7.2094    2.4639    0.6463 C.ar    1  LIG1       -0.0349
     17 C          -6.7307    3.6208    0.0080 C.ar    1  LIG1        0.0749
     18 N          -5.5411    3.6047   -0.6291 N.ar    1  LIG1       -0.2317
     19 H          -6.7767    0.4048    1.1007 H       1  LIG1        0.0626
     20 N          -3.5999    2.6126   -1.3517 N.pl3   1  LIG1       -0.3426
     21 H          -3.2355    1.7610   -1.7562 H       1  LIG1        0.1437
     22 H          -3.6018    3.3999   -1.9867 H       1  LIG1        0.1437
     23 H          -8.1481    2.4760    1.1855 H       1  LIG1        0.0639
     24 C          -6.9120    6.1705   -0.0954 C.ar    1  LIG1        0.0344
     25 C          -7.7390    7.3099   -0.0605 C.ar    1  LIG1       -0.0326
     26 C          -7.5137    4.8800    0.0013 C.ar    1  LIG1        0.0211
     27 C          -9.1286    7.2314    0.0529 C.ar    1  LIG1       -0.0128
     28 H          -7.2688    8.2866   -0.1449 H       1  LIG1        0.0642
     29 C          -8.9148    4.8234    0.1000 C.ar    1  LIG1       -0.0502
     30 C          -9.7191    5.9544    0.1234 C.ar    1  LIG1       -0.0532
     31 H          -9.3927    3.8499    0.1384 H       1  LIG1        0.0625
     32 N          -5.5449    6.3307   -0.1677 N.pl3   1  LIG1       -0.3574
     33 H          -5.0455    5.5226   -0.5234 H       1  LIG1        0.1423
     34 H          -5.2181    7.2350   -0.4730 H       1  LIG1        0.1423
     35 H         -10.7946    5.8548    0.2171 H       1  LIG1        0.0624
     36 C         -11.1194    8.6780   -0.6490 C.ar    1  LIG1        0.1239
     37 C          -9.9370    8.4766    0.1214 C.ar    1  LIG1        0.0217
     38 C          -9.5461    9.5335    0.9455 C.ar    1  LIG1       -0.0493
     39 C         -10.2958   10.7088    1.0105 C.ar    1  LIG1       -0.0429
     40 C         -11.4360   10.7869    0.2184 C.ar    1  LIG1        0.0297
     41 N         -11.8400    9.8089   -0.5984 N.ar    1  LIG1       -0.2401
     42 H          -8.6551    9.4168    1.5558 H       1  LIG1        0.0625
     43 H         -12.0597   11.6794    0.2304 H       1  LIG1        0.0830
     44 N         -11.6151    7.7041   -1.4945 N.pl3   1  LIG1       -0.3427
     45 H         -12.2881    8.0569   -2.1604 H       1  LIG1        0.1437
     46 H         -10.9612    7.0215   -1.8489 H       1  LIG1        0.1437
     47 H         -10.0064   11.5300    1.6571 H       1  LIG1        0.0633
@<TRIPOS>BOND
     1    45    44    1
     2    22    20    1
     3    46    44    1
     4    21    20    1
     5    44    36    1
     6    20    13    1
     7    13    18   ar
     8    13    14   ar
     9    36    41   ar
    10    36    37   ar
    11    18    17   ar
    12    41    40   ar
    13    33    32    1
    14    34    32    1
    15    32    24    1
    16    28    25    1
    17    11     9    1
    18    24    25   ar
    19    24    26   ar
    20    25    27   ar
    21    10     9    1
    22    14     5    1
    23    14    15   ar
    24    26    17    1
    25    26    29   ar
    26    17    16   ar
    27     5     4   ar
    28     5     6   ar
    29     4    12    1
    30     4     3   ar
    31     6     1   ar
    32    27    37    1
    33    27    30   ar
    34    29    30   ar
    35    29    31    1
    36     3     2   ar
    37     3     7    1
    38     1     2   ar
    39     1     9    1
    40    37    38   ar
    41    30    35    1
    42     2     8    1
    43    40    43    1
    44    40    39   ar
    45    15    16   ar
    46    15    19    1
    47    16    23    1
    48    38    39   ar
    49    38    42    1
    50    39    47    1
