@<TRIPOS>MOLECULE
mol_data/opt/b3lyp/geoms/mol2/6ha6ha6ha6ha-.out
 46 49 0 0 0
SMALL
GASTEIGER

@<TRIPOS>ATOM
      1 C          -4.0500   -2.1819   -0.6233 C.ar    1  LIG1        0.1168
      2 C          -2.8650   -2.2555    0.1328 C.ar    1  LIG1       -0.0221
      3 C          -2.5368   -1.1638    0.9223 C.ar    1  LIG1       -0.0565
      4 C          -3.3596   -0.0388    0.9404 C.ar    1  LIG1       -0.0355
      5 C          -4.5139   -0.0308    0.1407 C.ar    1  LIG1        0.0764
      6 N          -4.8435   -1.1023   -0.6168 N.ar    1  LIG1       -0.2323
      7 H          -1.6407   -1.1897    1.5358 H       1  LIG1        0.0619
      8 H          -2.2467   -3.1469    0.1084 H       1  LIG1        0.0652
      9 N          -4.4805   -3.2528   -1.3857 N.pl3   1  LIG1       -0.3431
     10 H          -5.1554   -3.0144   -2.0984 H       1  LIG1        0.1437
     11 H          -3.7760   -3.9105   -1.6845 H       1  LIG1        0.1437
     12 H          -3.1242    0.7990    1.5840 H       1  LIG1        0.0639
     13 C          -6.7937    1.0891   -0.2418 C.ar    1  LIG1        0.1261
     14 C          -5.4046    1.1522    0.0946 C.ar    1  LIG1        0.0399
     15 C          -4.9192    2.4273    0.4041 C.ar    1  LIG1       -0.0473
     16 C          -5.7366    3.5479    0.3971 C.ar    1  LIG1       -0.0348
     17 C          -7.0929    3.3921    0.0628 C.ar    1  LIG1        0.0764
     18 N          -7.5870    2.1753   -0.2392 N.ar    1  LIG1       -0.2317
     19 H          -3.8673    2.5498    0.6414 H       1  LIG1        0.0626
     20 N          -7.4061   -0.0918   -0.5456 N.pl3   1  LIG1       -0.3426
     21 H          -8.3225   -0.0135   -0.9588 H       1  LIG1        0.1437
     22 H          -6.7896   -0.8453   -0.8307 H       1  LIG1        0.1437
     23 H          -5.3324    4.5148    0.6674 H       1  LIG1        0.0639
     24 C          -9.4383    4.4419    0.1611 C.ar    1  LIG1        0.1261
     25 C          -8.0136    4.5506    0.0202 C.ar    1  LIG1        0.0399
     26 C          -7.5257    5.8484   -0.1545 C.ar    1  LIG1       -0.0473
     27 C          -8.3677    6.9551   -0.1834 C.ar    1  LIG1       -0.0348
     28 C          -9.7475    6.7431   -0.0298 C.ar    1  LIG1        0.0764
     29 N         -10.2521    5.5107    0.1390 N.ar    1  LIG1       -0.2317
     30 H          -6.4598    6.0013   -0.2892 H       1  LIG1        0.0626
     31 N         -10.0487    3.2423    0.3646 N.pl3   1  LIG1       -0.3426
     32 H         -11.0548    3.2514    0.3013 H       1  LIG1        0.1437
     33 H          -9.5161    2.4175    0.1113 H       1  LIG1        0.1437
     34 H          -7.9641    7.9543   -0.2867 H       1  LIG1        0.0639
     35 C         -10.6169    9.0624   -0.7352 C.ar    1  LIG1        0.1254
     36 C         -10.7351    7.8532    0.0063 C.ar    1  LIG1        0.0399
     37 C         -11.8778    7.7173    0.8009 C.ar    1  LIG1       -0.0478
     38 C         -12.8107    8.7466    0.8922 C.ar    1  LIG1       -0.0428
     39 C         -12.5700    9.9006    0.1514 C.ar    1  LIG1        0.0297
     40 N         -11.5163   10.0564   -0.6537 N.ar    1  LIG1       -0.2401
     41 H         -12.0067    6.7891    1.3468 H       1  LIG1        0.0626
     42 H         -13.2607   10.7416    0.1932 H       1  LIG1        0.0830
     43 N          -9.5573    9.3143   -1.5935 N.pl3   1  LIG1       -0.3426
     44 H          -9.1361    8.5111   -2.0388 H       1  LIG1        0.1437
     45 H          -9.7503   10.0880   -2.2161 H       1  LIG1        0.1437
     46 H         -13.6921    8.6591    1.5180 H       1  LIG1        0.0633
@<TRIPOS>BOND
     1    45    43    1
     2    10     9    1
     3    44    43    1
     4    11     9    1
     5    43    35    1
     6     9     1    1
     7    21    20    1
     8    22    20    1
     9    35    40   ar
    10    35    36   ar
    11    40    39   ar
    12     1     6   ar
    13     1     2   ar
    14     6     5   ar
    15    20    13    1
    16    30    26    1
    17    34    27    1
    18    13    18   ar
    19    13    14   ar
    20    18    17   ar
    21    27    26   ar
    22    27    28   ar
    23    26    25   ar
    24    28    36    1
    25    28    29   ar
    26    36    37   ar
    27    25    17    1
    28    25    24   ar
    29    17    16   ar
    30    14     5    1
    31    14    15   ar
    32     8     2    1
    33    33    31    1
    34     2     3   ar
    35    29    24   ar
    36     5     4   ar
    37    39    42    1
    38    39    38   ar
    39    24    31    1
    40    32    31    1
    41    16    15   ar
    42    16    23    1
    43    15    19    1
    44    37    38   ar
    45    37    41    1
    46    38    46    1
    47     3     4   ar
    48     3     7    1
    49     4    12    1
