@<TRIPOS>MOLECULE
mol_data/opt/b3lyp/geoms/mol2/6ha6ha6ha6ha.out
 46 49 0 0 0
SMALL
GASTEIGER

@<TRIPOS>ATOM
      1 C          -3.9759   -2.1638   -0.6119 C.ar    1  LIG1        0.1168
      2 C          -2.7723   -2.1871    0.1173 C.ar    1  LIG1       -0.0221
      3 C          -2.4516   -1.0646    0.8658 C.ar    1  LIG1       -0.0565
      4 C          -3.3002    0.0412    0.8703 C.ar    1  LIG1       -0.0355
      5 C          -4.4727   -0.0018    0.0987 C.ar    1  LIG1        0.0764
      6 N          -4.7944   -1.1030   -0.6185 N.ar    1  LIG1       -0.2323
      7 H          -1.5410   -1.0514    1.4581 H       1  LIG1        0.0619
      8 H          -2.1337   -3.0644    0.1047 H       1  LIG1        0.0652
      9 N          -4.3987   -3.2668   -1.3314 N.pl3   1  LIG1       -0.3431
     10 H          -5.0955   -3.0661   -2.0346 H       1  LIG1        0.1437
     11 H          -3.6863   -3.9177   -1.6266 H       1  LIG1        0.1437
     12 H          -3.0701    0.9033    1.4829 H       1  LIG1        0.0639
     13 C          -6.7874    1.0525   -0.2600 C.ar    1  LIG1        0.1261
     14 C          -5.3925    1.1582    0.0398 C.ar    1  LIG1        0.0399
     15 C          -4.9307    2.4529    0.2994 C.ar    1  LIG1       -0.0473
     16 C          -5.7748    3.5536    0.2804 C.ar    1  LIG1       -0.0348
     17 C          -7.1349    3.3563   -0.0138 C.ar    1  LIG1        0.0764
     18 N          -7.6064    2.1193   -0.2679 N.ar    1  LIG1       -0.2317
     19 H          -3.8766    2.6072    0.5063 H       1  LIG1        0.0626
     20 N          -7.3776   -0.1509   -0.5155 N.pl3   1  LIG1       -0.3426
     21 H          -8.3048   -0.1070   -0.9091 H       1  LIG1        0.1437
     22 H          -6.7490   -0.8970   -0.7939 H       1  LIG1        0.1437
     23 H          -5.3872    4.5371    0.5120 H       1  LIG1        0.0639
     24 C          -9.4978    4.3540    0.1097 C.ar    1  LIG1        0.1261
     25 C          -8.0835    4.4907   -0.0669 C.ar    1  LIG1        0.0399
     26 C          -7.6306    5.7968   -0.2857 C.ar    1  LIG1       -0.0473
     27 C          -8.4955    6.8804   -0.3180 C.ar    1  LIG1       -0.0348
     28 C          -9.8701    6.6536   -0.1297 C.ar    1  LIG1        0.0764
     29 N         -10.3340    5.4079    0.0866 N.ar    1  LIG1       -0.2317
     30 H          -6.5726    5.9696   -0.4530 H       1  LIG1        0.0626
     31 N         -10.0758    3.1439    0.3536 N.pl3   1  LIG1       -0.3426
     32 H         -11.0799    3.1128    0.2693 H       1  LIG1        0.1437
     33 H          -9.5179    2.3330    0.1049 H       1  LIG1        0.1437
     34 H          -8.1072    7.8802   -0.4632 H       1  LIG1        0.0639
     35 C         -12.1291    7.7203    0.4689 C.ar    1  LIG1        0.1254
     36 C         -10.8467    7.7673   -0.1731 C.ar    1  LIG1        0.0399
     37 C         -10.5465    8.9475   -0.8626 C.ar    1  LIG1       -0.0478
     38 C         -11.4370   10.0167   -0.8925 C.ar    1  LIG1       -0.0428
     39 C         -12.6435    9.8635   -0.2122 C.ar    1  LIG1        0.0297
     40 N         -12.9912    8.7575    0.4436 N.ar    1  LIG1       -0.2401
     41 H          -9.6100    9.0192   -1.4063 H       1  LIG1        0.0626
     42 H         -13.3775   10.6686   -0.2026 H       1  LIG1        0.0830
     43 N         -12.5394    6.6353    1.1817 N.pl3   1  LIG1       -0.3426
     44 H         -13.5058    6.6475    1.4686 H       1  LIG1        0.1437
     45 H         -12.0604    5.7625    0.9916 H       1  LIG1        0.1437
     46 H         -11.2098   10.9289   -1.4327 H       1  LIG1        0.0633
@<TRIPOS>BOND
     1    10     9    1
     2    11     9    1
     3    46    38    1
     4    41    37    1
     5     9     1    1
     6    21    20    1
     7    38    37   ar
     8    38    39   ar
     9    37    36   ar
    10    22    20    1
    11     6     1   ar
    12     6     5   ar
    13     1     2   ar
    14    20    13    1
    15    34    27    1
    16    30    26    1
    17    27    26   ar
    18    27    28   ar
    19    26    25   ar
    20    18    13   ar
    21    18    17   ar
    22    13    14   ar
    23    39    42    1
    24    39    40   ar
    25    36    28    1
    26    36    35   ar
    27    28    29   ar
    28    25    17    1
    29    25    24   ar
    30    17    16   ar
    31    14     5    1
    32    14    15   ar
    33    29    24   ar
    34     5     4   ar
    35     8     2    1
    36    33    31    1
    37    24    31    1
    38     2     3   ar
    39    32    31    1
    40    16    15   ar
    41    16    23    1
    42    15    19    1
    43    40    35   ar
    44    35    43    1
    45     3     4   ar
    46     3     7    1
    47     4    12    1
    48    45    43    1
    49    43    44    1
