@<TRIPOS>MOLECULE
mol_data/opt/b3lyp/geoms/mol2/6ha6ha.out
 24 25 0 0 0
SMALL
GASTEIGER

@<TRIPOS>ATOM
      1 C          -4.4149   -2.0900   -0.2936 C.ar    1  LIG1        0.1168
      2 C          -3.0431   -2.0715    0.0200 C.ar    1  LIG1       -0.0221
      3 C          -2.4740   -0.8493    0.3452 C.ar    1  LIG1       -0.0565
      4 C          -3.2508    0.3081    0.3425 C.ar    1  LIG1       -0.0355
      5 C          -4.6082    0.2119   -0.0038 C.ar    1  LIG1        0.0764
      6 N          -5.1677   -0.9817   -0.3049 N.ar    1  LIG1       -0.2323
      7 H          -1.4223   -0.7962    0.6125 H       1  LIG1        0.0619
      8 H          -2.4632   -2.9888    0.0247 H       1  LIG1        0.0652
      9 N          -5.0718   -3.2773   -0.5668 N.pl3   1  LIG1       -0.3431
     10 H          -5.9508   -3.1630   -1.0516 H       1  LIG1        0.1437
     11 H          -4.5063   -4.0394   -0.9101 H       1  LIG1        0.1437
     12 H          -2.8190    1.2581    0.6304 H       1  LIG1        0.0639
     13 C          -6.8904    1.3829    0.1409 C.ar    1  LIG1        0.1254
     14 C          -5.4711    1.4176   -0.0566 C.ar    1  LIG1        0.0399
     15 C          -4.9128    2.6760   -0.3037 C.ar    1  LIG1       -0.0478
     16 C          -5.6978    3.8257   -0.3237 C.ar    1  LIG1       -0.0428
     17 C          -7.0630    3.6714   -0.0930 C.ar    1  LIG1        0.0297
     18 N          -7.6510    2.4959    0.1261 N.ar    1  LIG1       -0.2401
     19 H          -3.8494    2.7517   -0.5079 H       1  LIG1        0.0626
     20 H          -7.7246    4.5369   -0.0962 H       1  LIG1        0.0830
     21 N          -7.5561    0.2215    0.4011 N.pl3   1  LIG1       -0.3426
     22 H          -8.5618    0.2907    0.3746 H       1  LIG1        0.1437
     23 H          -7.0931   -0.6358    0.1255 H       1  LIG1        0.1437
     24 H          -5.2692    4.8016   -0.5224 H       1  LIG1        0.0633
@<TRIPOS>BOND
     1    10     9    1
     2    11     9    1
     3     9     1    1
     4    24    16    1
     5    19    15    1
     6    16    15   ar
     7    16    17   ar
     8     6     1   ar
     9     6     5   ar
    10    15    14   ar
    11     1     2   ar
    12    20    17    1
    13    17    18   ar
    14    14     5    1
    15    14    13   ar
    16     5     4   ar
    17     2     8    1
    18     2     3   ar
    19    23    21    1
    20    18    13   ar
    21    13    21    1
    22     4     3   ar
    23     4    12    1
    24     3     7    1
    25    22    21    1
