@<TRIPOS>MOLECULE
mol_data/opt/b3lyp/geoms/mol2/6ha6ha-.out
 24 25 0 0 0
SMALL
GASTEIGER

@<TRIPOS>ATOM
      1 C          -4.5101   -2.0690   -0.2832 C.ar    1  LIG1        0.1168
      2 C          -3.1465   -2.1532    0.0704 C.ar    1  LIG1       -0.0221
      3 C          -2.5017   -0.9815    0.4286 C.ar    1  LIG1       -0.0565
      4 C          -3.1950    0.2325    0.4202 C.ar    1  LIG1       -0.0355
      5 C          -4.5451    0.2260    0.0393 C.ar    1  LIG1        0.0764
      6 N          -5.1820   -0.9127   -0.3036 N.ar    1  LIG1       -0.2323
      7 H          -1.4571   -1.0070    0.7267 H       1  LIG1        0.0619
      8 H          -2.6325   -3.1093    0.0735 H       1  LIG1        0.0652
      9 N          -5.2399   -3.2020   -0.5910 N.pl3   1  LIG1       -0.3431
     10 H          -6.1180   -3.0112   -1.0528 H       1  LIG1        0.1437
     11 H          -4.7323   -3.9943   -0.9550 H       1  LIG1        0.1437
     12 H          -2.7145    1.1494    0.7373 H       1  LIG1        0.0639
     13 C          -4.9087    2.7557   -0.2813 C.ar    1  LIG1        0.1254
     14 C          -5.3858    1.4528    0.0348 C.ar    1  LIG1        0.0399
     15 C          -6.7459    1.3431    0.3397 C.ar    1  LIG1       -0.0478
     16 C          -7.5627    2.4698    0.3787 C.ar    1  LIG1       -0.0428
     17 C          -6.9773    3.6989    0.0870 C.ar    1  LIG1        0.0297
     18 N          -5.6936    3.8448   -0.2497 N.ar    1  LIG1       -0.2401
     19 H          -7.1399    0.3549    0.5508 H       1  LIG1        0.0626
     20 H          -7.5661    4.6146    0.1120 H       1  LIG1        0.0830
     21 N          -3.5909    3.0067   -0.6342 N.pl3   1  LIG1       -0.3426
     22 H          -3.1009    2.2615   -1.1093 H       1  LIG1        0.1437
     23 H          -3.4811    3.9185   -1.0588 H       1  LIG1        0.1437
     24 H          -8.6155    2.3985    0.6291 H       1  LIG1        0.0633
@<TRIPOS>BOND
     1    22    21    1
     2    23    21    1
     3    10     9    1
     4    11     9    1
     5    21    13    1
     6     9     1    1
     7     6     1   ar
     8     6     5   ar
     9     1     2   ar
    10    13    18   ar
    11    13    14   ar
    12    18    17   ar
    13    14     5    1
    14    14    15   ar
    15     5     4   ar
    16     2     8    1
    17     2     3   ar
    18    17    20    1
    19    17    16   ar
    20    15    16   ar
    21    15    19    1
    22    16    24    1
    23     4     3   ar
    24     4    12    1
    25     3     7    1
