@<TRIPOS>MOLECULE
mol_data/opt/b3lyp/geoms/mol2/6ha6ha6ha-6ha.out
 46 49 0 0 0
SMALL
GASTEIGER

@<TRIPOS>ATOM
      1 C          -4.2090   -2.2572   -0.3878 C.ar    1  LIG1        0.1168
      2 C          -2.9231   -2.2880    0.1833 C.ar    1  LIG1       -0.0221
      3 C          -2.4428   -1.1170    0.7502 C.ar    1  LIG1       -0.0565
      4 C          -3.2189    0.0405    0.7318 C.ar    1  LIG1       -0.0355
      5 C          -4.4838   -0.0016    0.1229 C.ar    1  LIG1        0.0764
      6 N          -4.9596   -1.1476   -0.4157 N.ar    1  LIG1       -0.2323
      7 H          -1.4627   -1.1051    1.2187 H       1  LIG1        0.0619
      8 H          -2.3430   -3.2050    0.1932 H       1  LIG1        0.0652
      9 N          -4.7856   -3.3984   -0.9164 N.pl3   1  LIG1       -0.3431
     10 H          -5.5570   -3.2235   -1.5447 H       1  LIG1        0.1437
     11 H          -4.1563   -4.1247   -1.2243 H       1  LIG1        0.1437
     12 H          -2.8609    0.9457    1.2054 H       1  LIG1        0.0639
     13 C          -6.7670    1.1690   -0.0652 C.ar    1  LIG1        0.1261
     14 C          -5.3369    1.2079    0.0458 C.ar    1  LIG1        0.0399
     15 C          -4.7728    2.4846    0.0940 C.ar    1  LIG1       -0.0473
     16 C          -5.5510    3.6370    0.0464 C.ar    1  LIG1       -0.0348
     17 C          -6.9443    3.4924   -0.0546 C.ar    1  LIG1        0.0764
     18 N          -7.5202    2.2800   -0.1075 N.ar    1  LIG1       -0.2317
     19 H          -3.6939    2.5856    0.1555 H       1  LIG1        0.0626
     20 N          -7.4528   -0.0081   -0.0956 N.pl3   1  LIG1       -0.3426
     21 H          -8.4315    0.0685   -0.3250 H       1  LIG1        0.1437
     22 H          -6.9239   -0.8321   -0.3557 H       1  LIG1        0.1437
     23 H          -5.0937    4.6149    0.1259 H       1  LIG1        0.0639
     24 C          -7.5928    5.9235   -0.6211 C.ar    1  LIG1        0.1261
     25 C          -7.8786    4.6456   -0.0617 C.ar    1  LIG1        0.0399
     26 C          -9.1474    4.4988    0.5039 C.ar    1  LIG1       -0.0473
     27 C         -10.0505    5.5555    0.5460 C.ar    1  LIG1       -0.0348
     28 C          -9.6658    6.7848   -0.0119 C.ar    1  LIG1        0.0764
     29 N          -8.4600    6.9419   -0.5883 N.ar    1  LIG1       -0.2317
     30 H          -9.4041    3.5341    0.9278 H       1  LIG1        0.0626
     31 N          -6.3876    6.2133   -1.2412 N.pl3   1  LIG1       -0.3426
     32 H          -5.9140    5.4423   -1.6909 H       1  LIG1        0.1437
     33 H          -6.4372    7.0583   -1.7950 H       1  LIG1        0.1437
     34 H         -11.0085    5.4446    1.0385 H       1  LIG1        0.0639
     35 C         -11.9440    7.9826   -0.0400 C.ar    1  LIG1        0.1254
     36 C         -10.5222    7.9979    0.0283 C.ar    1  LIG1        0.0399
     37 C          -9.9152    9.2545    0.1186 C.ar    1  LIG1       -0.0478
     38 C         -10.6815   10.4144    0.1937 C.ar    1  LIG1       -0.0428
     39 C         -12.0662   10.2739    0.1576 C.ar    1  LIG1        0.0297
     40 N         -12.6872    9.0991    0.0281 N.ar    1  LIG1       -0.2401
     41 H          -8.8315    9.2937    0.1364 H       1  LIG1        0.0626
     42 H         -12.7149   11.1462    0.2235 H       1  LIG1        0.0830
     43 N         -12.6747    6.8120   -0.1705 N.pl3   1  LIG1       -0.3426
     44 H         -13.6315    6.9904   -0.4461 H       1  LIG1        0.1437
     45 H         -12.2291    6.0512   -0.6640 H       1  LIG1        0.1437
     46 H         -10.2219   11.3929    0.2806 H       1  LIG1        0.0633
@<TRIPOS>BOND
     1    33    31    1
     2    32    31    1
     3    10     9    1
     4    31    24    1
     5    11     9    1
     6     9     1    1
     7    45    43    1
     8    24    29   ar
     9    24    25   ar
    10    29    28   ar
    11    44    43    1
    12     6     1   ar
    13     6     5   ar
    14     1     2   ar
    15    22    20    1
    16    21    20    1
    17    43    35    1
    18    18    13   ar
    19    18    17   ar
    20    20    13    1
    21    13    14   ar
    22    25    17    1
    23    25    26   ar
    24    17    16   ar
    25    35    40   ar
    26    35    36   ar
    27    28    36    1
    28    28    27   ar
    29    40    39   ar
    30    36    37   ar
    31    14    15   ar
    32    14     5    1
    33    16    15   ar
    34    16    23    1
    35    15    19    1
    36    37    41    1
    37    37    38   ar
    38     5     4   ar
    39    39    38   ar
    40    39    42    1
    41     2     8    1
    42     2     3   ar
    43    38    46    1
    44    26    27   ar
    45    26    30    1
    46    27    34    1
    47     4     3   ar
    48     4    12    1
    49     3     7    1
