@<TRIPOS>MOLECULE
mol_data/opt/b3lyp/geoms/mol2/6hd6hd-.out
 26 27 0 0 0
SMALL
GASTEIGER

@<TRIPOS>ATOM
      1 C          -4.4534   -2.0256   -0.5298 C.ar    1  LIG1        0.1169
      2 C          -3.1287   -2.1466   -0.0456 C.ar    1  LIG1       -0.0208
      3 C          -2.5272   -1.0215    0.4696 C.ar    1  LIG1       -0.0390
      4 C          -3.2180    0.2105    0.4843 C.ar    1  LIG1        0.0779
      5 C          -4.5250    0.2468   -0.0607 C.ar    1  LIG1        0.0937
      6 N          -5.1159   -0.8570   -0.5338 N.ar    1  LIG1       -0.2310
      7 H          -1.5241   -1.0714    0.8802 H       1  LIG1        0.0632
      8 H          -2.6110   -3.0995   -0.0718 H       1  LIG1        0.0652
      9 N          -5.1202   -3.0915   -1.0540 N.pl3   1  LIG1       -0.3431
     10 H          -6.0985   -2.9631   -1.2621 H       1  LIG1        0.1437
     11 H          -4.7858   -4.0287   -0.9033 H       1  LIG1        0.1437
     12 N          -2.0730    2.2601    1.5824 N.1     1  LIG1       -0.1908
     13 C          -2.6036    1.3443    1.0954 C.1     1  LIG1        0.1013
     14 C          -4.9745    2.7218   -0.6594 C.ar    1  LIG1        0.1255
     15 C          -5.3695    1.4739   -0.0901 C.ar    1  LIG1        0.0424
     16 C          -6.6691    1.3810    0.3943 C.ar    1  LIG1       -0.0304
     17 C          -7.5221    2.4939    0.3770 C.ar    1  LIG1        0.0706
     18 C          -7.0101    3.6868   -0.1611 C.ar    1  LIG1        0.0471
     19 N          -5.7909    3.7963   -0.6668 N.ar    1  LIG1       -0.2388
     20 H          -7.0156    0.4340    0.7921 H       1  LIG1        0.0638
     21 H          -7.6259    4.5832   -0.1793 H       1  LIG1        0.0843
     22 N          -3.7894    2.9078   -1.3097 N.pl3   1  LIG1       -0.3426
     23 H          -3.0072    2.3032   -1.1219 H       1  LIG1        0.1437
     24 H          -3.5681    3.8730   -1.5080 H       1  LIG1        0.1437
     25 N          -9.9402    2.3730    1.3022 N.1     1  LIG1       -0.1908
     26 C          -8.8532    2.4259    0.8883 C.1     1  LIG1        0.1007
@<TRIPOS>BOND
     1    24    22    1
     2    22    23    1
     3    22    14    1
     4    10     9    1
     5     9    11    1
     6     9     1    1
     7    19    14   ar
     8    19    18   ar
     9    14    15   ar
    10     6     1   ar
    11     6     5   ar
    12     1     2   ar
    13    21    18    1
    14    18    17   ar
    15    15     5    1
    16    15    16   ar
    17     8     2    1
    18     5     4   ar
    19     2     3   ar
    20    17    16   ar
    21    17    26    1
    22    16    20    1
    23     3     4   ar
    24     3     7    1
    25     4    13    1
    26    26    25    3
    27    13    12    3
