@<TRIPOS>MOLECULE
mol_data/opt/b3lyp/geoms/mol2/6hd6hd-6hd-6hd-.out
 50 53 0 0 0
SMALL
GASTEIGER

@<TRIPOS>ATOM
      1 C          -4.5534   -2.2821   -0.3662 C.ar    1  LIG1        0.1169
      2 C          -3.1553   -2.4465   -0.2072 C.ar    1  LIG1       -0.0208
      3 C          -2.3968   -1.3233    0.0263 C.ar    1  LIG1       -0.0390
      4 C          -3.0090   -0.0509    0.0820 C.ar    1  LIG1        0.0779
      5 C          -4.4069    0.0223   -0.1337 C.ar    1  LIG1        0.0937
      6 N          -5.1445   -1.0749   -0.3373 N.ar    1  LIG1       -0.2310
      7 H          -1.3263   -1.4040    0.1839 H       1  LIG1        0.0632
      8 H          -2.7026   -3.4313   -0.2502 H       1  LIG1        0.0652
      9 N          -5.3796   -3.3462   -0.5418 N.pl3   1  LIG1       -0.3431
     10 H          -6.3473   -3.1599   -0.7539 H       1  LIG1        0.1437
     11 H          -5.0148   -4.2674   -0.7154 H       1  LIG1        0.1437
     12 N          -1.5581    2.0211    0.6463 N.1     1  LIG1       -0.1908
     13 C          -2.2186    1.0919    0.4051 C.1     1  LIG1        0.1013
     14 C          -4.8819    2.4704   -0.8333 C.ar    1  LIG1        0.1262
     15 C          -5.1802    1.2943   -0.0850 C.ar    1  LIG1        0.0424
     16 C          -6.3264    1.3353    0.6938 C.ar    1  LIG1       -0.0298
     17 C          -7.1255    2.4864    0.7797 C.ar    1  LIG1        0.0785
     18 C          -6.7392    3.6197    0.0201 C.ar    1  LIG1        0.0937
     19 N          -5.6344    3.5818   -0.7386 N.ar    1  LIG1       -0.2304
     20 H          -6.6032    0.4548    1.2624 H       1  LIG1        0.0639
     21 N          -3.8795    2.5316   -1.7537 N.pl3   1  LIG1       -0.3426
     22 H          -3.1073    1.8882   -1.7110 H       1  LIG1        0.1437
     23 H          -3.6824    3.4458   -2.1316 H       1  LIG1        0.1437
     24 N          -9.1247    2.3987    2.4273 N.1     1  LIG1       -0.1908
     25 C          -8.2361    2.4657    1.6779 C.1     1  LIG1        0.1013
     26 C          -6.8817    6.1724   -0.0689 C.ar    1  LIG1        0.1262
     27 C          -7.5098    4.8874    0.0103 C.ar    1  LIG1        0.0424
     28 C          -8.8974    4.8939    0.0662 C.ar    1  LIG1       -0.0298
     29 C          -9.6376    6.0876    0.0584 C.ar    1  LIG1        0.0785
     30 C          -8.9282    7.3144   -0.0037 C.ar    1  LIG1        0.0937
     31 N          -7.5878    7.3160   -0.0445 N.ar    1  LIG1       -0.2304
     32 H          -9.4438    3.9603    0.1147 H       1  LIG1        0.0639
     33 N          -5.5325    6.3124   -0.1282 N.pl3   1  LIG1       -0.3426
     34 H          -5.0105    5.5104   -0.4578 H       1  LIG1        0.1437
     35 H          -5.1948    7.2386   -0.3422 H       1  LIG1        0.1437
     36 N         -12.2137    5.8648    0.2446 N.1     1  LIG1       -0.1908
     37 C         -11.0593    5.9922    0.1615 C.1     1  LIG1        0.1013
     38 C          -9.0355    9.7938    0.6110 C.ar    1  LIG1        0.1255
     39 C          -9.5961    8.6387   -0.0336 C.ar    1  LIG1        0.0424
     40 C         -10.7950    8.8245   -0.7173 C.ar    1  LIG1       -0.0304
     41 C         -11.4290   10.0758   -0.7292 C.ar    1  LIG1        0.0706
     42 C         -10.8156   11.1187   -0.0152 C.ar    1  LIG1        0.0471
     43 N          -9.6643   10.9889    0.6259 N.ar    1  LIG1       -0.2388
     44 H         -11.2488    8.0044   -1.2593 H       1  LIG1        0.0638
     45 H         -11.2830   12.1005    0.0188 H       1  LIG1        0.0843
     46 N          -7.8600    9.7500    1.2836 N.pl3   1  LIG1       -0.3426
     47 H          -7.2202    9.0008    1.0572 H       1  LIG1        0.1437
     48 H          -7.5136   10.6363    1.6177 H       1  LIG1        0.1437
     49 N         -13.6272   10.4988   -2.0354 N.1     1  LIG1       -0.1908
     50 C         -12.6429   10.2980   -1.4470 C.1     1  LIG1        0.1007
@<TRIPOS>BOND
     1    23    21    1
     2    49    50    3
     3    21    22    1
     4    21    14    1
     5    50    41    1
     6    44    40    1
     7    14    19   ar
     8    14    15   ar
     9    10     9    1
    10    19    18   ar
    11    41    40   ar
    12    41    42   ar
    13    40    39   ar
    14    11     9    1
    15     9     1    1
    16    34    33    1
    17     1     6   ar
    18     1     2   ar
    19    35    33    1
    20     6     5   ar
    21     8     2    1
    22     2     3   ar
    23     5    15    1
    24     5     4   ar
    25    33    26    1
    26    15    16   ar
    27    26    31   ar
    28    26    27   ar
    29    31    30   ar
    30    39    30    1
    31    39    38   ar
    32    42    45    1
    33    42    43   ar
    34    30    29   ar
    35    27    18    1
    36    27    28   ar
    37    18    17   ar
    38     3     4   ar
    39     3     7    1
    40    29    28   ar
    41    29    37    1
    42    28    32    1
    43     4    13    1
    44    37    36    3
    45    13    12    3
    46    38    43   ar
    47    38    46    1
    48    16    17   ar
    49    16    20    1
    50    17    25    1
    51    47    46    1
    52    46    48    1
    53    25    24    3
