@<TRIPOS>MOLECULE
mol_data/opt/b3lyp/geoms/mol2/6hd6hd-4hd6hd.out
 51 54 0 0 0
SMALL
GASTEIGER

@<TRIPOS>ATOM
      1 C          -4.5018   -2.2749   -0.0884 C.ar    1  LIG1        0.1169
      2 C          -3.0920   -2.4094   -0.0566 C.ar    1  LIG1       -0.0208
      3 C          -2.3369   -1.2614   -0.0008 C.ar    1  LIG1       -0.0390
      4 C          -2.9657    0.0040    0.0033 C.ar    1  LIG1        0.0779
      5 C          -4.3795    0.0430   -0.0767 C.ar    1  LIG1        0.0937
      6 N          -5.1109   -1.0767   -0.1076 N.ar    1  LIG1       -0.2310
      7 H          -1.2546   -1.3155    0.0549 H       1  LIG1        0.0632
      8 H          -2.6261   -3.3891   -0.0577 H       1  LIG1        0.0652
      9 N          -5.3202   -3.3596   -0.0861 N.pl3   1  LIG1       -0.3431
     10 H          -6.3079   -3.2038   -0.2125 H       1  LIG1        0.1437
     11 H          -4.9561   -4.2891   -0.2088 H       1  LIG1        0.1437
     12 N          -1.5039    2.1320    0.2292 N.1     1  LIG1       -0.1908
     13 C          -2.1685    1.1789    0.1415 C.1     1  LIG1        0.1013
     14 C          -4.9697    2.4158   -0.9332 C.ar    1  LIG1        0.1262
     15 C          -5.1701    1.3049   -0.0629 C.ar    1  LIG1        0.0424
     16 C          -6.2384    1.3983    0.8167 C.ar    1  LIG1       -0.0298
     17 C          -7.0498    2.5417    0.8806 C.ar    1  LIG1        0.0785
     18 C          -6.7619    3.6100   -0.0060 C.ar    1  LIG1        0.0922
     19 N          -5.7345    3.5207   -0.8624 N.ar    1  LIG1       -0.2304
     20 H          -6.4409    0.5669    1.4822 H       1  LIG1        0.0639
     21 N          -4.0611    2.4118   -1.9500 N.pl3   1  LIG1       -0.3426
     22 H          -3.2640    1.7985   -1.9164 H       1  LIG1        0.1437
     23 H          -3.9226    3.2973   -2.4133 H       1  LIG1        0.1437
     24 N          -8.8826    2.5693    2.7137 N.1     1  LIG1       -0.1908
     25 C          -8.0708    2.5858    1.8792 C.1     1  LIG1        0.1013
     26 C          -6.9439    6.1419   -0.2261 C.ar    1  LIG1        0.0345
     27 C          -7.7617    7.2921   -0.2173 C.ar    1  LIG1       -0.0313
     28 C          -7.5576    4.8644   -0.0435 C.ar    1  LIG1        0.0235
     29 C          -9.1427    7.2363   -0.0805 C.ar    1  LIG1        0.0046
     30 H          -7.2899    8.2613   -0.3512 H       1  LIG1        0.0643
     31 C          -8.9465    4.8135    0.0832 C.ar    1  LIG1       -0.0328
     32 C          -9.7508    5.9616    0.0639 C.ar    1  LIG1        0.0603
     33 H          -9.4367    3.8547    0.1986 H       1  LIG1        0.0638
     34 N          -5.5909    6.2790   -0.3573 N.pl3   1  LIG1       -0.3574
     35 H          -5.0924    5.4670   -0.6973 H       1  LIG1        0.1423
     36 H          -5.2366    7.1831   -0.6280 H       1  LIG1        0.1423
     37 N         -12.3210    5.6935    0.2972 N.1     1  LIG1       -0.1908
     38 C         -11.1664    5.8194    0.2101 C.1     1  LIG1        0.0998
     39 C         -10.8869    8.8374   -1.0668 C.ar    1  LIG1        0.1240
     40 C          -9.9212    8.5063   -0.0686 C.ar    1  LIG1        0.0242
     41 C          -9.6745    9.4554    0.9135 C.ar    1  LIG1       -0.0318
     42 C         -10.3725   10.6760    0.9201 C.ar    1  LIG1        0.0705
     43 C         -11.3142   10.8840   -0.0995 C.ar    1  LIG1        0.0471
     44 N         -11.5625   10.0023   -1.0592 N.ar    1  LIG1       -0.2388
     45 H          -8.9460    9.2454    1.6899 H       1  LIG1        0.0638
     46 H         -11.8868   11.8083   -0.1293 H       1  LIG1        0.0843
     47 N         -11.1391    8.0251   -2.1360 N.pl3   1  LIG1       -0.3427
     48 H         -11.9704    8.2652   -2.6569 H       1  LIG1        0.1437
     49 H         -10.9290    7.0422   -2.0668 H       1  LIG1        0.1437
     50 N          -9.9454   12.4808    2.7304 N.1     1  LIG1       -0.1908
     51 C         -10.1387   11.6668    1.9206 C.1     1  LIG1        0.1007
@<TRIPOS>BOND
     1    48    47    1
     2    23    21    1
     3    47    49    1
     4    47    39    1
     5    21    22    1
     6    21    14    1
     7    39    44   ar
     8    39    40   ar
     9    44    43   ar
    10    14    19   ar
    11    14    15   ar
    12    19    18   ar
    13    35    34    1
    14    36    34    1
    15    34    26    1
    16    30    27    1
    17    26    27   ar
    18    26    28   ar
    19    27    29   ar
    20    10     9    1
    21    11     9    1
    22    46    43    1
    23     6     1   ar
    24     6     5   ar
    25    43    42   ar
    26     1     9    1
    27     1     2   ar
    28    29    40    1
    29    29    32   ar
    30     5    15    1
    31     5     4   ar
    32    40    41   ar
    33    15    16   ar
    34     8     2    1
    35     2     3   ar
    36    28    18    1
    37    28    31   ar
    38    18    17   ar
    39     3     4   ar
    40     3     7    1
    41     4    13    1
    42    32    31   ar
    43    32    38    1
    44    31    33    1
    45    13    12    3
    46    38    37    3
    47    16    17   ar
    48    16    20    1
    49    17    25    1
    50    41    42   ar
    51    41    45    1
    52    42    51    1
    53    25    24    3
    54    51    50    3
