@<TRIPOS>MOLECULE
mol_data/opt/b3lyp/geoms/mol2/6hd6hd.out
 26 27 0 0 0
SMALL
GASTEIGER

@<TRIPOS>ATOM
      1 C          -4.4348   -2.0694   -0.4768 C.ar    1  LIG1        0.1169
      2 C          -3.0603   -2.1027   -0.1564 C.ar    1  LIG1       -0.0208
      3 C          -2.4739   -0.9327    0.2717 C.ar    1  LIG1       -0.0390
      4 C          -3.2265    0.2571    0.3593 C.ar    1  LIG1        0.0779
      5 C          -4.5913    0.2148   -0.0226 C.ar    1  LIG1        0.0937
      6 N          -5.1596   -0.9425   -0.4065 N.ar    1  LIG1       -0.2310
      7 H          -1.4271   -0.9146    0.5563 H       1  LIG1        0.0632
      8 H          -2.4937   -3.0249   -0.2258 H       1  LIG1        0.0652
      9 N          -5.1098   -3.2023   -0.8445 N.pl3   1  LIG1       -0.3431
     10 H          -6.0092   -3.0653   -1.2811 H       1  LIG1        0.1437
     11 H          -4.5820   -4.0038   -1.1523 H       1  LIG1        0.1437
     12 N          -2.0048    2.3304    1.3225 N.1     1  LIG1       -0.1908
     13 C          -2.5813    1.4194    0.8822 C.1     1  LIG1        0.1013
     14 C          -6.8536    1.3560    0.3306 C.ar    1  LIG1        0.1255
     15 C          -5.4636    1.4161   -0.0243 C.ar    1  LIG1        0.0424
     16 C          -4.9665    2.6615   -0.3982 C.ar    1  LIG1       -0.0304
     17 C          -5.7884    3.7984   -0.3801 C.ar    1  LIG1        0.0706
     18 C          -7.1178    3.6281    0.0404 C.ar    1  LIG1        0.0471
     19 N          -7.6347    2.4562    0.3776 N.ar    1  LIG1       -0.2388
     20 H          -3.9374    2.7657   -0.7190 H       1  LIG1        0.0638
     21 H          -7.7853    4.4857    0.0883 H       1  LIG1        0.0843
     22 N          -7.4620    0.1966    0.6839 N.pl3   1  LIG1       -0.3426
     23 H          -8.4607    0.2518    0.8150 H       1  LIG1        0.1437
     24 H          -7.0351   -0.6651    0.3724 H       1  LIG1        0.1437
     25 N          -4.9325    6.1303   -1.1200 N.1     1  LIG1       -0.1908
     26 C          -5.3077    5.0806   -0.7844 C.1     1  LIG1        0.1007
@<TRIPOS>BOND
     1    10     9    1
     2    11     9    1
     3    25    26    3
     4     9     1    1
     5    26    17    1
     6    20    16    1
     7     1     6   ar
     8     1     2   ar
     9     6     5   ar
    10    16    17   ar
    11    16    15   ar
    12    17    18   ar
    13     8     2    1
    14     2     3   ar
    15    15     5    1
    16    15    14   ar
    17     5     4   ar
    18    18    21    1
    19    18    19   ar
    20     3     4   ar
    21     3     7    1
    22    14    19   ar
    23    14    22    1
    24     4    13    1
    25    24    22    1
    26    22    23    1
    27    13    12    3
