@<TRIPOS>MOLECULE
mol_data/opt/b3lyp/geoms/mol2/6hd6hd-6hd6hd-.out
 50 53 0 0 0
SMALL
GASTEIGER

@<TRIPOS>ATOM
      1 C          -4.3534   -2.2076   -0.5996 C.ar    1  LIG1        0.1169
      2 C          -3.0161   -2.3542   -0.1572 C.ar    1  LIG1       -0.0208
      3 C          -2.3882   -1.2514    0.3731 C.ar    1  LIG1       -0.0390
      4 C          -3.0672   -0.0146    0.4478 C.ar    1  LIG1        0.0779
      5 C          -4.3877    0.0491   -0.0587 C.ar    1  LIG1        0.0937
      6 N          -5.0028   -1.0314   -0.5533 N.ar    1  LIG1       -0.2310
      7 H          -1.3737   -1.3227    0.7510 H       1  LIG1        0.0632
      8 H          -2.5114   -3.3124   -0.2195 H       1  LIG1        0.0652
      9 N          -5.0636   -3.2631   -1.0806 N.pl3   1  LIG1       -0.3431
     10 H          -5.9624   -3.0696   -1.4941 H       1  LIG1        0.1437
     11 H          -4.6098   -4.1324   -1.3055 H       1  LIG1        0.1437
     12 N          -1.8814    2.0014    1.5641 N.1     1  LIG1       -0.1908
     13 C          -2.4266    1.0968    1.0720 C.1     1  LIG1        0.1013
     14 C          -4.8442    2.5518   -0.5615 C.ar    1  LIG1        0.1262
     15 C          -5.2234    1.2828   -0.0274 C.ar    1  LIG1        0.0424
     16 C          -6.5057    1.1881    0.4902 C.ar    1  LIG1       -0.0298
     17 C          -7.3677    2.2970    0.5261 C.ar    1  LIG1        0.0785
     18 C          -6.8982    3.5165   -0.0216 C.ar    1  LIG1        0.0937
     19 N          -5.6716    3.6138   -0.5353 N.ar    1  LIG1       -0.2304
     20 H          -6.8410    0.2380    0.8905 H       1  LIG1        0.0639
     21 N          -3.6678    2.7688   -1.2113 N.pl3   1  LIG1       -0.3426
     22 H          -2.8752    2.1712   -1.0459 H       1  LIG1        0.1437
     23 H          -3.4652    3.7378   -1.4109 H       1  LIG1        0.1437
     24 N          -9.6875    2.0433    1.6543 N.1     1  LIG1       -0.1908
     25 C          -8.6411    2.1694    1.1578 C.1     1  LIG1        0.1013
     26 C          -8.9985    4.9402   -0.5470 C.ar    1  LIG1        0.1262
     27 C          -7.6820    4.7830   -0.0170 C.ar    1  LIG1        0.0424
     28 C          -7.0684    5.9289    0.4657 C.ar    1  LIG1       -0.0298
     29 C          -7.7283    7.1690    0.4696 C.ar    1  LIG1        0.0785
     30 C          -9.0355    7.2248   -0.0765 C.ar    1  LIG1        0.0937
     31 N          -9.6276    6.1300   -0.5548 N.ar    1  LIG1       -0.2304
     32 H          -6.0626    5.8580    0.8645 H       1  LIG1        0.0639
     33 N          -9.6834    3.9359   -1.1615 N.pl3   1  LIG1       -0.3426
     34 H         -10.6516    4.1448   -1.3587 H       1  LIG1        0.1437
     35 H          -9.4669    2.9737   -0.9609 H       1  LIG1        0.1437
     36 N          -6.5434    9.2088    1.5445 N.1     1  LIG1       -0.1908
     37 C          -7.0893    8.2954    1.0703 C.1     1  LIG1        0.1013
     38 C          -9.4558    9.7047   -0.6708 C.ar    1  LIG1        0.1255
     39 C          -9.8670    8.4600   -0.1059 C.ar    1  LIG1        0.0424
     40 C         -11.1696    8.3793    0.3734 C.ar    1  LIG1       -0.0304
     41 C         -12.0094    9.5022    0.3561 C.ar    1  LIG1        0.0706
     42 C         -11.4817   10.6909   -0.1761 C.ar    1  LIG1        0.0471
     43 N         -10.2598   10.7886   -0.6774 N.ar    1  LIG1       -0.2388
     44 H         -11.5278    7.4351    0.7679 H       1  LIG1        0.0638
     45 H         -12.0874   11.5943   -0.1929 H       1  LIG1        0.0843
     46 N          -8.2674    9.8784   -1.3192 N.pl3   1  LIG1       -0.3426
     47 H          -7.4913    9.2677   -1.1254 H       1  LIG1        0.1437
     48 H          -8.0350   10.8423   -1.5112 H       1  LIG1        0.1437
     49 N         -14.4333    9.4169    1.2701 N.1     1  LIG1       -0.1908
     50 C         -13.3435    9.4513    0.8619 C.1     1  LIG1        0.1007
@<TRIPOS>BOND
     1    48    46    1
     2    10     9    1
     3    23    21    1
     4    34    33    1
     5    46    47    1
     6    46    38    1
     7    11     9    1
     8    21    22    1
     9    21    14    1
    10    33    35    1
    11    33    26    1
    12     9     1    1
    13    43    38   ar
    14    43    42   ar
    15    38    39   ar
    16     1     6   ar
    17     1     2   ar
    18    14    19   ar
    19    14    15   ar
    20    31    26   ar
    21    31    30   ar
    22     6     5   ar
    23    26    27   ar
    24    19    18   ar
    25     8     2    1
    26    45    42    1
    27    42    41   ar
    28     2     3   ar
    29    39    30    1
    30    39    40   ar
    31    30    29   ar
    32     5    15    1
    33     5     4   ar
    34    15    16   ar
    35    18    27    1
    36    18    17   ar
    37    27    28   ar
    38    41    40   ar
    39    41    50    1
    40     3     4   ar
    41     3     7    1
    42    40    44    1
    43     4    13    1
    44    28    29   ar
    45    28    32    1
    46    29    37    1
    47    16    17   ar
    48    16    20    1
    49    17    25    1
    50    50    49    3
    51    37    36    3
    52    13    12    3
    53    25    24    3
