@<TRIPOS>MOLECULE
mol_data/opt/b3lyp/geoms/mol2/6hd6hd6hd6hd-.out
 50 53 0 0 0
SMALL
GASTEIGER

@<TRIPOS>ATOM
      1 C          -3.9323   -2.0142   -1.0501 C.ar    1  LIG1        0.1169
      2 C          -2.9218   -2.3100   -0.1085 C.ar    1  LIG1       -0.0208
      3 C          -2.7399   -1.4315    0.9355 C.ar    1  LIG1       -0.0390
      4 C          -3.5267   -0.2646    1.0365 C.ar    1  LIG1        0.0779
      5 C          -4.4899   -0.0203    0.0267 C.ar    1  LIG1        0.0937
      6 N          -4.6821   -0.9038   -0.9694 N.ar    1  LIG1       -0.2310
      7 H          -1.9950   -1.6310    1.6985 H       1  LIG1        0.0632
      8 H          -2.3249   -3.2112   -0.1970 H       1  LIG1        0.0652
      9 N          -4.2205   -2.8678   -2.0785 N.pl3   1  LIG1       -0.3431
     10 H          -4.7792   -2.4966   -2.8321 H       1  LIG1        0.1437
     11 H          -3.5531   -3.5818   -2.3235 H       1  LIG1        0.1437
     12 N          -3.1632    1.2115    3.1358 N.1     1  LIG1       -0.1908
     13 C          -3.3451    0.5707    2.1807 C.1     1  LIG1        0.1013
     14 C          -6.6981    1.1845   -0.4445 C.ar    1  LIG1        0.1262
     15 C          -5.3363    1.1993    0.0000 C.ar    1  LIG1        0.0424
     16 C          -4.8448    2.4340    0.4021 C.ar    1  LIG1       -0.0298
     17 C          -5.6398    3.5923    0.3942 C.ar    1  LIG1        0.0785
     18 C          -6.9860    3.4762   -0.0366 C.ar    1  LIG1        0.0937
     19 N          -7.4694    2.2856   -0.4210 N.ar    1  LIG1       -0.2304
     20 H          -3.8187    2.5284    0.7349 H       1  LIG1        0.0639
     21 N          -7.3032    0.0481   -0.8758 N.pl3   1  LIG1       -0.3426
     22 H          -8.2023    0.1682   -1.3174 H       1  LIG1        0.1437
     23 H          -6.6907   -0.6918   -1.1966 H       1  LIG1        0.1437
     24 N          -4.5322    5.7732    1.2529 N.1     1  LIG1       -0.1908
     25 C          -5.0522    4.8059    0.8660 C.1     1  LIG1        0.1013
     26 C          -9.3323    4.4796    0.1730 C.ar    1  LIG1        0.1262
     27 C          -7.9272    4.6214   -0.0954 C.ar    1  LIG1        0.0424
     28 C          -7.4993    5.9010   -0.4241 C.ar    1  LIG1       -0.0298
     29 C          -8.3881    6.9891   -0.4658 C.ar    1  LIG1        0.0785
     30 C          -9.7522    6.7489   -0.1657 C.ar    1  LIG1        0.0937
     31 N         -10.1793    5.5258    0.1495 N.ar    1  LIG1       -0.2304
     32 H          -6.4576    6.0872   -0.6519 H       1  LIG1        0.0639
     33 N          -9.8891    3.2920    0.5028 N.pl3   1  LIG1       -0.3426
     34 H         -10.8944    3.2811    0.5848 H       1  LIG1        0.1437
     35 H          -9.3798    2.4530    0.2593 H       1  LIG1        0.1437
     36 N          -7.4627    9.3410   -1.0395 N.1     1  LIG1       -0.1908
     37 C          -7.8786    8.2885   -0.7626 C.1     1  LIG1        0.1013
     38 C         -11.0897    8.7313   -1.1653 C.ar    1  LIG1        0.1255
     39 C         -10.7975    7.8093   -0.1151 C.ar    1  LIG1        0.0424
     40 C         -11.6204    7.8435    1.0060 C.ar    1  LIG1       -0.0304
     41 C         -12.6496    8.7891    1.1125 C.ar    1  LIG1        0.0706
     42 C         -12.8200    9.6762    0.0361 C.ar    1  LIG1        0.0471
     43 N         -12.0782    9.6448   -1.0602 N.ar    1  LIG1       -0.2388
     44 H         -11.4532    7.1267    1.8018 H       1  LIG1        0.0638
     45 H         -13.5956   10.4379    0.0767 H       1  LIG1        0.0843
     46 N         -10.4696    8.7111   -2.3828 N.pl3   1  LIG1       -0.3426
     47 H          -9.5302    8.3557   -2.4588 H       1  LIG1        0.1437
     48 H         -10.6699    9.5219   -2.9519 H       1  LIG1        0.1437
     49 N         -14.1881    8.9118    3.1949 N.1     1  LIG1       -0.1908
     50 C         -13.4936    8.8551    2.2622 C.1     1  LIG1        0.1007
@<TRIPOS>BOND
     1    48    46    1
     2    10     9    1
     3    47    46    1
     4    46    38    1
     5    11     9    1
     6     9     1    1
     7    22    21    1
     8    23    21    1
     9    38    43   ar
    10    38    39   ar
    11    43    42   ar
    12     1     6   ar
    13     1     2   ar
    14    36    37    3
    15     6     5   ar
    16    21    14    1
    17    37    29    1
    18    32    28    1
    19    29    28   ar
    20    29    30   ar
    21    14    19   ar
    22    14    15   ar
    23    28    27   ar
    24    19    18   ar
    25     8     2    1
    26    30    39    1
    27    30    31   ar
    28    39    40   ar
    29     2     3   ar
    30    27    18    1
    31    27    26   ar
    32    18    17   ar
    33    15     5    1
    34    15    16   ar
    35     5     4   ar
    36    42    45    1
    37    42    41   ar
    38    31    26   ar
    39    26    33    1
    40    35    33    1
    41    17    16   ar
    42    17    25    1
    43    16    20    1
    44    33    34    1
    45    25    24    3
    46     3     4   ar
    47     3     7    1
    48    40    41   ar
    49    40    44    1
    50     4    13    1
    51    41    50    1
    52    13    12    3
    53    50    49    3
