@<TRIPOS>MOLECULE
mol_data/opt/b3lyp/geoms/mol2/6hd6hd6hd-6hd.out
 50 53 0 0 0
SMALL
GASTEIGER

@<TRIPOS>ATOM
      1 C          -4.2433   -2.1733   -0.8420 C.ar    1  LIG1        0.1169
      2 C          -3.0469   -2.3849   -0.1219 C.ar    1  LIG1       -0.0208
      3 C          -2.6015   -1.3695    0.6938 C.ar    1  LIG1       -0.0390
      4 C          -3.3120   -0.1534    0.7801 C.ar    1  LIG1        0.0779
      5 C          -4.4806   -0.0059   -0.0081 C.ar    1  LIG1        0.0937
      6 N          -4.9239   -1.0184   -0.7747 N.ar    1  LIG1       -0.2310
      7 H          -1.7024   -1.4959    1.2877 H       1  LIG1        0.0632
      8 H          -2.5109   -3.3248   -0.1956 H       1  LIG1        0.0652
      9 N          -4.7887   -3.1539   -1.6226 N.pl3   1  LIG1       -0.3431
     10 H          -5.5026   -2.8695   -2.2762 H       1  LIG1        0.1437
     11 H          -4.2201   -3.9413   -1.8905 H       1  LIG1        0.1437
     12 N          -2.4167    1.6019    2.4639 N.1     1  LIG1       -0.1908
     13 C          -2.8400    0.8338    1.6978 C.1     1  LIG1        0.1013
     14 C          -6.7124    1.2420   -0.1697 C.ar    1  LIG1        0.1262
     15 C          -5.2816    1.2442   -0.0398 C.ar    1  LIG1        0.0424
     16 C          -4.6815    2.4924    0.0468 C.ar    1  LIG1       -0.0298
     17 C          -5.4382    3.6776    0.0345 C.ar    1  LIG1        0.0785
     18 C          -6.8456    3.5684   -0.0774 C.ar    1  LIG1        0.0937
     19 N          -7.4377    2.3763   -0.1649 N.ar    1  LIG1       -0.2304
     20 H          -3.6054    2.5765    0.1319 H       1  LIG1        0.0639
     21 N          -7.4263    0.0967   -0.2687 N.pl3   1  LIG1       -0.3426
     22 H          -8.4119    0.2045   -0.4541 H       1  LIG1        0.1437
     23 H          -6.9342   -0.7334   -0.5716 H       1  LIG1        0.1437
     24 N          -4.2194    5.9533    0.2603 N.1     1  LIG1       -0.1908
     25 C          -4.7698    4.9297    0.1781 C.1     1  LIG1        0.1013
     26 C          -7.7158    5.8743   -0.9000 C.ar    1  LIG1        0.1262
     27 C          -7.7812    4.7276   -0.0509 C.ar    1  LIG1        0.0424
     28 C          -8.8689    4.6562    0.8075 C.ar    1  LIG1       -0.0298
     29 C          -9.8312    5.6772    0.8634 C.ar    1  LIG1        0.0785
     30 C          -9.6825    6.7746   -0.0218 C.ar    1  LIG1        0.0937
     31 N          -8.6467    6.8463   -0.8577 N.ar    1  LIG1       -0.2304
     32 H          -8.9659    3.7951    1.4589 H       1  LIG1        0.0639
     33 N          -6.7783    6.0375   -1.8762 N.pl3   1  LIG1       -0.3426
     34 H          -5.8735    5.6045   -1.7853 H       1  LIG1        0.1437
     35 H          -6.7824    6.9544   -2.3011 H       1  LIG1        0.1437
     36 N         -11.7344    5.5011    2.6147 N.1     1  LIG1       -0.1908
     37 C         -10.8758    5.5968    1.8331 C.1     1  LIG1        0.1013
     38 C         -12.0196    7.8605   -0.2175 C.ar    1  LIG1        0.1255
     39 C         -10.6045    7.9439   -0.0519 C.ar    1  LIG1        0.0424
     40 C         -10.0446    9.2155    0.0000 C.ar    1  LIG1       -0.0304
     41 C         -10.8575   10.3573   -0.0429 C.ar    1  LIG1        0.0706
     42 C         -12.2436   10.1554   -0.1548 C.ar    1  LIG1        0.0471
     43 N         -12.8032    8.9586   -0.2475 N.ar    1  LIG1       -0.2388
     44 H          -8.9679    9.3136    0.0804 H       1  LIG1        0.0638
     45 H         -12.9172   11.0093   -0.1715 H       1  LIG1        0.0843
     46 N         -12.6810    6.6876   -0.4432 N.pl3   1  LIG1       -0.3426
     47 H         -13.6857    6.7558   -0.3653 H       1  LIG1        0.1437
     48 H         -12.2750    5.8140   -0.1514 H       1  LIG1        0.1437
     49 N          -9.8710   12.7507    0.0866 N.1     1  LIG1       -0.1908
     50 C         -10.3098   11.6738    0.0303 C.1     1  LIG1        0.1007
@<TRIPOS>BOND
     1    35    33    1
     2    10     9    1
     3    11     9    1
     4    33    34    1
     5    33    26    1
     6     9     1    1
     7    26    31   ar
     8    26    27   ar
     9    31    30   ar
    10     1     6   ar
    11     1     2   ar
    12     6     5   ar
    13    23    21    1
    14    22    21    1
    15    46    47    1
    16    46    38    1
    17    46    48    1
    18    21    14    1
    19    43    38   ar
    20    43    42   ar
    21    38    39   ar
    22     8     2    1
    23    45    42    1
    24    14    19   ar
    25    14    15   ar
    26    19    18   ar
    27    42    41   ar
    28     2     3   ar
    29    18    27    1
    30    18    17   ar
    31    39    30    1
    32    39    40   ar
    33    27    28   ar
    34    41    40   ar
    35    41    50    1
    36    15     5    1
    37    15    16   ar
    38    30    29   ar
    39     5     4   ar
    40    40    44    1
    41    50    49    3
    42    17    16   ar
    43    17    25    1
    44    16    20    1
    45    25    24    3
    46     3     4   ar
    47     3     7    1
    48     4    13    1
    49    28    29   ar
    50    28    32    1
    51    29    37    1
    52    13    12    3
    53    37    36    3
