@<TRIPOS>MOLECULE
mol_data/opt/b3lyp/geoms/mol2/6hd6hd6hd.out
 38 40 0 0 0
SMALL
GASTEIGER

@<TRIPOS>ATOM
      1 C          -4.2427   -2.0695   -0.8448 C.ar    1  LIG1        0.1169
      2 C          -2.9819   -2.1983   -0.2218 C.ar    1  LIG1       -0.0208
      3 C          -2.5294   -1.1410    0.5349 C.ar    1  LIG1       -0.0390
      4 C          -3.2977    0.0362    0.6554 C.ar    1  LIG1        0.0779
      5 C          -4.5317    0.1016   -0.0380 C.ar    1  LIG1        0.0937
      6 N          -4.9790   -0.9520   -0.7453 N.ar    1  LIG1       -0.2310
      7 H          -1.5798   -1.2044    1.0557 H       1  LIG1        0.0632
      8 H          -2.4019   -3.1093   -0.3213 H       1  LIG1        0.0652
      9 N          -4.7944   -3.0982   -1.5577 N.pl3   1  LIG1       -0.3431
     10 H          -5.5695   -2.8649   -2.1599 H       1  LIG1        0.1437
     11 H          -4.2015   -3.8538   -1.8627 H       1  LIG1        0.1437
     12 N          -2.3757    1.8720    2.2358 N.1     1  LIG1       -0.1908
     13 C          -2.8128    1.0681    1.5156 C.1     1  LIG1        0.1013
     14 C          -6.8266    1.2334   -0.0352 C.ar    1  LIG1        0.1262
     15 C          -5.3962    1.3082   -0.0330 C.ar    1  LIG1        0.0424
     16 C          -4.8574    2.5883   -0.0376 C.ar    1  LIG1       -0.0298
     17 C          -5.6652    3.7371   -0.0269 C.ar    1  LIG1        0.0785
     18 C          -7.0732    3.5653   -0.0081 C.ar    1  LIG1        0.0937
     19 N          -7.6001    2.3319    0.0059 N.ar    1  LIG1       -0.2304
     20 H          -3.7834    2.7257   -0.0519 H       1  LIG1        0.0639
     21 N          -7.4870    0.0458   -0.0362 N.pl3   1  LIG1       -0.3426
     22 H          -8.4799    0.0980   -0.2071 H       1  LIG1        0.1437
     23 H          -6.9700   -0.7523   -0.3841 H       1  LIG1        0.1437
     24 N          -4.4403    6.0210    0.0423 N.1     1  LIG1       -0.1908
     25 C          -5.0148    5.0087    0.0127 C.1     1  LIG1        0.1013
     26 C          -9.2798    4.6467    0.6979 C.ar    1  LIG1        0.1255
     27 C          -8.0306    4.6983   -0.0099 C.ar    1  LIG1        0.0424
     28 C          -7.7668    5.8625   -0.7277 C.ar    1  LIG1       -0.0304
     29 C          -8.6693    6.9361   -0.7128 C.ar    1  LIG1        0.0706
     30 C          -9.8325    6.7929    0.0620 C.ar    1  LIG1        0.0471
     31 N         -10.1318    5.6937    0.7369 N.ar    1  LIG1       -0.2388
     32 H          -6.8631    5.9491   -1.3174 H       1  LIG1        0.0638
     33 H         -10.5504    7.6083    0.1176 H       1  LIG1        0.0843
     34 N          -9.6666    3.5600    1.4091 N.pl3   1  LIG1       -0.3426
     35 H         -10.6007    3.5950    1.7878 H       1  LIG1        0.1437
     36 H          -9.2384    2.6741    1.1770 H       1  LIG1        0.1437
     37 N          -8.2633    9.1011   -2.0786 N.1     1  LIG1       -0.1908
     38 C          -8.4343    8.1274   -1.4638 C.1     1  LIG1        0.1007
@<TRIPOS>BOND
     1    10     9    1
     2    37    38    3
     3    11     9    1
     4     9     1    1
     5    38    29    1
     6    32    28    1
     7     1     6   ar
     8     1     2   ar
     9     6     5   ar
    10    28    29   ar
    11    28    27   ar
    12    29    30   ar
    13    23    21    1
    14     8     2    1
    15     2     3   ar
    16    22    21    1
    17    20    16    1
    18     5    15    1
    19     5     4   ar
    20    16    15   ar
    21    16    17   ar
    22    21    14    1
    23    14    15   ar
    24    14    19   ar
    25    17    18   ar
    26    17    25    1
    27    27    18    1
    28    27    26   ar
    29    18    19   ar
    30    25    24    3
    31    30    33    1
    32    30    31   ar
    33     3     4   ar
    34     3     7    1
    35     4    13    1
    36    26    31   ar
    37    26    34    1
    38    36    34    1
    39    34    35    1
    40    13    12    3
