@<TRIPOS>MOLECULE
mol_data/opt/b3lyp/geoms/mol2/6hd6hd6hd-6hd-.out
 50 53 0 0 0
SMALL
GASTEIGER

@<TRIPOS>ATOM
      1 C          -4.3323   -2.2044   -0.8253 C.ar    1  LIG1        0.1169
      2 C          -3.1390   -2.4443   -0.1089 C.ar    1  LIG1       -0.0208
      3 C          -2.6657   -1.4384    0.7026 C.ar    1  LIG1       -0.0390
      4 C          -3.3450   -0.2046    0.7886 C.ar    1  LIG1        0.0779
      5 C          -4.5124   -0.0291    0.0037 C.ar    1  LIG1        0.0937
      6 N          -4.9831   -1.0324   -0.7588 N.ar    1  LIG1       -0.2310
      7 H          -1.7682   -1.5859    1.2940 H       1  LIG1        0.0632
      8 H          -2.6272   -3.3977   -0.1819 H       1  LIG1        0.0652
      9 N          -4.9047   -3.1725   -1.6015 N.pl3   1  LIG1       -0.3431
     10 H          -5.6163   -2.8740   -2.2512 H       1  LIG1        0.1437
     11 H          -4.3596   -3.9773   -1.8664 H       1  LIG1        0.1437
     12 N          -2.3957    1.5285    2.4656 N.1     1  LIG1       -0.1908
     13 C          -2.8435    0.7710    1.7028 C.1     1  LIG1        0.1013
     14 C          -6.7122    1.2751   -0.1703 C.ar    1  LIG1        0.1262
     15 C          -5.2821    1.2406   -0.0289 C.ar    1  LIG1        0.0424
     16 C          -4.6532    2.4735    0.0700 C.ar    1  LIG1       -0.0298
     17 C          -5.3801    3.6774    0.0602 C.ar    1  LIG1        0.0785
     18 C          -6.7892    3.6045   -0.0662 C.ar    1  LIG1        0.0937
     19 N          -7.4081    2.4276   -0.1664 N.ar    1  LIG1       -0.2304
     20 H          -3.5763    2.5312    0.1644 H       1  LIG1        0.0639
     21 N          -7.4542    0.1504   -0.2814 N.pl3   1  LIG1       -0.3426
     22 H          -8.4373    0.2821   -0.4649 H       1  LIG1        0.1437
     23 H          -6.9815   -0.6944   -0.5742 H       1  LIG1        0.1437
     24 N          -4.1099    5.9219    0.3103 N.1     1  LIG1       -0.1908
     25 C          -4.6814    4.9103    0.2196 C.1     1  LIG1        0.1013
     26 C          -7.5905    5.9472   -0.8561 C.ar    1  LIG1        0.1262
     27 C          -7.6999    4.7827   -0.0406 C.ar    1  LIG1        0.0424
     28 C          -8.8151    4.7142    0.7835 C.ar    1  LIG1       -0.0298
     29 C          -9.7646    5.7446    0.8396 C.ar    1  LIG1        0.0785
     30 C          -9.5752    6.8689   -0.0051 C.ar    1  LIG1        0.0937
     31 N          -8.4979    6.9396   -0.7989 N.ar    1  LIG1       -0.2304
     32 H          -8.9480    3.8380    1.4076 H       1  LIG1        0.0639
     33 N          -6.6322    6.1056   -1.8162 N.pl3   1  LIG1       -0.3426
     34 H          -5.7328    5.6662   -1.7037 H       1  LIG1        0.1437
     35 H          -6.6129    7.0207   -2.2428 H       1  LIG1        0.1437
     36 N         -11.6697    5.4754    2.5770 N.1     1  LIG1       -0.1908
     37 C         -10.8278    5.6234    1.7863 C.1     1  LIG1        0.1013
     38 C         -10.0966    9.3613   -0.2564 C.ar    1  LIG1        0.1255
     39 C         -10.5277    8.0050   -0.0626 C.ar    1  LIG1        0.0424
     40 C         -11.8996    7.7943    0.0475 C.ar    1  LIG1       -0.0304
     41 C         -12.7975    8.8716    0.0091 C.ar    1  LIG1        0.0706
     42 C         -12.2555   10.1603   -0.1287 C.ar    1  LIG1        0.0471
     43 N         -10.9599   10.3998   -0.2609 N.ar    1  LIG1       -0.2388
     44 H         -12.2924    6.7908    0.1527 H       1  LIG1        0.0638
     45 H         -12.9139   11.0263   -0.1437 H       1  LIG1        0.0843
     46 N          -8.7912    9.6919   -0.4037 N.pl3   1  LIG1       -0.3426
     47 H          -8.1553    8.9649   -0.7005 H       1  LIG1        0.1437
     48 H          -8.6043   10.6578   -0.6255 H       1  LIG1        0.1437
     49 N         -15.3633    8.5332    0.1485 N.1     1  LIG1       -0.1908
     50 C         -14.2094    8.6771    0.0918 C.1     1  LIG1        0.1007
@<TRIPOS>BOND
     1    10     9    1
     2    35    33    1
     3    11     9    1
     4    33    34    1
     5    33    26    1
     6     9     1    1
     7    26    31   ar
     8    26    27   ar
     9     1     6   ar
    10     1     2   ar
    11    31    30   ar
    12     6     5   ar
    13    47    46    1
    14    48    46    1
    15    23    21    1
    16    22    21    1
    17    46    38    1
    18    21    14    1
    19    43    38   ar
    20    43    42   ar
    21    38    39   ar
    22     8     2    1
    23    14    19   ar
    24    14    15   ar
    25    19    18   ar
    26    45    42    1
    27    42    41   ar
    28     2     3   ar
    29    18    27    1
    30    18    17   ar
    31    39    30    1
    32    39    40   ar
    33    27    28   ar
    34    15     5    1
    35    15    16   ar
    36    30    29   ar
    37     5     4   ar
    38    41    40   ar
    39    41    50    1
    40    40    44    1
    41    17    16   ar
    42    17    25    1
    43    16    20    1
    44    50    49    3
    45    25    24    3
    46     3     4   ar
    47     3     7    1
    48    28    29   ar
    49    28    32    1
    50     4    13    1
    51    29    37    1
    52    13    12    3
    53    37    36    3
