@<TRIPOS>MOLECULE
mol_data/opt/b3lyp/geoms/mol2/6hd6hd-6hd-6hd.out
 50 53 0 0 0
SMALL
GASTEIGER

@<TRIPOS>ATOM
      1 C          -4.4836   -2.2681   -0.2566 C.ar    1  LIG1        0.1169
      2 C          -3.0809   -2.4030   -0.1122 C.ar    1  LIG1       -0.0208
      3 C          -2.3398   -1.2604    0.0791 C.ar    1  LIG1       -0.0390
      4 C          -2.9741    0.0021    0.1046 C.ar    1  LIG1        0.0779
      5 C          -4.3761    0.0443   -0.0915 C.ar    1  LIG1        0.0937
      6 N          -5.0967   -1.0720   -0.2484 N.ar    1  LIG1       -0.2310
      7 H          -1.2661   -1.3172    0.2247 H       1  LIG1        0.0632
      8 H          -2.6104   -3.3800   -0.1407 H       1  LIG1        0.0652
      9 N          -5.2868   -3.3494   -0.4433 N.pl3   1  LIG1       -0.3431
     10 H          -6.2833   -3.1961   -0.4270 H       1  LIG1        0.1437
     11 H          -4.9434   -4.2816   -0.2831 H       1  LIG1        0.1437
     12 N          -1.5533    2.1154    0.5866 N.1     1  LIG1       -0.1908
     13 C          -2.2001    1.1679    0.3827 C.1     1  LIG1        0.1013
     14 C          -4.9091    2.4609   -0.8558 C.ar    1  LIG1        0.1262
     15 C          -5.1718    1.3031   -0.0669 C.ar    1  LIG1        0.0424
     16 C          -6.3052    1.3477    0.7299 C.ar    1  LIG1       -0.0298
     17 C          -7.1257    2.4849    0.7936 C.ar    1  LIG1        0.0785
     18 C          -6.7766    3.6012   -0.0095 C.ar    1  LIG1        0.0937
     19 N          -5.6837    3.5588   -0.7849 N.ar    1  LIG1       -0.2304
     20 H          -6.5551    0.4809    1.3310 H       1  LIG1        0.0639
     21 N          -3.9211    2.5136   -1.7919 N.pl3   1  LIG1       -0.3426
     22 H          -3.1346    1.8883   -1.7396 H       1  LIG1        0.1437
     23 H          -3.7493    3.4187   -2.2027 H       1  LIG1        0.1437
     24 N          -9.0946    2.3974    2.4771 N.1     1  LIG1       -0.1908
     25 C          -8.2195    2.4656    1.7119 C.1     1  LIG1        0.1013
     26 C          -6.9680    6.1485   -0.2097 C.ar    1  LIG1        0.1262
     27 C          -7.5703    4.8542   -0.0461 C.ar    1  LIG1        0.0424
     28 C          -8.9539    4.8390    0.0674 C.ar    1  LIG1       -0.0298
     29 C          -9.7098    6.0240    0.0439 C.ar    1  LIG1        0.0785
     30 C          -9.0201    7.2524   -0.1091 C.ar    1  LIG1        0.0937
     31 N          -7.6915    7.2839   -0.2186 N.ar    1  LIG1       -0.2304
     32 H          -9.4827    3.9011    0.1813 H       1  LIG1        0.0639
     33 N          -5.6309    6.3126   -0.3284 N.pl3   1  LIG1       -0.3426
     34 H          -5.0837    5.5115   -0.6120 H       1  LIG1        0.1437
     35 H          -5.3137    7.2490   -0.5281 H       1  LIG1        0.1437
     36 N         -12.2817    5.8726    0.3266 N.1     1  LIG1       -0.1908
     37 C         -11.1241    5.9467    0.2172 C.1     1  LIG1        0.1013
     38 C         -10.7633    8.9724   -0.9541 C.ar    1  LIG1        0.1255
     39 C          -9.6811    8.5876   -0.1060 C.ar    1  LIG1        0.0424
     40 C          -9.1416    9.5691    0.7190 C.ar    1  LIG1       -0.0304
     41 C          -9.6882   10.8595    0.7509 C.ar    1  LIG1        0.0706
     42 C         -10.7803   11.1152   -0.0957 C.ar    1  LIG1        0.0471
     43 N         -11.2921   10.2140   -0.9198 N.ar    1  LIG1       -0.2388
     44 H          -8.2899    9.3213    1.3422 H       1  LIG1        0.0638
     45 H         -11.2490   12.0968   -0.0970 H       1  LIG1        0.0843
     46 N         -11.2888    8.1633   -1.9215 N.pl3   1  LIG1       -0.3426
     47 H         -12.1479    8.5143   -2.3213 H       1  LIG1        0.1437
     48 H         -11.2401    7.1628   -1.8173 H       1  LIG1        0.1437
     49 N          -8.7408   12.7113    2.2975 N.1     1  LIG1       -0.1908
     50 C          -9.1648   11.8765    1.6054 C.1     1  LIG1        0.1007
@<TRIPOS>BOND
     1    47    46    1
     2    23    21    1
     3    46    48    1
     4    46    38    1
     5    21    22    1
     6    21    14    1
     7    38    43   ar
     8    38    39   ar
     9    43    42   ar
    10    14    19   ar
    11    14    15   ar
    12    19    18   ar
    13    34    33    1
    14    35    33    1
    15     9    10    1
    16     9    11    1
    17     9     1    1
    18    33    26    1
    19     1     6   ar
    20     1     2   ar
    21     6     5   ar
    22    31    26   ar
    23    31    30   ar
    24    26    27   ar
    25     8     2    1
    26     2     3   ar
    27    30    39    1
    28    30    29   ar
    29    39    40   ar
    30    45    42    1
    31    42    41   ar
    32     5    15    1
    33     5     4   ar
    34    15    16   ar
    35    27    18    1
    36    27    28   ar
    37    18    17   ar
    38    29    28   ar
    39    29    37    1
    40    28    32    1
    41     3     4   ar
    42     3     7    1
    43     4    13    1
    44    37    36    3
    45    13    12    3
    46    40    41   ar
    47    40    44    1
    48    16    17   ar
    49    16    20    1
    50    41    50    1
    51    17    25    1
    52    50    49    3
    53    25    24    3
