@<TRIPOS>MOLECULE
mol_data/opt/b3lyp/geoms/mol2/6hd6hd-6hd.out
 38 40 0 0 0
SMALL
GASTEIGER

@<TRIPOS>ATOM
      1 C          -4.4502   -2.1350   -0.4258 C.ar    1  LIG1        0.1169
      2 C          -3.0780   -2.2550   -0.0982 C.ar    1  LIG1       -0.0208
      3 C          -2.4067   -1.1183    0.2883 C.ar    1  LIG1       -0.0390
      4 C          -3.0786    0.1237    0.3317 C.ar    1  LIG1        0.0779
      5 C          -4.4400    0.1566   -0.0559 C.ar    1  LIG1        0.0937
      6 N          -5.0947   -0.9559   -0.4097 N.ar    1  LIG1       -0.2310
      7 H          -1.3618   -1.1658    0.5764 H       1  LIG1        0.0632
      8 H          -2.5791   -3.2176   -0.1342 H       1  LIG1        0.0652
      9 N          -5.2004   -3.2210   -0.7574 N.pl3   1  LIG1       -0.3431
     10 H          -6.1307   -3.0518   -1.1073 H       1  LIG1        0.1437
     11 H          -4.7648   -4.1036   -0.9666 H       1  LIG1        0.1437
     12 N          -1.7956    2.2084    1.1827 N.1     1  LIG1       -0.1908
     13 C          -2.3846    1.2744    0.8108 C.1     1  LIG1        0.1013
     14 C          -4.9479    2.6183   -0.6976 C.ar    1  LIG1        0.1262
     15 C          -5.2728    1.3920   -0.0421 C.ar    1  LIG1        0.0424
     16 C          -6.5062    1.3374    0.5892 C.ar    1  LIG1       -0.0298
     17 C          -7.3681    2.4460    0.6175 C.ar    1  LIG1        0.0785
     18 C          -6.9542    3.6227   -0.0564 C.ar    1  LIG1        0.0937
     19 N          -5.7764    3.6793   -0.6787 N.ar    1  LIG1       -0.2304
     20 H          -6.8006    0.4195    1.0854 H       1  LIG1        0.0639
     21 N          -3.8331    2.7884   -1.4614 N.pl3   1  LIG1       -0.3426
     22 H          -3.0211    2.2123   -1.3149 H       1  LIG1        0.1437
     23 H          -3.6590    3.7417   -1.7463 H       1  LIG1        0.1437
     24 N          -9.5780    2.2667    1.9607 N.1     1  LIG1       -0.1908
     25 C          -8.5818    2.3632    1.3646 C.1     1  LIG1        0.1013
     26 C          -9.1022    4.9904   -0.4980 C.ar    1  LIG1        0.1255
     27 C          -7.7431    4.8858   -0.0750 C.ar    1  LIG1        0.0424
     28 C          -7.0899    6.0659    0.2624 C.ar    1  LIG1       -0.0304
     29 C          -7.7720    7.2910    0.2460 C.ar    1  LIG1        0.0706
     30 C          -9.1237    7.2687   -0.1375 C.ar    1  LIG1        0.0471
     31 N          -9.7621    6.1674   -0.5032 N.ar    1  LIG1       -0.2388
     32 H          -6.0440    6.0267    0.5451 H       1  LIG1        0.0638
     33 H          -9.7009    8.1906   -0.1467 H       1  LIG1        0.0843
     34 N          -9.8122    3.9416   -1.0073 N.pl3   1  LIG1       -0.3426
     35 H         -10.8027    4.1153   -1.1003 H       1  LIG1        0.1437
     36 H          -9.5490    2.9964   -0.7831 H       1  LIG1        0.1437
     37 N          -6.6129    9.5153    0.8996 N.1     1  LIG1       -0.1908
     38 C          -7.1302    8.5138    0.6083 C.1     1  LIG1        0.1007
@<TRIPOS>BOND
     1    23    21    1
     2    21    22    1
     3    21    14    1
     4    10     9    1
     5    35    34    1
     6    34    36    1
     7    34    26    1
     8    11     9    1
     9     9     1    1
    10    14    19   ar
    11    14    15   ar
    12    19    18   ar
    13    31    26   ar
    14    31    30   ar
    15    26    27   ar
    16     1     6   ar
    17     1     2   ar
    18     6     5   ar
    19    33    30    1
    20    30    29   ar
    21     8     2    1
    22     2     3   ar
    23    27    18    1
    24    27    28   ar
    25    18    17   ar
    26     5    15    1
    27     5     4   ar
    28    15    16   ar
    29    29    28   ar
    30    29    38    1
    31    28    32    1
    32     3     4   ar
    33     3     7    1
    34     4    13    1
    35    16    17   ar
    36    16    20    1
    37    38    37    3
    38    17    25    1
    39    13    12    3
    40    25    24    3
