@<TRIPOS>MOLECULE
mol_data/opt/b3lyp/geoms/mol2/6hd6hd6hd6hd.out
 50 53 0 0 0
SMALL
GASTEIGER

@<TRIPOS>ATOM
      1 C          -3.9694   -2.0066   -1.1728 C.ar    1  LIG1        0.1169
      2 C          -2.8916   -2.2850   -0.3035 C.ar    1  LIG1       -0.0208
      3 C          -2.6497   -1.4008    0.7234 C.ar    1  LIG1       -0.0390
      4 C          -3.4442   -0.2446    0.8766 C.ar    1  LIG1        0.0779
      5 C          -4.4781   -0.0169   -0.0647 C.ar    1  LIG1        0.0937
      6 N          -4.7272   -0.9064   -1.0426 N.ar    1  LIG1       -0.2310
      7 H          -1.8504   -1.5873    1.4328 H       1  LIG1        0.0632
      8 H          -2.2894   -3.1779   -0.4317 H       1  LIG1        0.0652
      9 N          -4.3172   -2.8676   -2.1764 N.pl3   1  LIG1       -0.3431
     10 H          -4.9315   -2.5058   -2.8902 H       1  LIG1        0.1437
     11 H          -3.6582   -3.5726   -2.4663 H       1  LIG1        0.1437
     12 N          -2.9610    1.2428    2.9434 N.1     1  LIG1       -0.1908
     13 C          -3.1969    0.5966    2.0039 C.1     1  LIG1        0.1013
     14 C          -6.7288    1.1575   -0.3862 C.ar    1  LIG1        0.1262
     15 C          -5.3395    1.1922   -0.0381 C.ar    1  LIG1        0.0424
     16 C          -4.8354    2.4354    0.3197 C.ar    1  LIG1       -0.0298
     17 C          -5.6425    3.5849    0.3555 C.ar    1  LIG1        0.0785
     18 C          -7.0117    3.4501    0.0149 C.ar    1  LIG1        0.0937
     19 N          -7.5087    2.2506   -0.3222 N.ar    1  LIG1       -0.2304
     20 H          -3.7902    2.5438    0.5812 H       1  LIG1        0.0639
     21 N          -7.3494    0.0088   -0.7608 N.pl3   1  LIG1       -0.3426
     22 H          -8.2762    0.1162   -1.1447 H       1  LIG1        0.1437
     23 H          -6.7513   -0.7254   -1.1199 H       1  LIG1        0.1437
     24 N          -4.5157    5.7873    1.1301 N.1     1  LIG1       -0.1908
     25 C          -5.0435    4.8103    0.7802 C.1     1  LIG1        0.1013
     26 C          -9.3381    4.4483    0.3753 C.ar    1  LIG1        0.1262
     27 C          -7.9628    4.5882   -0.0027 C.ar    1  LIG1        0.0424
     28 C          -7.5726    5.8596   -0.4047 C.ar    1  LIG1       -0.0298
     29 C          -8.4675    6.9416   -0.4260 C.ar    1  LIG1        0.0785
     30 C          -9.8059    6.7123   -0.0156 C.ar    1  LIG1        0.0937
     31 N         -10.1865    5.4910    0.3866 N.ar    1  LIG1       -0.2304
     32 H          -6.5525    6.0423   -0.7175 H       1  LIG1        0.0639
     33 N          -9.8566    3.2621    0.7858 N.pl3   1  LIG1       -0.3426
     34 H         -10.8611    3.2291    0.8729 H       1  LIG1        0.1437
     35 H          -9.3589    2.4302    0.4935 H       1  LIG1        0.1437
     36 N          -7.5057    9.2392   -1.1451 N.1     1  LIG1       -0.1908
     37 C          -7.9610    8.2191   -0.8168 C.1     1  LIG1        0.1013
     38 C         -11.8793    7.8216    0.9879 C.ar    1  LIG1        0.1255
     39 C         -10.8472    7.7688   -0.0101 C.ar    1  LIG1        0.0424
     40 C         -10.8839    8.7481   -0.9998 C.ar    1  LIG1       -0.0304
     41 C         -11.8639    9.7516   -0.9816 C.ar    1  LIG1        0.0706
     42 C         -12.7877    9.7348    0.0768 C.ar    1  LIG1        0.0471
     43 N         -12.8016    8.8076    1.0219 N.ar    1  LIG1       -0.2388
     44 H         -10.1603    8.7405   -1.8050 H       1  LIG1        0.0638
     45 H         -13.5526   10.5058    0.1407 H       1  LIG1        0.0843
     46 N         -11.9701    6.9099    1.9860 N.pl3   1  LIG1       -0.3426
     47 H         -12.7835    6.9868    2.5772 H       1  LIG1        0.1437
     48 H         -11.5191    6.0163    1.8444 H       1  LIG1        0.1437
     49 N         -12.0237   11.5606   -2.8308 N.1     1  LIG1       -0.1908
     50 C         -11.9403   10.7478   -2.0015 C.1     1  LIG1        0.1007
@<TRIPOS>BOND
     1    10     9    1
     2    49    50    3
     3    11     9    1
     4     9     1    1
     5    50    41    1
     6    44    40    1
     7     1     6   ar
     8     1     2   ar
     9    36    37    3
    10    22    21    1
    11    23    21    1
    12     6     5   ar
    13    40    41   ar
    14    40    39   ar
    15    41    42   ar
    16    37    29    1
    17    21    14    1
    18    32    28    1
    19     8     2    1
    20    29    28   ar
    21    29    30   ar
    22    28    27   ar
    23    14    19   ar
    24    14    15   ar
    25    19    18   ar
    26     2     3   ar
    27     5    15    1
    28     5     4   ar
    29    15    16   ar
    30    30    39    1
    31    30    31   ar
    32    39    38   ar
    33    27    18    1
    34    27    26   ar
    35    18    17   ar
    36    42    45    1
    37    42    43   ar
    38    16    17   ar
    39    16    20    1
    40    17    25    1
    41    26    31   ar
    42    26    33    1
    43    35    33    1
    44     3     4   ar
    45     3     7    1
    46    25    24    3
    47    33    34    1
    48     4    13    1
    49    38    43   ar
    50    38    46    1
    51    48    46    1
    52    46    47    1
    53    13    12    3
