@<TRIPOS>MOLECULE
mol_data/opt/b3lyp/geoms/mol2/6he13de13ll12de-.out
 52 55 0 0 0
SMALL
GASTEIGER

@<TRIPOS>ATOM
      1 C          -4.6300   -2.0817   -0.3642 C.ar    1  LIG1        0.1169
      2 C          -3.2505   -2.2564   -0.6176 C.ar    1  LIG1       -0.0209
      3 C          -2.4559   -1.1330   -0.6686 C.ar    1  LIG1       -0.0410
      4 C          -2.9935    0.1544   -0.4361 C.ar    1  LIG1        0.0522
      5 C          -4.3669    0.2144   -0.1065 C.ar    1  LIG1        0.1058
      6 N          -5.1589   -0.8807   -0.1169 N.ar    1  LIG1       -0.2297
      7 H          -1.4005   -1.2170   -0.9053 H       1  LIG1        0.0631
      8 H          -2.8382   -3.2462   -0.7839 H       1  LIG1        0.0652
      9 N          -5.4854   -3.1573   -0.3128 N.pl3   1  LIG1       -0.3431
     10 H          -6.4692   -2.9334   -0.3197 H       1  LIG1        0.1437
     11 H          -5.2224   -4.0008   -0.7979 H       1  LIG1        0.1437
     12 C          -2.1649    1.2934   -0.6321 C.1     1  LIG1       -0.0675
     13 C          -1.4182    2.2193   -0.8550 C.1     1  LIG1       -0.1138
     14 H          -0.7854    3.0660   -0.9889 H       1  LIG1        0.1232
     15 C          -5.1000    1.4469    0.2061 C.ar    1  LIG1        0.0855
     16 C          -4.8014    2.6856    0.7880 C.ar    1  LIG1        0.0945
     17 C          -6.0185    3.4562    0.8346 C.ar    1  LIG1        0.0695
     18 C          -7.0273    2.6579    0.2825 C.ar    1  LIG1        0.0840
     19 N          -6.4435    1.4648   -0.0650 N.ar    1  LIG1       -0.3497
     20 H          -6.8950    0.6722   -0.4986 H       1  LIG1        0.1661
     21 N          -2.6549    3.5119    1.9587 N.1     1  LIG1       -0.1908
     22 C          -3.5980    3.1168    1.4026 C.1     1  LIG1        0.1026
     23 C          -6.1612    4.7445    1.4000 C.1     1  LIG1       -0.0662
     24 C          -6.2638    5.8455    1.8908 C.1     1  LIG1       -0.1138
     25 H          -6.3570    6.8128    2.3271 H       1  LIG1        0.1232
     26 C          -8.4430    2.8788    0.1029 C.ar    1  LIG1        0.1106
     27 C          -9.1819    4.0096   -0.2540 C.ar    1  LIG1        0.1891
     28 C         -10.5532    3.6331   -0.3067 C.ar    1  LIG1        0.1907
     29 C         -10.6341    2.2797    0.0214 C.ar    1  LIG1        0.1298
     30 N          -9.3365    1.8267    0.2071 N.ar    1  LIG1       -0.3446
     31 H          -9.1349    0.9745    0.7080 H       1  LIG1        0.1663
     32 O          -8.7318    5.2643   -0.5363 O.3     1  LIG1       -0.4895
     33 C          -7.9191    5.3849   -1.7103 C.3     1  LIG1        0.0791
     34 H          -7.7209    6.4507   -1.8321 H       1  LIG1        0.0660
     35 H          -6.9686    4.8546   -1.5940 H       1  LIG1        0.0660
     36 H          -8.4482    5.0051   -2.5921 H       1  LIG1        0.0660
     37 O         -11.6050    4.3708   -0.7277 O.3     1  LIG1       -0.4894
     38 C         -11.8190    5.6264   -0.0590 C.3     1  LIG1        0.0791
     39 H         -12.6965    6.0653   -0.5328 H       1  LIG1        0.0660
     40 H         -12.0312    5.4608    1.0024 H       1  LIG1        0.0660
     41 H         -10.9511    6.2802   -0.1721 H       1  LIG1        0.0660
     42 C         -11.7486    1.3926    0.1543 C.ar    1  LIG1        0.1731
     43 C         -13.1225    1.5342    0.2603 C.ar    1  LIG1        0.1143
     44 C         -13.6648    0.1909    0.4043 C.ar    1  LIG1        0.0804
     45 C         -12.5890   -0.6467    0.3859 C.ar    1  LIG1        0.1093
     46 O         -11.4317    0.0608    0.2351 O.2     1  LIG1       -0.4587
     47 H         -12.4928   -1.7172    0.4637 H       1  LIG1        0.1042
     48 N         -14.5729    3.6635    0.3810 N.1     1  LIG1       -0.1907
     49 C         -13.8928    2.7211    0.3068 C.1     1  LIG1        0.1043
     50 C         -15.0286   -0.1659    0.5446 C.1     1  LIG1       -0.0652
     51 C         -16.1949   -0.4601    0.6643 C.1     1  LIG1       -0.1138
     52 H         -17.2253   -0.7105    0.7697 H       1  LIG1        0.1232
@<TRIPOS>BOND
     1    36    33    1
     2    34    33    1
     3    33    35    1
     4    33    32    1
     5    14    13    1
     6     7     3    1
     7    13    12    3
     8    11     9    1
     9     8     2    1
    10    37    28    1
    11    37    38    1
    12     3     2   ar
    13     3     4   ar
    14    12     4    1
    15     2     1   ar
    16    32    27    1
    17    39    38    1
    18    20    19    1
    19     4     5   ar
    20     1     9    1
    21     1     6   ar
    22    10     9    1
    23    28    27   ar
    24    28    29   ar
    25    27    26   ar
    26    41    38    1
    27     6     5   ar
    28     5    15    1
    29    19    15   ar
    30    19    18   ar
    31    38    40    1
    32    29    42    1
    33    29    30   ar
    34    26    30   ar
    35    26    18    1
    36    42    46   ar
    37    42    43   ar
    38    15    16   ar
    39    30    31    1
    40    46    45   ar
    41    43    49    1
    42    43    44   ar
    43    18    17   ar
    44    49    48    3
    45    45    44   ar
    46    45    47    1
    47    44    50    1
    48    50    51    3
    49    51    52    1
    50    16    17   ar
    51    16    22    1
    52    17    23    1
    53    23    24    3
    54    22    21    3
    55    24    25    1
