@<TRIPOS>MOLECULE
mol_data/opt/b3lyp/geoms/mol2/6he13da-12hh12fl.out
 47 50 0 0 0
SMALL
GASTEIGER

@<TRIPOS>ATOM
      1 C          -4.7484   -2.0243    0.1943 C.ar    1  LIG1        0.1169
      2 C          -3.3933   -2.2445   -0.1378 C.ar    1  LIG1       -0.0209
      3 C          -2.6227   -1.1466   -0.4547 C.ar    1  LIG1       -0.0410
      4 C          -3.1578    0.1603   -0.4119 C.ar    1  LIG1        0.0522
      5 C          -4.5027    0.2828    0.0159 C.ar    1  LIG1        0.1058
      6 N          -5.2725   -0.7996    0.2667 N.ar    1  LIG1       -0.2297
      7 H          -1.5892   -1.2715   -0.7607 H       1  LIG1        0.0631
      8 H          -2.9812   -3.2482   -0.1573 H       1  LIG1        0.0652
      9 N          -5.5852   -3.0724    0.5117 N.pl3   1  LIG1       -0.3431
     10 H          -6.5669   -2.8385    0.5416 H       1  LIG1        0.1437
     11 H          -5.3653   -3.9813    0.1346 H       1  LIG1        0.1437
     12 C          -2.3643    1.2444   -0.8792 C.1     1  LIG1       -0.0675
     13 C          -1.6512    2.1130   -1.3289 C.1     1  LIG1       -0.1138
     14 H          -1.0443    2.9227   -1.6616 H       1  LIG1        0.1232
     15 C          -5.2237    1.5483    0.1649 C.ar    1  LIG1        0.0843
     16 C          -4.8944    2.8749    0.5021 C.ar    1  LIG1        0.0792
     17 C          -6.1033    3.6264    0.5401 C.ar    1  LIG1       -0.0152
     18 C          -7.1450    2.7569    0.2372 C.ar    1  LIG1        0.0858
     19 N          -6.5876    1.5220    0.0222 N.ar    1  LIG1       -0.3495
     20 H          -7.0906    0.6614   -0.1400 H       1  LIG1        0.1661
     21 N          -2.6717    3.9295    1.2869 N.1     1  LIG1       -0.1908
     22 C          -3.6459    3.4168    0.9072 C.1     1  LIG1        0.1014
     23 H          -6.1950    4.6651    0.8173 H       1  LIG1        0.0653
     24 C          -8.5555    2.9801    0.1343 C.ar    1  LIG1        0.1743
     25 C          -9.3318    4.1179    0.1604 C.ar    1  LIG1        0.0942
     26 C         -10.6917    3.6899    0.0072 C.ar    1  LIG1        0.0959
     27 C         -10.6580    2.3125   -0.0898 C.ar    1  LIG1        0.1968
     28 O          -9.3618    1.8717   -0.0140 O.2     1  LIG1       -0.4463
     29 N          -8.9222    5.4361    0.3466 N.pl3   1  LIG1       -0.3535
     30 H          -8.1602    5.7363   -0.2493 H       1  LIG1        0.1425
     31 H          -9.7009    6.0831    0.3201 H       1  LIG1        0.1425
     32 N         -11.7780    4.5890   -0.0100 N.pl3   1  LIG1       -0.3535
     33 H         -11.8434    5.0850   -0.8955 H       1  LIG1        0.1425
     34 H         -12.6636    4.1259    0.1704 H       1  LIG1        0.1425
     35 C         -11.6810    1.3158   -0.2319 C.ar    1  LIG1        0.2165
     36 C         -13.0457    1.3350   -0.0707 C.ar    1  LIG1        0.2085
     37 C         -13.5202    0.0234   -0.3760 C.ar    1  LIG1        0.2002
     38 C         -12.4258   -0.7281   -0.6974 C.ar    1  LIG1        0.1381
     39 O         -11.3020    0.0512   -0.6180 O.2     1  LIG1       -0.4522
     40 H         -12.2782   -1.7554   -0.9835 H       1  LIG1        0.1069
     41 O         -13.8216    2.3873    0.3265 O.3     1  LIG1       -0.5007
     42 H         -14.7307    2.0662    0.4132 H       1  LIG1        0.2924
     43 O         -14.8459   -0.2630   -0.2937 O.3     1  LIG1       -0.4888
     44 C         -15.1936   -1.6166   -0.5661 C.3     1  LIG1        0.0791
     45 H         -16.2753   -1.6912   -0.4522 H       1  LIG1        0.0660
     46 H         -14.9117   -1.8929   -1.5900 H       1  LIG1        0.0660
     47 H         -14.7002   -2.2955    0.1408 H       1  LIG1        0.0660
@<TRIPOS>BOND
     1    14    13    1
     2    46    44    1
     3    13    12    3
     4    40    38    1
     5    33    32    1
     6    12     4    1
     7     7     3    1
     8    38    39   ar
     9    38    37   ar
    10    39    35   ar
    11    44    45    1
    12    44    43    1
    13    44    47    1
    14     3     4   ar
    15     3     2   ar
    16     4     5   ar
    17    37    43    1
    18    37    36   ar
    19    30    29    1
    20    35    27    1
    21    35    36   ar
    22     8     2    1
    23    20    19    1
    24     2     1   ar
    25    27    28   ar
    26    27    26   ar
    27    36    41    1
    28    28    24   ar
    29    32    26    1
    30    32    34    1
    31    26    25   ar
    32     5    15    1
    33     5     6   ar
    34    19    15   ar
    35    19    18   ar
    36    24    25   ar
    37    24    18    1
    38    11     9    1
    39    25    29    1
    40    15    16   ar
    41     1     6   ar
    42     1     9    1
    43    18    17   ar
    44    31    29    1
    45    41    42    1
    46    16    17   ar
    47    16    22    1
    48     9    10    1
    49    17    23    1
    50    22    21    3
