@<TRIPOS>MOLECULE
mol_data/opt/b3lyp/geoms/mol2/6he4fh-13ii-6ha-.out
 53 56 0 0 0
SMALL
GASTEIGER

@<TRIPOS>ATOM
      1 C          -3.6069   -1.7307   -1.1691 C.ar    1  LIG1        0.1169
      2 C          -2.8126   -2.1172   -0.0711 C.ar    1  LIG1       -0.0209
      3 C          -2.8365   -1.3201    1.0559 C.ar    1  LIG1       -0.0410
      4 C          -3.6207   -0.1488    1.0935 C.ar    1  LIG1        0.0509
      5 C          -4.3505    0.1740   -0.0764 C.ar    1  LIG1        0.0919
      6 N          -4.3462   -0.6135   -1.1623 N.ar    1  LIG1       -0.2311
      7 H          -2.2601   -1.5934    1.9339 H       1  LIG1        0.0631
      8 H          -2.2168   -3.0240   -0.1061 H       1  LIG1        0.0652
      9 N          -3.6990   -2.5120   -2.3037 N.pl3   1  LIG1       -0.3431
     10 H          -4.0886   -2.0322   -3.1029 H       1  LIG1        0.1437
     11 H          -2.9243   -3.1246   -2.5096 H       1  LIG1        0.1437
     12 C          -3.6952    0.6074    2.2998 C.1     1  LIG1       -0.0675
     13 C          -3.7466    1.1901    3.3599 C.1     1  LIG1       -0.1138
     14 H          -3.8024    1.7189    4.2826 H       1  LIG1        0.1232
     15 C          -4.7507    2.6797    0.0684 C.ar    1  LIG1        0.1268
     16 C          -5.6277    3.7605   -0.0248 C.ar    1  LIG1       -0.0086
     17 C          -5.2231    1.3781   -0.1691 C.ar    1  LIG1        0.0448
     18 C          -6.9751    3.5961   -0.3746 C.ar    1  LIG1        0.0227
     19 H          -5.2661    4.7622    0.1944 H       1  LIG1        0.0661
     20 C          -6.5552    1.2198   -0.5682 C.ar    1  LIG1       -0.0277
     21 C          -7.4397    2.2938   -0.6785 C.ar    1  LIG1        0.0346
     22 H          -6.8963    0.2166   -0.8080 H       1  LIG1        0.0644
     23 O          -3.4215    2.8476    0.3504 O.3     1  LIG1       -0.5061
     24 H          -3.2735    3.7587    0.6336 H       1  LIG1        0.2922
     25 N          -8.7883    2.0847   -1.0583 N.pl3   1  LIG1       -0.3574
     26 H          -9.1169    2.8094   -1.6884 H       1  LIG1        0.1423
     27 H          -8.9229    1.1763   -1.4873 H       1  LIG1        0.1423
     28 C          -7.8789    4.7561   -0.4294 C.ar    1  LIG1        0.0520
     29 C          -7.7789    5.9852   -1.0766 C.ar    1  LIG1       -0.0216
     30 C          -8.9659    6.7242   -0.7849 C.ar    1  LIG1       -0.0216
     31 C          -9.7626    5.9323    0.0465 C.ar    1  LIG1        0.0534
     32 N          -9.0902    4.7393    0.2260 N.ar    1  LIG1       -0.3536
     33 H          -9.3938    4.0015    0.8454 H       1  LIG1        0.1659
     34 C          -6.6637    6.4335   -1.9758 C.3     1  LIG1       -0.0374
     35 H          -7.0422    6.7803   -2.9451 H       1  LIG1        0.0278
     36 H          -5.9600    5.6197   -2.1681 H       1  LIG1        0.0278
     37 H          -6.0962    7.2680   -1.5443 H       1  LIG1        0.0278
     38 C          -9.2931    8.0777   -1.3474 C.3     1  LIG1       -0.0374
     39 H          -8.8660    8.8970   -0.7530 H       1  LIG1        0.0278
     40 H         -10.3727    8.2434   -1.4023 H       1  LIG1        0.0278
     41 H          -8.8916    8.1851   -2.3608 H       1  LIG1        0.0278
     42 C         -12.0062    5.1695    0.9693 C.ar    1  LIG1        0.1253
     43 C         -11.0533    6.1959    0.6884 C.ar    1  LIG1        0.0381
     44 C         -11.4133    7.4897    1.0845 C.ar    1  LIG1       -0.0479
     45 C         -12.6403    7.7375    1.6996 C.ar    1  LIG1       -0.0428
     46 C         -13.4844    6.6561    1.9216 C.ar    1  LIG1        0.0297
     47 N         -13.1808    5.4023    1.5655 N.ar    1  LIG1       -0.2401
     48 H         -10.7102    8.3012    0.9344 H       1  LIG1        0.0626
     49 H         -14.4508    6.7913    2.4039 H       1  LIG1        0.0830
     50 N         -11.7440    3.8299    0.6929 N.pl3   1  LIG1       -0.3426
     51 H         -12.5733    3.2599    0.8015 H       1  LIG1        0.1437
     52 H         -11.2196    3.6278   -0.1485 H       1  LIG1        0.1437
     53 H         -12.9210    8.7380    2.0103 H       1  LIG1        0.0633
@<TRIPOS>BOND
     1    10     9    1
     2    35    34    1
     3    11     9    1
     4    41    38    1
     5     9     1    1
     6    36    34    1
     7    34    37    1
     8    34    29    1
     9    26    25    1
    10    27    25    1
    11    40    38    1
    12    38    30    1
    13    38    39    1
    14     1     6   ar
    15     1     2   ar
    16     6     5   ar
    17    29    30   ar
    18    29    28   ar
    19    25    21    1
    20    22    20    1
    21    30    31   ar
    22    21    20   ar
    23    21    18   ar
    24    20    17   ar
    25    28    18    1
    26    28    32   ar
    27    18    16   ar
    28    17     5    1
    29    17    15   ar
    30    52    50    1
    31     8     2    1
    32     5     4   ar
    33     2     3   ar
    34    16    15   ar
    35    16    19    1
    36    31    32   ar
    37    31    43    1
    38    15    23    1
    39    32    33    1
    40    23    24    1
    41    43    42   ar
    42    43    44   ar
    43    50    51    1
    44    50    42    1
    45    48    44    1
    46    42    47   ar
    47     3     4   ar
    48     3     7    1
    49    44    45   ar
    50     4    12    1
    51    47    46   ar
    52    45    46   ar
    53    45    53    1
    54    46    49    1
    55    12    13    3
    56    13    14    1
