@<TRIPOS>MOLECULE
mol_data/opt/b3lyp/geoms/mol2/6he6he6he6he-.out
 54 57 0 0 0
SMALL
GASTEIGER

@<TRIPOS>ATOM
      1 C          -3.8161   -1.8940   -1.2178 C.ar    1  LIG1        0.1169
      2 C          -2.7812   -2.1656   -0.3004 C.ar    1  LIG1       -0.0209
      3 C          -2.6008   -1.2827    0.7428 C.ar    1  LIG1       -0.0410
      4 C          -3.4105   -0.1338    0.8766 C.ar    1  LIG1        0.0508
      5 C          -4.4015    0.0802   -0.1171 C.ar    1  LIG1        0.0917
      6 N          -4.5884   -0.8054   -1.1161 N.ar    1  LIG1       -0.2311
      7 H          -1.8332   -1.4658    1.4876 H       1  LIG1        0.0631
      8 H          -2.1635   -3.0518   -0.4028 H       1  LIG1        0.0652
      9 N          -4.1127   -2.7607   -2.2459 N.pl3   1  LIG1       -0.3431
     10 H          -4.6657   -2.3667   -2.9933 H       1  LIG1        0.1437
     11 H          -3.3927   -3.4034   -2.5385 H       1  LIG1        0.1437
     12 C          -3.2168    0.6987    2.0186 C.1     1  LIG1       -0.0675
     13 C          -3.0035    1.3491    3.0176 C.1     1  LIG1       -0.1138
     14 H          -2.8431    1.9408    3.8890 H       1  LIG1        0.1232
     15 C          -6.6551    1.2150   -0.5412 C.ar    1  LIG1        0.1262
     16 C          -5.2869    1.2723   -0.1300 C.ar    1  LIG1        0.0423
     17 C          -4.8228    2.5250    0.2503 C.ar    1  LIG1       -0.0317
     18 C          -5.6413    3.6693    0.2556 C.ar    1  LIG1        0.0515
     19 C          -6.9899    3.5045   -0.1551 C.ar    1  LIG1        0.0918
     20 N          -7.4495    2.2960   -0.5222 N.ar    1  LIG1       -0.2304
     21 H          -3.7929    2.6414    0.5614 H       1  LIG1        0.0638
     22 N          -7.2470    0.0477   -0.9322 N.pl3   1  LIG1       -0.3426
     23 H          -8.1415    0.1586   -1.3863 H       1  LIG1        0.1437
     24 H          -6.6153   -0.6588   -1.2899 H       1  LIG1        0.1437
     25 C          -5.0749    4.8930    0.7229 C.1     1  LIG1       -0.0675
     26 C          -4.5305    5.8909    1.1412 C.1     1  LIG1       -0.1138
     27 H          -4.0804    6.7834    1.5093 H       1  LIG1        0.1232
     28 C          -9.3568    4.4494    0.0878 C.ar    1  LIG1        0.1262
     29 C          -7.9665    4.6206   -0.2179 C.ar    1  LIG1        0.0423
     30 C          -7.5827    5.9008   -0.5953 C.ar    1  LIG1       -0.0317
     31 C          -8.4948    6.9711   -0.6512 C.ar    1  LIG1        0.0515
     32 C          -9.8444    6.6933   -0.3207 C.ar    1  LIG1        0.0918
     33 N         -10.2330    5.4670    0.0427 N.ar    1  LIG1       -0.2304
     34 H          -6.5496    6.0983   -0.8493 H       1  LIG1        0.0638
     35 N          -9.8686    3.2523    0.4853 N.pl3   1  LIG1       -0.3426
     36 H         -10.8759    3.2161    0.5327 H       1  LIG1        0.1437
     37 H          -9.3530    2.4293    0.2001 H       1  LIG1        0.1437
     38 C          -8.0174    8.2736   -0.9810 C.1     1  LIG1       -0.0675
     39 C          -7.5853    9.3657   -1.2806 C.1     1  LIG1       -0.1138
     40 H          -7.2146   10.3374   -1.5112 H       1  LIG1        0.1232
     41 C         -11.2718    8.5695   -1.3830 C.ar    1  LIG1        0.1255
     42 C         -10.9252    7.7204   -0.2930 C.ar    1  LIG1        0.0423
     43 C         -11.7258    7.7896    0.8434 C.ar    1  LIG1       -0.0324
     44 C         -12.7959    8.6952    0.9268 C.ar    1  LIG1        0.0435
     45 C         -13.0225    9.5002   -0.2025 C.ar    1  LIG1        0.0451
     46 N         -12.2980    9.4399   -1.3136 N.ar    1  LIG1       -0.2388
     47 H         -11.5130    7.1253    1.6734 H       1  LIG1        0.0638
     48 H         -13.8342   10.2249   -0.1931 H       1  LIG1        0.0843
     49 N         -10.6560    8.5029   -2.6119 N.pl3   1  LIG1       -0.3426
     50 H          -9.6699    8.2864   -2.6288 H       1  LIG1        0.1437
     51 H         -10.9235    9.2691   -3.2151 H       1  LIG1        0.1437
     52 C         -13.6134    8.8008    2.0899 C.1     1  LIG1       -0.0681
     53 C         -14.3119    8.8956    3.0745 C.1     1  LIG1       -0.1139
     54 H         -14.9251    8.9783    3.9412 H       1  LIG1        0.1232
@<TRIPOS>BOND
     1    51    49    1
     2    10     9    1
     3    50    49    1
     4    49    41    1
     5    11     9    1
     6     9     1    1
     7    40    39    1
     8    23    22    1
     9    41    46   ar
    10    41    42   ar
    11    46    45   ar
    12    24    22    1
    13    39    38    3
    14     1     6   ar
    15     1     2   ar
    16     6     5   ar
    17    38    31    1
    18    22    15    1
    19    34    30    1
    20    31    30   ar
    21    31    32   ar
    22    30    29   ar
    23    15    20   ar
    24    15    16   ar
    25    20    19   ar
    26     8     2    1
    27    32    42    1
    28    32    33   ar
    29     2     3   ar
    30    42    43   ar
    31    29    19    1
    32    29    28   ar
    33    45    48    1
    34    45    44   ar
    35    19    18   ar
    36    16     5    1
    37    16    17   ar
    38     5     4   ar
    39    33    28   ar
    40    28    35    1
    41    37    35    1
    42    17    18   ar
    43    17    21    1
    44    18    25    1
    45    35    36    1
    46    25    26    3
    47     3     4   ar
    48     3     7    1
    49    43    44   ar
    50    43    47    1
    51     4    12    1
    52    44    52    1
    53    26    27    1
    54    12    13    3
    55    52    53    3
    56    13    14    1
    57    53    54    1
