@<TRIPOS>MOLECULE
mol_data/opt/b3lyp/geoms/mol2/6he6al-12he-6hf.out
 51 54 0 0 0
SMALL
GASTEIGER

@<TRIPOS>ATOM
      1 C          -4.4139   -2.0835    0.6802 C.ar    1  LIG1        0.1169
      2 C          -3.1238   -2.2842    0.1428 C.ar    1  LIG1       -0.0209
      3 C          -2.5239   -1.2193   -0.4934 C.ar    1  LIG1       -0.0410
      4 C          -3.1694    0.0342   -0.5850 C.ar    1  LIG1        0.0508
      5 C          -4.4496    0.1477    0.0203 C.ar    1  LIG1        0.0900
      6 N          -5.0390   -0.9039    0.6157 N.ar    1  LIG1       -0.2312
      7 H          -1.5429   -1.3323   -0.9435 H       1  LIG1        0.0631
      8 H          -2.6262   -3.2450    0.2263 H       1  LIG1        0.0652
      9 N          -5.0761   -3.0871    1.3473 N.pl3   1  LIG1       -0.3431
     10 H          -6.0550   -2.9112    1.5213 H       1  LIG1        0.1437
     11 H          -4.8269   -4.0425    1.1444 H       1  LIG1        0.1437
     12 C          -2.5184    1.0666   -1.3236 C.1     1  LIG1       -0.0675
     13 C          -1.9010    1.8827   -1.9736 C.1     1  LIG1       -0.1138
     14 H          -1.3774    2.5973   -2.5650 H       1  LIG1        0.1232
     15 C          -6.6562    1.3126    0.0392 C.ar    1  LIG1        0.0378
     16 C          -5.2555    1.3911    0.0339 C.ar    1  LIG1        0.0232
     17 C          -4.6994    2.6795    0.0644 C.ar    1  LIG1       -0.0070
     18 C          -5.5292    3.7920    0.0994 C.ar    1  LIG1        0.1497
     19 C          -6.9375    3.6136    0.1461 C.ar    1  LIG1        0.1493
     20 N          -7.4613    2.3685    0.0895 N.ar    1  LIG1       -0.2475
     21 H          -3.6260    2.7994    0.0500 H       1  LIG1        0.0662
     22 H          -7.1332    0.3382    0.0017 H       1  LIG1        0.0836
     23 O          -5.0549    5.0811    0.0605 O.3     1  LIG1       -0.4928
     24 C          -3.6590    5.2793   -0.1422 C.3     1  LIG1        0.0789
     25 H          -3.5214    6.3564   -0.2484 H       1  LIG1        0.0660
     26 H          -3.0719    4.9219    0.7123 H       1  LIG1        0.0660
     27 H          -3.3164    4.7747   -1.0524 H       1  LIG1        0.0660
     28 C          -7.9000    4.6946    0.2215 C.ar    1  LIG1        0.1791
     29 C          -7.9477    6.0106    0.6601 C.ar    1  LIG1        0.0889
     30 C          -9.3165    6.4472    0.5138 C.ar    1  LIG1        0.0918
     31 C         -10.0306    5.3628    0.0141 C.ar    1  LIG1        0.1563
     32 O          -9.1828    4.3274   -0.1557 O.2     1  LIG1       -0.4499
     33 N          -6.9753    6.7846    1.2437 N.pl3   1  LIG1       -0.3540
     34 H          -6.0280    6.5258    1.0040 H       1  LIG1        0.1425
     35 H          -7.1736    7.7759    1.2388 H       1  LIG1        0.1425
     36 C          -9.7591    7.7417    0.8706 C.1     1  LIG1       -0.0640
     37 C         -10.0568    8.8738    1.1880 C.1     1  LIG1       -0.1137
     38 H         -10.3556    9.8543    1.4779 H       1  LIG1        0.1232
     39 C         -11.9734    3.8371   -0.5568 C.ar    1  LIG1        0.1271
     40 C         -11.4199    5.1457   -0.3415 C.ar    1  LIG1        0.0615
     41 C         -12.2816    6.2432   -0.4808 C.ar    1  LIG1       -0.0047
     42 C         -13.6165    6.0510   -0.8140 C.ar    1  LIG1        0.1357
     43 C         -14.0538    4.7408   -1.0140 C.ar    1  LIG1        0.0711
     44 N         -13.2654    3.6745   -0.8930 N.ar    1  LIG1       -0.2364
     45 H         -11.9133    7.2513   -0.3342 H       1  LIG1        0.0663
     46 H         -15.0922    4.5443   -1.2893 H       1  LIG1        0.0867
     47 N         -11.2682    2.6775   -0.3979 N.pl3   1  LIG1       -0.3426
     48 H         -11.7544    1.8411   -0.6783 H       1  LIG1        0.1437
     49 H         -10.2612    2.6709   -0.3406 H       1  LIG1        0.1437
     50 O         -14.4300    7.1495   -0.9432 O.3     1  LIG1       -0.5052
     51 H         -15.3177    6.8512   -1.1806 H       1  LIG1        0.2922
@<TRIPOS>BOND
     1    14    13    1
     2    13    12    3
     3    12     4    1
     4    46    43    1
     5    51    50    1
     6    27    24    1
     7    43    44   ar
     8    43    42   ar
     9     7     3    1
    10    50    42    1
    11    44    39   ar
    12    42    41   ar
    13    48    47    1
    14     4     3   ar
    15     4     5   ar
    16    39    47    1
    17    39    40   ar
    18     3     2   ar
    19    41    40   ar
    20    41    45    1
    21    47    49    1
    22    40    31    1
    23    25    24    1
    24    32    31   ar
    25    32    28   ar
    26    24    23    1
    27    24    26    1
    28    22    15    1
    29    31    30   ar
    30     5    16    1
    31     5     6   ar
    32    16    15   ar
    33    16    17   ar
    34    15    20   ar
    35    21    17    1
    36    23    18    1
    37    17    18   ar
    38    20    19   ar
    39    18    19   ar
    40     2     8    1
    41     2     1   ar
    42    19    28    1
    43    28    29   ar
    44    30    29   ar
    45    30    36    1
    46     6     1   ar
    47    29    33    1
    48     1     9    1
    49    36    37    3
    50    34    33    1
    51    11     9    1
    52    37    38    1
    53    35    33    1
    54     9    10    1
