@<TRIPOS>MOLECULE
mol_data/opt/b3lyp/geoms/mol2/6he6he-6he-6he-.out
 54 57 0 0 0
SMALL
GASTEIGER

@<TRIPOS>ATOM
      1 C          -4.5702   -2.2103   -0.7236 C.ar    1  LIG1        0.1169
      2 C          -3.1809   -2.3868   -0.5379 C.ar    1  LIG1       -0.0209
      3 C          -2.4336   -1.2890   -0.1697 C.ar    1  LIG1       -0.0410
      4 C          -3.0423   -0.0243   -0.0014 C.ar    1  LIG1        0.0508
      5 C          -4.4330    0.0593   -0.2610 C.ar    1  LIG1        0.0917
      6 N          -5.1633   -1.0150   -0.5990 N.ar    1  LIG1       -0.2311
      7 H          -1.3686   -1.3861    0.0148 H       1  LIG1        0.0631
      8 H          -2.7229   -3.3632   -0.6602 H       1  LIG1        0.0652
      9 N          -5.3962   -3.2684   -1.0107 N.pl3   1  LIG1       -0.3431
     10 H          -6.3243   -3.0218   -1.3215 H       1  LIG1        0.1437
     11 H          -4.9966   -4.1033   -1.4089 H       1  LIG1        0.1437
     12 C          -2.2684    1.0724    0.4793 C.1     1  LIG1       -0.0675
     13 C          -1.5768    1.9729    0.8994 C.1     1  LIG1       -0.1138
     14 H          -0.9896    2.7793    1.2730 H       1  LIG1        0.1232
     15 C          -4.9124    2.5205   -0.8482 C.ar    1  LIG1        0.1262
     16 C          -5.2075    1.3254   -0.1362 C.ar    1  LIG1        0.0423
     17 C          -6.3479    1.3467    0.6522 C.ar    1  LIG1       -0.0317
     18 C          -7.1528    2.4930    0.7846 C.ar    1  LIG1        0.0515
     19 C          -6.7747    3.6368    0.0335 C.ar    1  LIG1        0.0918
     20 N          -5.6771    3.6178   -0.7424 N.ar    1  LIG1       -0.2304
     21 H          -6.6223    0.4497    1.1960 H       1  LIG1        0.0638
     22 N          -3.8498    2.6304   -1.6987 N.pl3   1  LIG1       -0.3426
     23 H          -3.3126    1.8173   -1.9473 H       1  LIG1        0.1437
     24 H          -3.8561    3.4109   -2.3353 H       1  LIG1        0.1437
     25 C          -8.2492    2.4455    1.6964 C.1     1  LIG1       -0.0675
     26 C          -9.1537    2.3378    2.4944 C.1     1  LIG1       -0.1138
     27 H          -9.9545    2.2753    3.1942 H       1  LIG1        0.1232
     28 C          -6.9247    6.1891   -0.0414 C.ar    1  LIG1        0.1262
     29 C          -7.5476    4.9048    0.0399 C.ar    1  LIG1        0.0423
     30 C          -8.9349    4.9105    0.1104 C.ar    1  LIG1       -0.0317
     31 C          -9.6897    6.0977    0.1207 C.ar    1  LIG1        0.0515
     32 C          -8.9760    7.3220    0.0495 C.ar    1  LIG1        0.0918
     33 N          -7.6337    7.3278   -0.0145 N.ar    1  LIG1       -0.2304
     34 H          -9.4704    3.9716    0.1631 H       1  LIG1        0.0638
     35 N          -5.5674    6.3343   -0.1044 N.pl3   1  LIG1       -0.3426
     36 H          -5.0669    5.5375   -0.4809 H       1  LIG1        0.1437
     37 H          -5.2550    7.2582   -0.3643 H       1  LIG1        0.1437
     38 C         -11.1066    5.9899    0.2544 C.1     1  LIG1       -0.0675
     39 C         -12.2995    5.8231    0.3807 C.1     1  LIG1       -0.1138
     40 H         -13.3526    5.7096    0.4936 H       1  LIG1        0.1232
     41 C          -9.0764    9.7981    0.6784 C.ar    1  LIG1        0.1255
     42 C          -9.6398    8.6508    0.0300 C.ar    1  LIG1        0.0423
     43 C         -10.8378    8.8450   -0.6529 C.ar    1  LIG1       -0.0324
     44 C         -11.4764   10.0967   -0.6668 C.ar    1  LIG1        0.0435
     45 C         -10.8468   11.1319    0.0442 C.ar    1  LIG1        0.0451
     46 N          -9.6925   10.9972    0.6858 N.ar    1  LIG1       -0.2388
     47 H         -11.2895    8.0217   -1.1911 H       1  LIG1        0.0638
     48 H         -11.3052   12.1185    0.0760 H       1  LIG1        0.0843
     49 N          -7.9031    9.7372    1.3708 N.pl3   1  LIG1       -0.3426
     50 H          -7.2610    9.0051    1.0948 H       1  LIG1        0.1437
     51 H          -7.5366   10.6331    1.6557 H       1  LIG1        0.1437
     52 C         -12.6981   10.3150   -1.3681 C.1     1  LIG1       -0.0681
     53 C         -13.7360   10.5083   -1.9614 C.1     1  LIG1       -0.1139
     54 H         -14.6483   10.6783   -2.4837 H       1  LIG1        0.1232
@<TRIPOS>BOND
     1    54    53    1
     2    24    22    1
     3    53    52    3
     4    23    22    1
     5    22    15    1
     6    11     9    1
     7    52    44    1
     8    10     9    1
     9    47    43    1
    10     9     1    1
    11    15    20   ar
    12    15    16   ar
    13    20    19   ar
    14     1     6   ar
    15     1     2   ar
    16    44    43   ar
    17    44    45   ar
    18     8     2    1
    19    43    42   ar
    20     6     5   ar
    21     2     3   ar
    22    36    35    1
    23    37    35    1
    24     5    16    1
    25     5     4   ar
    26     3     4   ar
    27     3     7    1
    28    16    17   ar
    29    35    28    1
    30    28    33   ar
    31    28    29   ar
    32    33    32   ar
    33     4    12    1
    34    42    32    1
    35    42    41   ar
    36    19    29    1
    37    19    18   ar
    38    29    30   ar
    39    45    48    1
    40    45    46   ar
    41    32    31   ar
    42    30    31   ar
    43    30    34    1
    44    31    38    1
    45    38    39    3
    46    39    40    1
    47    12    13    3
    48    17    18   ar
    49    17    21    1
    50    41    46   ar
    51    41    49    1
    52    18    25    1
    53    13    14    1
    54    50    49    1
    55    49    51    1
    56    25    26    3
    57    26    27    1
