@<TRIPOS>MOLECULE
mol_data/opt/b3lyp/geoms/mol2/6he6he-6he.out
 41 43 0 0 0
SMALL
GASTEIGER

@<TRIPOS>ATOM
      1 C          -4.4922   -2.0995    0.4939 C.ar    1  LIG1        0.1169
      2 C          -3.1155   -2.2387    0.2100 C.ar    1  LIG1       -0.0209
      3 C          -2.4247   -1.1157   -0.1895 C.ar    1  LIG1       -0.0410
      4 C          -3.0750    0.1349   -0.2860 C.ar    1  LIG1        0.0508
      5 C          -4.4470    0.1824    0.0651 C.ar    1  LIG1        0.0917
      6 N          -5.1242   -0.9206    0.4198 N.ar    1  LIG1       -0.2311
      7 H          -1.3724   -1.1802   -0.4469 H       1  LIG1        0.0631
      8 H          -2.6230   -3.2018    0.2975 H       1  LIG1        0.0652
      9 N          -5.2495   -3.1666    0.9077 N.pl3   1  LIG1       -0.3431
     10 H          -6.2473   -3.0139    0.9127 H       1  LIG1        0.1437
     11 H          -4.9379   -4.0991    0.6871 H       1  LIG1        0.1437
     12 C          -2.3527    1.2614   -0.7773 C.1     1  LIG1       -0.0675
     13 C          -1.7053    2.2016   -1.1843 C.1     1  LIG1       -0.1138
     14 H          -1.1579    3.0313   -1.5683 H       1  LIG1        0.1232
     15 C          -4.9693    2.6457    0.6712 C.ar    1  LIG1        0.1262
     16 C          -5.2748    1.4207    0.0103 C.ar    1  LIG1        0.0423
     17 C          -6.4941    1.3662   -0.6506 C.ar    1  LIG1       -0.0317
     18 C          -7.3700    2.4651   -0.6955 C.ar    1  LIG1        0.0515
     19 C          -6.9786    3.6315    0.0086 C.ar    1  LIG1        0.0918
     20 N          -5.8071    3.6951    0.6498 N.ar    1  LIG1       -0.2304
     21 H          -6.7733    0.4483   -1.1555 H       1  LIG1        0.0638
     22 N          -3.8554    2.8171    1.4542 N.pl3   1  LIG1       -0.3426
     23 H          -3.0089    2.3352    1.1910 H       1  LIG1        0.1437
     24 H          -3.7278    3.7751    1.7506 H       1  LIG1        0.1437
     25 C          -8.5628    2.3794   -1.4724 C.1     1  LIG1       -0.0675
     26 C          -9.5767    2.2722   -2.1276 C.1     1  LIG1       -0.1138
     27 H         -10.4572    2.2043   -2.7233 H       1  LIG1        0.1232
     28 C          -9.1358    4.9724    0.4782 C.ar    1  LIG1        0.1255
     29 C          -7.7805    4.8879    0.0475 C.ar    1  LIG1        0.0423
     30 C          -7.1380    6.0832   -0.2603 C.ar    1  LIG1       -0.0324
     31 C          -7.8144    7.3122   -0.1946 C.ar    1  LIG1        0.0435
     32 C          -9.1569    7.2649    0.2177 C.ar    1  LIG1        0.0451
     33 N          -9.7933    6.1465    0.5454 N.ar    1  LIG1       -0.2388
     34 H          -6.0944    6.0555   -0.5527 H       1  LIG1        0.0638
     35 H          -9.7335    8.1855    0.2810 H       1  LIG1        0.0843
     36 N          -9.8434    3.8890    0.9429 N.pl3   1  LIG1       -0.3426
     37 H         -10.8263    4.0914    1.0643 H       1  LIG1        0.1437
     38 H          -9.6476    2.9874    0.5341 H       1  LIG1        0.1437
     39 C          -7.1825    8.5459   -0.5276 C.1     1  LIG1       -0.0681
     40 C          -6.6516    9.5974   -0.8085 C.1     1  LIG1       -0.1139
     41 H          -6.1853   10.5224   -1.0557 H       1  LIG1        0.1232
@<TRIPOS>BOND
     1    27    26    1
     2    26    25    3
     3    14    13    1
     4    25    18    1
     5    13    12    3
     6    21    17    1
     7    41    40    1
     8    40    39    3
     9    12     4    1
    10    18    17   ar
    11    18    19   ar
    12    17    16   ar
    13    34    30    1
    14    39    31    1
    15     7     3    1
    16     4     3   ar
    17     4     5   ar
    18    30    31   ar
    19    30    29   ar
    20    31    32   ar
    21     3     2   ar
    22    19    29    1
    23    19    20   ar
    24    16     5    1
    25    16    15   ar
    26    29    28   ar
    27     5     6   ar
    28     2     8    1
    29     2     1   ar
    30    32    35    1
    31    32    33   ar
    32     6     1   ar
    33    28    33   ar
    34    28    36    1
    35     1     9    1
    36    38    36    1
    37    20    15   ar
    38    15    22    1
    39    11     9    1
    40     9    10    1
    41    36    37    1
    42    23    22    1
    43    22    24    1
