@<TRIPOS>MOLECULE
mol_data/opt/b3lyp/geoms/mol2/6he6he-6he6he-.out
 54 57 0 0 0
SMALL
GASTEIGER

@<TRIPOS>ATOM
      1 C          -4.4044   -2.1401   -0.8456 C.ar    1  LIG1        0.1169
      2 C          -3.0552   -2.3218   -0.4690 C.ar    1  LIG1       -0.0209
      3 C          -2.3913   -1.2485    0.0833 C.ar    1  LIG1       -0.0410
      4 C          -3.0421   -0.0054    0.2490 C.ar    1  LIG1        0.0508
      5 C          -4.3818    0.0910   -0.2020 C.ar    1  LIG1        0.0917
      6 N          -5.0320   -0.9632   -0.7181 N.ar    1  LIG1       -0.2311
      7 H          -1.3620   -1.3490    0.4121 H       1  LIG1        0.0631
      8 H          -2.5660   -3.2825   -0.5943 H       1  LIG1        0.0652
      9 N          -5.1593   -3.1778   -1.3330 N.pl3   1  LIG1       -0.3431
     10 H          -6.0309   -2.9100   -1.7664 H       1  LIG1        0.1437
     11 H          -4.6869   -3.9721   -1.7352 H       1  LIG1        0.1437
     12 C          -2.3543    1.0620    0.8964 C.1     1  LIG1       -0.0675
     13 C          -1.7357    1.9532    1.4367 C.1     1  LIG1       -0.1138
     14 H          -1.2148    2.7356    1.9387 H       1  LIG1        0.1232
     15 C          -4.8448    2.6056   -0.6208 C.ar    1  LIG1        0.1262
     16 C          -5.2062    1.3290   -0.1008 C.ar    1  LIG1        0.0423
     17 C          -6.4760    1.2257    0.4501 C.ar    1  LIG1       -0.0317
     18 C          -7.3521    2.3233    0.5194 C.ar    1  LIG1        0.0515
     19 C          -6.9047    3.5421   -0.0486 C.ar    1  LIG1        0.0918
     20 N          -5.6827    3.6545   -0.5798 N.ar    1  LIG1       -0.2304
     21 H          -6.7968    0.2687    0.8461 H       1  LIG1        0.0638
     22 N          -3.6663    2.8380   -1.2853 N.pl3   1  LIG1       -0.3426
     23 H          -2.8437    2.3371   -0.9832 H       1  LIG1        0.1437
     24 H          -3.5180    3.8176   -1.4864 H       1  LIG1        0.1437
     25 C          -8.6028    2.1805    1.1892 C.1     1  LIG1       -0.0675
     26 C          -9.6653    2.0259    1.7512 C.1     1  LIG1       -0.1138
     27 H         -10.5891    1.9116    2.2695 H       1  LIG1        0.1232
     28 C          -9.0207    4.9360   -0.5801 C.ar    1  LIG1        0.1262
     29 C          -7.7027    4.8008   -0.0552 C.ar    1  LIG1        0.0423
     30 C          -7.0968    5.9660    0.3929 C.ar    1  LIG1       -0.0317
     31 C          -7.7534    7.2093    0.3626 C.ar    1  LIG1        0.0515
     32 C          -9.0564    7.2375   -0.1946 C.ar    1  LIG1        0.0918
     33 N          -9.6496    6.1216   -0.6312 N.ar    1  LIG1       -0.2304
     34 H          -6.0886    5.9110    0.7879 H       1  LIG1        0.0638
     35 N          -9.7065    3.8976   -1.1577 N.pl3   1  LIG1       -0.3426
     36 H         -10.6685    4.1287   -1.3649 H       1  LIG1        0.1437
     37 H          -9.5588    2.9675   -0.7950 H       1  LIG1        0.1437
     38 C          -7.1159    8.3520    0.9293 C.1     1  LIG1       -0.0675
     39 C          -6.5426    9.3083    1.4043 C.1     1  LIG1       -0.1138
     40 H          -6.0644   10.1520    1.8452 H       1  LIG1        0.1232
     41 C          -9.4961    9.6779   -0.9199 C.ar    1  LIG1        0.1255
     42 C          -9.8959    8.4667   -0.2854 C.ar    1  LIG1        0.0423
     43 C         -11.2013    8.4028    0.1918 C.ar    1  LIG1       -0.0324
     44 C         -12.0680    9.5037    0.0943 C.ar    1  LIG1        0.0435
     45 C         -11.5503   10.6527   -0.5272 C.ar    1  LIG1        0.0451
     46 N         -10.3200   10.7396   -1.0188 N.ar    1  LIG1       -0.2388
     47 H         -11.5479    7.4801    0.6434 H       1  LIG1        0.0638
     48 H         -12.1737   11.5393   -0.6248 H       1  LIG1        0.0843
     49 N          -8.2866    9.8272   -1.5566 N.pl3   1  LIG1       -0.3426
     50 H          -7.4904    9.3367   -1.1773 H       1  LIG1        0.1437
     51 H          -8.1035   10.7860   -1.8194 H       1  LIG1        0.1437
     52 C         -13.4012    9.4680    0.5975 C.1     1  LIG1       -0.0681
     53 C         -14.5348    9.4444    1.0228 C.1     1  LIG1       -0.1139
     54 H         -15.5317    9.4240    1.3968 H       1  LIG1        0.1232
@<TRIPOS>BOND
     1    51    49    1
     2    10     9    1
     3    11     9    1
     4    49    50    1
     5    49    41    1
     6    24    22    1
     7    36    35    1
     8     9     1    1
     9    22    23    1
    10    22    15    1
    11    35    37    1
    12    35    28    1
    13    46    41   ar
    14    46    45   ar
    15    41    42   ar
    16     1     6   ar
    17     1     2   ar
    18     6     5   ar
    19    33    28   ar
    20    33    32   ar
    21    48    45    1
    22    15    20   ar
    23    15    16   ar
    24     8     2    1
    25    28    29   ar
    26    20    19   ar
    27    45    44   ar
    28     2     3   ar
    29    42    32    1
    30    42    43   ar
    31     5    16    1
    32     5     4   ar
    33    32    31   ar
    34    16    17   ar
    35    29    19    1
    36    29    30   ar
    37    19    18   ar
    38     3     4   ar
    39     3     7    1
    40    44    43   ar
    41    44    52    1
    42    43    47    1
    43     4    12    1
    44    31    30   ar
    45    31    38    1
    46    30    34    1
    47    17    18   ar
    48    17    21    1
    49    18    25    1
    50    52    53    3
    51    12    13    3
    52    38    39    3
    53    53    54    1
    54    25    26    3
    55    39    40    1
    56    13    14    1
    57    26    27    1
