@<TRIPOS>MOLECULE
mol_data/opt/b3lyp/geoms/mol2/6he6he.out
 28 29 0 0 0
SMALL
GASTEIGER

@<TRIPOS>ATOM
      1 C          -4.4558   -2.0444   -0.5646 C.ar    1  LIG1        0.1169
      2 C          -3.0696   -2.0825   -0.3160 C.ar    1  LIG1       -0.0209
      3 C          -2.4621   -0.9182    0.1046 C.ar    1  LIG1       -0.0410
      4 C          -3.1990    0.2755    0.2602 C.ar    1  LIG1        0.0508
      5 C          -4.5837    0.2297   -0.0518 C.ar    1  LIG1        0.0917
      6 N          -5.1719   -0.9213   -0.4338 N.ar    1  LIG1       -0.2311
      7 H          -1.4013   -0.9064    0.3330 H       1  LIG1        0.0631
      8 H          -2.5066   -3.0029   -0.4315 H       1  LIG1        0.0652
      9 N          -5.1557   -3.1783   -0.9167 N.pl3   1  LIG1       -0.3431
     10 H          -6.0598   -3.0080   -1.3334 H       1  LIG1        0.1437
     11 H          -4.6343   -3.9388   -1.3257 H       1  LIG1        0.1437
     12 C          -2.5220    1.4250    0.7660 C.1     1  LIG1       -0.0675
     13 C          -1.8830    2.3524    1.2110 C.1     1  LIG1       -0.1138
     14 H          -1.3507    3.1876    1.6036 H       1  LIG1        0.1232
     15 C          -6.8254    1.3504    0.4572 C.ar    1  LIG1        0.1255
     16 C          -5.4648    1.4242    0.0151 C.ar    1  LIG1        0.0423
     17 C          -5.0029    2.6764   -0.3821 C.ar    1  LIG1       -0.0324
     18 C          -5.8242    3.8142   -0.3109 C.ar    1  LIG1        0.0435
     19 C          -7.1249    3.6201    0.1837 C.ar    1  LIG1        0.0451
     20 N          -7.6132    2.4403    0.5470 N.ar    1  LIG1       -0.2388
     21 H          -3.9941    2.7828   -0.7599 H       1  LIG1        0.0638
     22 H          -7.7990    4.4700    0.2719 H       1  LIG1        0.0843
     23 N          -7.3960    0.1790    0.8621 N.pl3   1  LIG1       -0.3426
     24 H          -8.3931    0.2283    1.0095 H       1  LIG1        0.1437
     25 H          -6.9973   -0.6674    0.4776 H       1  LIG1        0.1437
     26 C          -5.3707    5.1014   -0.7222 C.1     1  LIG1       -0.0681
     27 C          -4.9921    6.1979   -1.0700 C.1     1  LIG1       -0.1139
     28 H          -4.6604    7.1622   -1.3768 H       1  LIG1        0.1232
@<TRIPOS>BOND
     1    28    27    1
     2    10     9    1
     3    11     9    1
     4    27    26    3
     5     9     1    1
     6    21    17    1
     7    26    18    1
     8     1     6   ar
     9     1     2   ar
    10     6     5   ar
    11     8     2    1
    12    17    18   ar
    13    17    16   ar
    14     2     3   ar
    15    18    19   ar
    16     5    16    1
    17     5     4   ar
    18    16    15   ar
    19     3     4   ar
    20     3     7    1
    21    19    22    1
    22    19    20   ar
    23     4    12    1
    24    15    20   ar
    25    15    23    1
    26    25    23    1
    27    12    13    3
    28    23    24    1
    29    13    14    1
