@<TRIPOS>MOLECULE
mol_data/opt/b3lyp/geoms/mol2/6he6he6he-6he-.out
 54 57 0 0 0
SMALL
GASTEIGER

@<TRIPOS>ATOM
      1 C          -4.3365   -2.1085   -1.0764 C.ar    1  LIG1        0.1169
      2 C          -3.1397   -2.3710   -0.3799 C.ar    1  LIG1       -0.0209
      3 C          -2.6638   -1.3932    0.4673 C.ar    1  LIG1       -0.0410
      4 C          -3.3390   -0.1621    0.6159 C.ar    1  LIG1        0.0508
      5 C          -4.5143    0.0306   -0.1572 C.ar    1  LIG1        0.0917
      6 N          -4.9870   -0.9445   -0.9587 N.ar    1  LIG1       -0.2311
      7 H          -1.7603   -1.5617    1.0441 H       1  LIG1        0.0631
      8 H          -2.6250   -3.3196   -0.4924 H       1  LIG1        0.0652
      9 N          -4.9216   -3.0566   -1.8852 N.pl3   1  LIG1       -0.3431
     10 H          -5.6043   -2.7016   -2.5391 H       1  LIG1        0.1437
     11 H          -4.3367   -3.7996   -2.2358 H       1  LIG1        0.1437
     12 C          -2.8290    0.7748    1.5632 C.1     1  LIG1       -0.0675
     13 C          -2.3443    1.5119    2.3929 C.1     1  LIG1       -0.1138
     14 H          -1.9447    2.1791    3.1211 H       1  LIG1        0.1232
     15 C          -6.7231    1.3245   -0.2475 C.ar    1  LIG1        0.1262
     16 C          -5.2938    1.2950   -0.1437 C.ar    1  LIG1        0.0423
     17 C          -4.6676    2.5298   -0.0436 C.ar    1  LIG1       -0.0317
     18 C          -5.3903    3.7376   -0.0222 C.ar    1  LIG1        0.0515
     19 C          -6.8002    3.6527   -0.1291 C.ar    1  LIG1        0.0918
     20 N          -7.4206    2.4723   -0.2255 N.ar    1  LIG1       -0.2304
     21 H          -3.5891    2.5802    0.0304 H       1  LIG1        0.0638
     22 N          -7.4670    0.1875   -0.3326 N.pl3   1  LIG1       -0.3426
     23 H          -8.4429    0.3337   -0.5439 H       1  LIG1        0.1437
     24 H          -6.9970   -0.6290   -0.7019 H       1  LIG1        0.1437
     25 C          -4.6863    4.9639    0.1582 C.1     1  LIG1       -0.0675
     26 C          -4.0597    5.9927    0.2952 C.1     1  LIG1       -0.1138
     27 H          -3.5230    6.8991    0.4546 H       1  LIG1        0.1232
     28 C          -7.6332    5.9623   -0.9520 C.ar    1  LIG1        0.1262
     29 C          -7.7165    4.8272   -0.0987 C.ar    1  LIG1        0.0423
     30 C          -8.8102    4.7826    0.7558 C.ar    1  LIG1       -0.0317
     31 C          -9.7762    5.8021    0.8030 C.ar    1  LIG1        0.0515
     32 C          -9.6181    6.8843   -0.1023 C.ar    1  LIG1        0.0918
     33 N          -8.5554    6.9373   -0.9234 N.ar    1  LIG1       -0.2304
     34 H          -8.9198    3.9280    1.4136 H       1  LIG1        0.0638
     35 N          -6.6725    6.0934   -1.9277 N.pl3   1  LIG1       -0.3426
     36 H          -5.7457    5.7492   -1.7200 H       1  LIG1        0.1437
     37 H          -6.6905    6.9944   -2.3848 H       1  LIG1        0.1437
     38 C         -10.8081    5.7083    1.7845 C.1     1  LIG1       -0.0675
     39 C         -11.6454    5.5696    2.6483 C.1     1  LIG1       -0.1138
     40 H         -12.3929    5.4769    3.4015 H       1  LIG1        0.1232
     41 C         -10.1904    9.3509   -0.4754 C.ar    1  LIG1        0.1255
     42 C         -10.5914    8.0026   -0.2043 C.ar    1  LIG1        0.0423
     43 C         -11.9584    7.7739   -0.0681 C.ar    1  LIG1       -0.0324
     44 C         -12.8872    8.8253   -0.1513 C.ar    1  LIG1        0.0435
     45 C         -12.3647   10.1099   -0.3749 C.ar    1  LIG1        0.0451
     46 N         -11.0727   10.3676   -0.5385 N.ar    1  LIG1       -0.2388
     47 H         -12.3218    6.7682    0.0994 H       1  LIG1        0.0638
     48 H         -13.0393   10.9618   -0.4358 H       1  LIG1        0.0843
     49 N          -8.8807    9.6986   -0.6412 N.pl3   1  LIG1       -0.3426
     50 H          -8.2701    8.9592   -0.9652 H       1  LIG1        0.1437
     51 H          -8.7401   10.6370   -0.9852 H       1  LIG1        0.1437
     52 C         -14.2899    8.6072   -0.0219 C.1     1  LIG1       -0.0681
     53 C         -15.4828    8.4293    0.0877 C.1     1  LIG1       -0.1139
     54 H         -16.5318    8.2724    0.1826 H       1  LIG1        0.1232
@<TRIPOS>BOND
     1    10     9    1
     2    37    35    1
     3    11     9    1
     4    35    36    1
     5    35    28    1
     6     9     1    1
     7     1     6   ar
     8     1     2   ar
     9    51    49    1
    10    50    49    1
    11     6     5   ar
    12    28    33   ar
    13    28    29   ar
    14    33    32   ar
    15    24    22    1
    16    49    41    1
    17    23    22    1
    18    46    41   ar
    19    46    45   ar
    20     8     2    1
    21    41    42   ar
    22    48    45    1
    23     2     3   ar
    24    45    44   ar
    25    22    15    1
    26    15    20   ar
    27    15    16   ar
    28    20    19   ar
    29    42    32    1
    30    42    43   ar
    31     5    16    1
    32     5     4   ar
    33    44    43   ar
    34    44    52    1
    35    16    17   ar
    36    19    29    1
    37    19    18   ar
    38    32    31   ar
    39    29    30   ar
    40    43    47    1
    41    17    18   ar
    42    17    21    1
    43    18    25    1
    44    52    53    3
    45    53    54    1
    46    25    26    3
    47    26    27    1
    48     3     4   ar
    49     3     7    1
    50     4    12    1
    51    30    31   ar
    52    30    34    1
    53    31    38    1
    54    12    13    3
    55    38    39    3
    56    13    14    1
    57    39    40    1
