@<TRIPOS>MOLECULE
mol_data/opt/b3lyp/geoms/mol2/6he6he6he-6he.out
 54 57 0 0 0
SMALL
GASTEIGER

@<TRIPOS>ATOM
      1 C          -4.3982   -2.2753   -0.2511 C.ar    1  LIG1        0.1169
      2 C          -3.0270   -2.3321    0.0688 C.ar    1  LIG1       -0.0209
      3 C          -2.3973   -1.1521    0.4029 C.ar    1  LIG1       -0.0410
      4 C          -3.0963    0.0744    0.4043 C.ar    1  LIG1        0.0508
      5 C          -4.4657    0.0419    0.0301 C.ar    1  LIG1        0.0917
      6 N          -5.0778   -1.1221   -0.2664 N.ar    1  LIG1       -0.2311
      7 H          -1.3486   -1.1517    0.6815 H       1  LIG1        0.0631
      8 H          -2.4935   -3.2769    0.0716 H       1  LIG1        0.0652
      9 N          -5.1204   -3.4150   -0.5256 N.pl3   1  LIG1       -0.3431
     10 H          -5.9990   -3.2636   -0.9998 H       1  LIG1        0.1437
     11 H          -4.6098   -4.2334   -0.8200 H       1  LIG1        0.1437
     12 C          -2.3998    1.2447    0.8292 C.1     1  LIG1       -0.0675
     13 C          -1.7439    2.1876    1.2134 C.1     1  LIG1       -0.1138
     14 H          -1.1920    3.0334    1.5525 H       1  LIG1        0.1232
     15 C          -6.6961    1.2800    0.2786 C.ar    1  LIG1        0.1262
     16 C          -5.3034    1.2640   -0.0613 C.ar    1  LIG1        0.0423
     17 C          -4.7812    2.4629   -0.5289 C.ar    1  LIG1       -0.0317
     18 C          -5.5514    3.6382   -0.6016 C.ar    1  LIG1        0.0515
     19 C          -6.8906    3.5656   -0.1429 C.ar    1  LIG1        0.0918
     20 N          -7.4274    2.4067    0.2520 N.ar    1  LIG1       -0.2304
     21 H          -3.7545    2.5043   -0.8693 H       1  LIG1        0.0638
     22 N          -7.3514    0.1650    0.6984 N.pl3   1  LIG1       -0.3426
     23 H          -8.3499    0.2622    0.8023 H       1  LIG1        0.1437
     24 H          -6.9499   -0.7253    0.4344 H       1  LIG1        0.1437
     25 C          -4.9811    4.8106   -1.1787 C.1     1  LIG1       -0.0675
     26 C          -4.4658    5.7967   -1.6595 C.1     1  LIG1       -0.1138
     27 H          -4.0362    6.6614   -2.1099 H       1  LIG1        0.1232
     28 C          -7.5751    5.9825    0.4873 C.ar    1  LIG1        0.1262
     29 C          -7.8303    4.7213   -0.1262 C.ar    1  LIG1        0.0423
     30 C          -9.0987    4.5436   -0.6613 C.ar    1  LIG1       -0.0317
     31 C         -10.0715    5.5583   -0.6323 C.ar    1  LIG1        0.0515
     32 C          -9.7211    6.7696    0.0153 C.ar    1  LIG1        0.0918
     33 N          -8.5039    6.9518    0.5372 N.ar    1  LIG1       -0.2304
     34 H          -9.3395    3.5936   -1.1247 H       1  LIG1        0.0638
     35 N          -6.4115    6.2698    1.1541 N.pl3   1  LIG1       -0.3426
     36 H          -5.5541    5.8560    0.8193 H       1  LIG1        0.1437
     37 H          -6.3425    7.2415    1.4239 H       1  LIG1        0.1437
     38 C         -11.3210    5.3508   -1.2876 C.1     1  LIG1       -0.0675
     39 C         -12.3790    5.1401   -1.8396 C.1     1  LIG1       -0.1138
     40 H         -13.3028    4.9812   -2.3459 H       1  LIG1        0.1232
     41 C         -11.9374    7.9211    0.6743 C.ar    1  LIG1        0.1255
     42 C         -10.6272    7.9497    0.1159 C.ar    1  LIG1        0.0423
     43 C         -10.1303    9.1906   -0.2701 C.ar    1  LIG1       -0.0324
     44 C         -10.9088   10.3543   -0.1588 C.ar    1  LIG1        0.0435
     45 C         -12.1967   10.1947    0.3801 C.ar    1  LIG1        0.0451
     46 N         -12.6926    9.0314    0.7851 N.ar    1  LIG1       -0.2388
     47 H          -9.1208    9.2506   -0.6612 H       1  LIG1        0.0638
     48 H         -12.8483   11.0602    0.4829 H       1  LIG1        0.0843
     49 N         -12.4934    6.7898    1.2231 N.pl3   1  LIG1       -0.3426
     50 H         -13.4757    6.9027    1.4329 H       1  LIG1        0.1437
     51 H         -12.2500    5.8991    0.8162 H       1  LIG1        0.1437
     52 C         -10.4287   11.6319   -0.5701 C.1     1  LIG1       -0.0681
     53 C         -10.0269   12.7202   -0.9177 C.1     1  LIG1       -0.1139
     54 H          -9.6740   13.6773   -1.2233 H       1  LIG1        0.1232
@<TRIPOS>BOND
     1    40    39    1
     2    27    26    1
     3    39    38    3
     4    26    25    3
     5    38    31    1
     6    54    53    1
     7    25    18    1
     8    34    30    1
     9    10     9    1
    10    53    52    3
    11    21    17    1
    12    11     9    1
    13    30    31   ar
    14    30    29   ar
    15    47    43    1
    16    31    32   ar
    17    18    17   ar
    18    18    19   ar
    19    52    44    1
    20    17    16   ar
    21     9     1    1
    22    43    44   ar
    23    43    42   ar
    24     6     1   ar
    25     6     5   ar
    26     1     2   ar
    27    44    45   ar
    28    19    29    1
    29    19    20   ar
    30    29    28   ar
    31    16     5    1
    32    16    15   ar
    33    32    42    1
    34    32    33   ar
    35     5     4   ar
    36     2     8    1
    37     2     3   ar
    38    42    41   ar
    39    20    15   ar
    40    15    22    1
    41    45    48    1
    42    45    46   ar
    43     3     4   ar
    44     3     7    1
    45     4    12    1
    46    24    22    1
    47    28    33   ar
    48    28    35    1
    49    41    46   ar
    50    41    49    1
    51    22    23    1
    52    51    49    1
    53    36    35    1
    54    12    13    3
    55    35    37    1
    56    13    14    1
    57    49    50    1
