@<TRIPOS>MOLECULE
mol_data/opt/b3lyp/geoms/mol2/6he6he-.out
 28 29 0 0 0
SMALL
GASTEIGER

@<TRIPOS>ATOM
      1 C          -4.4695   -2.0231   -0.5432 C.ar    1  LIG1        0.1169
      2 C          -3.1342   -2.1264   -0.0958 C.ar    1  LIG1       -0.0209
      3 C          -2.5201   -0.9814    0.3633 C.ar    1  LIG1       -0.0410
      4 C          -3.2063    0.2533    0.3674 C.ar    1  LIG1        0.0508
      5 C          -4.5280    0.2641   -0.1444 C.ar    1  LIG1        0.0917
      6 N          -5.1293   -0.8575   -0.5695 N.ar    1  LIG1       -0.2311
      7 H          -1.5038   -1.0171    0.7423 H       1  LIG1        0.0631
      8 H          -2.6179   -3.0810   -0.0962 H       1  LIG1        0.0652
      9 N          -5.1800   -3.1283   -0.9447 N.pl3   1  LIG1       -0.3431
     10 H          -6.0367   -2.9285   -1.4404 H       1  LIG1        0.1437
     11 H          -4.6707   -3.9429   -1.2496 H       1  LIG1        0.1437
     12 C          -2.5714    1.4033    0.9206 C.1     1  LIG1       -0.0675
     13 C          -1.9966    2.3644    1.3840 C.1     1  LIG1       -0.1138
     14 H          -1.5176    3.2125    1.8158 H       1  LIG1        0.1232
     15 C          -5.0204    2.7000   -0.8538 C.ar    1  LIG1        0.1255
     16 C          -5.3835    1.4840   -0.2071 C.ar    1  LIG1        0.0423
     17 C          -6.6738    1.4010    0.3087 C.ar    1  LIG1       -0.0324
     18 C          -7.5598    2.4876    0.2338 C.ar    1  LIG1        0.0435
     19 C          -7.0794    3.6419   -0.4080 C.ar    1  LIG1        0.0451
     20 N          -5.8648    3.7466   -0.9341 N.ar    1  LIG1       -0.2388
     21 H          -6.9933    0.4738    0.7712 H       1  LIG1        0.0638
     22 H          -7.7202    4.5172   -0.4926 H       1  LIG1        0.0843
     23 N          -3.8294    2.8692   -1.5227 N.pl3   1  LIG1       -0.3426
     24 H          -3.0113    2.4155   -1.1434 H       1  LIG1        0.1437
     25 H          -3.6804    3.8305   -1.7991 H       1  LIG1        0.1437
     26 C          -8.8772    2.4326    0.7754 C.1     1  LIG1       -0.0681
     27 C          -9.9976    2.3925    1.2328 C.1     1  LIG1       -0.1139
     28 H         -10.9827    2.3569    1.6360 H       1  LIG1        0.1232
@<TRIPOS>BOND
     1    25    23    1
     2    23    24    1
     3    23    15    1
     4    10     9    1
     5    11     9    1
     6     9     1    1
     7    20    15   ar
     8    20    19   ar
     9    15    16   ar
    10     6     1   ar
    11     6     5   ar
    12     1     2   ar
    13    22    19    1
    14    19    18   ar
    15    16     5    1
    16    16    17   ar
    17     5     4   ar
    18     8     2    1
    19     2     3   ar
    20    18    17   ar
    21    18    26    1
    22    17    21    1
    23     3     4   ar
    24     3     7    1
    25     4    12    1
    26    26    27    3
    27    12    13    3
    28    27    28    1
    29    13    14    1
