@<TRIPOS>MOLECULE
mol_data/opt/b3lyp/geoms/mol2/6he6he-6he-6he.out
 54 57 0 0 0
SMALL
GASTEIGER

@<TRIPOS>ATOM
      1 C          -4.1902   -2.0156    1.0395 C.ar    1  LIG1        0.1169
      2 C          -3.0362   -2.3242    0.2847 C.ar    1  LIG1       -0.0209
      3 C          -2.5875   -1.3858   -0.6185 C.ar    1  LIG1       -0.0410
      4 C          -3.2529   -0.1475   -0.7626 C.ar    1  LIG1        0.0508
      5 C          -4.3750    0.0857    0.0711 C.ar    1  LIG1        0.0917
      6 N          -4.8287   -0.8431    0.9258 N.ar    1  LIG1       -0.2311
      7 H          -1.7224   -1.5913   -1.2406 H       1  LIG1        0.0631
      8 H          -2.5266   -3.2742    0.4097 H       1  LIG1        0.0652
      9 N          -4.6941   -2.8904    1.9678 N.pl3   1  LIG1       -0.3431
     10 H          -5.6101   -2.6651    2.3266 H       1  LIG1        0.1437
     11 H          -4.4667   -3.8690    1.8912 H       1  LIG1        0.1437
     12 C          -2.8125    0.7738   -1.7575 C.1     1  LIG1       -0.0675
     13 C          -2.4039    1.5389   -2.6038 C.1     1  LIG1       -0.1138
     14 H          -2.0733    2.2096   -3.3629 H       1  LIG1        0.1232
     15 C          -4.6682    2.6494    0.1994 C.ar    1  LIG1        0.1262
     16 C          -5.1847    1.3362    0.0274 C.ar    1  LIG1        0.0423
     17 C          -6.5652    1.2292   -0.0717 C.ar    1  LIG1       -0.0317
     18 C          -7.4110    2.3515   -0.0836 C.ar    1  LIG1        0.0515
     19 C          -6.7935    3.6256    0.0242 C.ar    1  LIG1        0.0918
     20 N          -5.4638    3.7292    0.1890 N.ar    1  LIG1       -0.2304
     21 H          -7.0059    0.2407   -0.1338 H       1  LIG1        0.0638
     22 N          -3.3439    2.9017    0.4728 N.pl3   1  LIG1       -0.3426
     23 H          -2.6636    2.2523    0.1070 H       1  LIG1        0.1437
     24 H          -3.0895    3.8723    0.3518 H       1  LIG1        0.1437
     25 C          -8.8204    2.1360   -0.1464 C.1     1  LIG1       -0.0675
     26 C         -10.0028    1.8776   -0.1892 C.1     1  LIG1       -0.1138
     27 H         -11.0485    1.6775   -0.2216 H       1  LIG1        0.1232
     28 C          -7.1966    6.0530    0.7399 C.ar    1  LIG1        0.1262
     29 C          -7.5542    4.8981   -0.0307 C.ar    1  LIG1        0.0423
     30 C          -8.6456    5.0489   -0.8761 C.ar    1  LIG1       -0.0317
     31 C          -9.3937    6.2395   -0.9283 C.ar    1  LIG1        0.0515
     32 C          -9.0112    7.2857   -0.0510 C.ar    1  LIG1        0.0918
     33 N          -7.9294    7.1791    0.7268 N.ar    1  LIG1       -0.2304
     34 H          -8.9296    4.2383   -1.5351 H       1  LIG1        0.0638
     35 N          -6.1216    6.0618    1.5718 N.pl3   1  LIG1       -0.3426
     36 H          -5.3942    5.3842    1.3839 H       1  LIG1        0.1437
     37 H          -5.8945    6.9558    1.9795 H       1  LIG1        0.1437
     38 C         -10.4457    6.3613   -1.8830 C.1     1  LIG1       -0.0675
     39 C         -11.3442    6.4310   -2.6935 C.1     1  LIG1       -0.1138
     40 H         -12.1164    6.5189   -3.4220 H       1  LIG1        0.1232
     41 C         -11.1090    8.7592    0.2666 C.ar    1  LIG1        0.1255
     42 C          -9.7126    8.5981    0.0325 C.ar    1  LIG1        0.0423
     43 C          -8.9421    9.7559   -0.0205 C.ar    1  LIG1       -0.0324
     44 C          -9.5263   11.0270    0.1011 C.ar    1  LIG1        0.0435
     45 C         -10.9171   11.0585    0.3005 C.ar    1  LIG1        0.0451
     46 N         -11.6790    9.9745    0.3853 N.ar    1  LIG1       -0.2388
     47 H          -7.8705    9.6631   -0.1560 H       1  LIG1        0.0638
     48 H         -11.4260   12.0158    0.3940 H       1  LIG1        0.0843
     49 N         -11.9610    7.7023    0.4816 N.pl3   1  LIG1       -0.3426
     50 H         -12.9325    7.9816    0.4805 H       1  LIG1        0.1437
     51 H         -11.7714    6.8368   -0.0014 H       1  LIG1        0.1437
     52 C          -8.7596   12.2263    0.0249 C.1     1  LIG1       -0.0681
     53 C          -8.1144   13.2491   -0.0387 C.1     1  LIG1       -0.1139
     54 H          -7.5471   14.1487   -0.0948 H       1  LIG1        0.1232
@<TRIPOS>BOND
     1    40    39    1
     2    14    13    1
     3    39    38    3
     4    13    12    3
     5    38    31    1
     6    12     4    1
     7    34    30    1
     8     7     3    1
     9    31    30   ar
    10    31    32   ar
    11    30    29   ar
    12     4     3   ar
    13     4     5   ar
    14     3     2   ar
    15    27    26    1
    16    26    25    3
    17    47    43    1
    18    25    18    1
    19    21    17    1
    20    54    53    1
    21    18    17   ar
    22    18    19   ar
    23    17    16   ar
    24    32    42    1
    25    32    33   ar
    26    53    52    3
    27    29    19    1
    28    29    28   ar
    29    43    42   ar
    30    43    44   ar
    31    51    49    1
    32    19    20   ar
    33    52    44    1
    34    16     5    1
    35    16    15   ar
    36    42    41   ar
    37     5     6   ar
    38    44    45   ar
    39    23    22    1
    40    20    15   ar
    41    15    22    1
    42    41    46   ar
    43    41    49    1
    44     2     8    1
    45     2     1   ar
    46    45    46   ar
    47    45    48    1
    48    24    22    1
    49    50    49    1
    50    33    28   ar
    51    28    35    1
    52     6     1   ar
    53     1     9    1
    54    36    35    1
    55    35    37    1
    56    11     9    1
    57     9    10    1
