@<TRIPOS>MOLECULE
mol_data/opt/b3lyp/geoms/mol2/6he6he6he.out
 41 43 0 0 0
SMALL
GASTEIGER

@<TRIPOS>ATOM
      1 C          -4.2810   -2.0100   -1.0381 C.ar    1  LIG1        0.1169
      2 C          -2.9902   -2.1539   -0.4914 C.ar    1  LIG1       -0.0209
      3 C          -2.4924   -1.1106    0.2598 C.ar    1  LIG1       -0.0410
      4 C          -3.2402    0.0706    0.4569 C.ar    1  LIG1        0.0508
      5 C          -4.5138    0.1436   -0.1663 C.ar    1  LIG1        0.0917
      6 N          -5.0028   -0.8950   -0.8733 N.ar    1  LIG1       -0.2311
      7 H          -1.5138   -1.1878    0.7224 H       1  LIG1        0.0631
      8 H          -2.4194   -3.0646   -0.6405 H       1  LIG1        0.0652
      9 N          -4.8842   -3.0314   -1.7382 N.pl3   1  LIG1       -0.3431
     10 H          -5.6670   -2.7532   -2.3122 H       1  LIG1        0.1437
     11 H          -4.2876   -3.7377   -2.1414 H       1  LIG1        0.1437
     12 C          -2.6953    1.0804    1.3045 C.1     1  LIG1       -0.0675
     13 C          -2.1755    1.8854    2.0450 C.1     1  LIG1       -0.1138
     14 H          -1.7478    2.6133    2.6948 H       1  LIG1        0.1232
     15 C          -6.8072    1.2657   -0.0032 C.ar    1  LIG1        0.1262
     16 C          -5.3826    1.3454   -0.0895 C.ar    1  LIG1        0.0423
     17 C          -4.8499    2.6283   -0.1126 C.ar    1  LIG1       -0.0317
     18 C          -5.6486    3.7835   -0.0363 C.ar    1  LIG1        0.0515
     19 C          -7.0525    3.5975    0.0609 C.ar    1  LIG1        0.0918
     20 N          -7.5771    2.3605    0.0877 N.ar    1  LIG1       -0.2304
     21 H          -3.7785    2.7602   -0.1893 H       1  LIG1        0.0638
     22 N          -7.4660    0.0692    0.0396 N.pl3   1  LIG1       -0.3426
     23 H          -8.4630    0.1323   -0.1050 H       1  LIG1        0.1437
     24 H          -6.9731   -0.7099   -0.3802 H       1  LIG1        0.1437
     25 C          -4.9917    5.0503   -0.0080 C.1     1  LIG1       -0.0675
     26 C          -4.3656    6.0867    0.0224 C.1     1  LIG1       -0.1138
     27 H          -3.8445    7.0152    0.0533 H       1  LIG1        0.1232
     28 C          -9.2152    4.6611    0.9145 C.ar    1  LIG1        0.1255
     29 C          -8.0190    4.7230    0.1272 C.ar    1  LIG1        0.0423
     30 C          -7.8137    5.8893   -0.6062 C.ar    1  LIG1       -0.0324
     31 C          -8.7177    6.9629   -0.5398 C.ar    1  LIG1        0.0435
     32 C          -9.8291    6.7979    0.3038 C.ar    1  LIG1        0.0451
     33 N         -10.0771    5.6943    0.9984 N.ar    1  LIG1       -0.2388
     34 H          -6.9462    5.9756   -1.2473 H       1  LIG1        0.0638
     35 H         -10.5541    7.6037    0.4015 H       1  LIG1        0.0843
     36 N          -9.5335    3.5700    1.6677 N.pl3   1  LIG1       -0.3426
     37 H         -10.4636    3.5860    2.0586 H       1  LIG1        0.1437
     38 H          -9.1378    2.6889    1.3656 H       1  LIG1        0.1437
     39 C          -8.5276    8.1595   -1.2908 C.1     1  LIG1       -0.0681
     40 C          -8.3729    9.1790   -1.9258 C.1     1  LIG1       -0.1139
     41 H          -8.2373   10.0752   -2.4849 H       1  LIG1        0.1232
@<TRIPOS>BOND
     1    41    40    1
     2    10     9    1
     3    11     9    1
     4    40    39    3
     5     9     1    1
     6    39    31    1
     7    34    30    1
     8     1     6   ar
     9     1     2   ar
    10     6     5   ar
    11     8     2    1
    12    30    31   ar
    13    30    29   ar
    14    31    32   ar
    15     2     3   ar
    16    24    22    1
    17    21    17    1
    18     5    16    1
    19     5     4   ar
    20    17    16   ar
    21    17    18   ar
    22    23    22    1
    23    16    15   ar
    24    18    25    1
    25    18    19   ar
    26    25    26    3
    27    15    22    1
    28    15    20   ar
    29    26    27    1
    30    19    20   ar
    31    19    29    1
    32    29    28   ar
    33     3     4   ar
    34     3     7    1
    35    32    35    1
    36    32    33   ar
    37     4    12    1
    38    28    33   ar
    39    28    36    1
    40    12    13    3
    41    38    36    1
    42    36    37    1
    43    13    14    1
