@<TRIPOS>MOLECULE
mol_data/opt/b3lyp/geoms/mol2/6he6he6he6he.out
 54 57 0 0 0
SMALL
GASTEIGER

@<TRIPOS>ATOM
      1 C          -4.0244   -1.9184   -1.4564 C.ar    1  LIG1        0.1169
      2 C          -2.8939   -2.2143   -0.6686 C.ar    1  LIG1       -0.0209
      3 C          -2.5800   -1.3453    0.3545 C.ar    1  LIG1       -0.0410
      4 C          -3.3513   -0.1868    0.5925 C.ar    1  LIG1        0.0508
      5 C          -4.4477    0.0519   -0.2769 C.ar    1  LIG1        0.0917
      6 N          -4.7630   -0.8204   -1.2552 N.ar    1  LIG1       -0.2311
      7 H          -1.7337   -1.5469    1.0030 H       1  LIG1        0.0631
      8 H          -2.3056   -3.1077   -0.8506 H       1  LIG1        0.0652
      9 N          -4.4517   -2.7696   -2.4508 N.pl3   1  LIG1       -0.3431
     10 H          -5.0812   -2.3595   -3.1255 H       1  LIG1        0.1437
     11 H          -3.7807   -3.4196   -2.8309 H       1  LIG1        0.1437
     12 C          -3.0131    0.6300    1.7121 C.1     1  LIG1       -0.0675
     13 C          -2.6751    1.2658    2.6857 C.1     1  LIG1       -0.1138
     14 H          -2.4047    1.8453    3.5380 H       1  LIG1        0.1232
     15 C          -6.7164    1.2246   -0.4348 C.ar    1  LIG1        0.1262
     16 C          -5.3101    1.2570   -0.1779 C.ar    1  LIG1        0.0423
     17 C          -4.7863    2.4984    0.1594 C.ar    1  LIG1       -0.0317
     18 C          -5.5801    3.6553    0.2644 C.ar    1  LIG1        0.0515
     19 C          -6.9674    3.5161    0.0007 C.ar    1  LIG1        0.0918
     20 N          -7.4852    2.3181   -0.3218 N.ar    1  LIG1       -0.2304
     21 H          -3.7265    2.5958    0.3555 H       1  LIG1        0.0638
     22 N          -7.3674    0.0697   -0.7643 N.pl3   1  LIG1       -0.3426
     23 H          -8.3037    0.1989   -1.1182 H       1  LIG1        0.1437
     24 H          -6.7901   -0.6430   -1.1947 H       1  LIG1        0.1437
     25 C          -4.9476    4.8656    0.6784 C.1     1  LIG1       -0.0675
     26 C          -4.3477    5.8518    1.0450 C.1     1  LIG1       -0.1138
     27 H          -3.8495    6.7361    1.3685 H       1  LIG1        0.1232
     28 C          -9.2741    4.5042    0.4959 C.ar    1  LIG1        0.1262
     29 C          -7.9240    4.6500    0.0464 C.ar    1  LIG1        0.0423
     30 C          -7.5607    5.9260   -0.3666 C.ar    1  LIG1       -0.0317
     31 C          -8.4484    7.0166   -0.3332 C.ar    1  LIG1        0.0515
     32 C          -9.7634    6.7703    0.1404 C.ar    1  LIG1        0.0918
     33 N         -10.1235    5.5416    0.5481 N.ar    1  LIG1       -0.2304
     34 H          -6.5570    6.1042   -0.7294 H       1  LIG1        0.0638
     35 N          -9.7645    3.3104    0.9424 N.pl3   1  LIG1       -0.3426
     36 H         -10.7684    3.2757    1.0395 H       1  LIG1        0.1437
     37 H          -9.2888    2.4893    0.5861 H       1  LIG1        0.1437
     38 C          -7.9520    8.2962   -0.7249 C.1     1  LIG1       -0.0675
     39 C          -7.4598    9.3510   -1.0596 C.1     1  LIG1       -0.1138
     40 H          -7.0559   10.2940   -1.3461 H       1  LIG1        0.1232
     41 C         -11.7868    7.8628    1.2584 C.ar    1  LIG1        0.1255
     42 C         -10.8133    7.8187    0.2073 C.ar    1  LIG1        0.0423
     43 C         -10.9146    8.7967   -0.7791 C.ar    1  LIG1       -0.0324
     44 C         -11.8990    9.7976   -0.7174 C.ar    1  LIG1        0.0435
     45 C         -12.7659    9.7599    0.3876 C.ar    1  LIG1        0.0451
     46 N         -12.7219    8.8311    1.3349 N.ar    1  LIG1       -0.2388
     47 H         -10.2291    8.7892   -1.6166 H       1  LIG1        0.0638
     48 H         -13.5388   10.5191    0.4906 H       1  LIG1        0.0843
     49 N         -11.7990    6.9540    2.2748 N.pl3   1  LIG1       -0.3426
     50 H         -12.6131    6.9990    2.8692 H       1  LIG1        0.1437
     51 H         -11.3825    6.0541    2.0717 H       1  LIG1        0.1437
     52 C         -12.0224   10.8004   -1.7229 C.1     1  LIG1       -0.0681
     53 C         -12.1335   11.6556   -2.5732 C.1     1  LIG1       -0.1139
     54 H         -12.2316   12.4070   -3.3214 H       1  LIG1        0.1232
@<TRIPOS>BOND
     1    54    53    1
     2    10     9    1
     3    11     9    1
     4    53    52    3
     5     9     1    1
     6    52    44    1
     7    47    43    1
     8     1     6   ar
     9     1     2   ar
    10    40    39    1
    11     6     5   ar
    12    24    22    1
    13    23    22    1
    14    39    38    3
    15     8     2    1
    16    43    44   ar
    17    43    42   ar
    18    22    15    1
    19    34    30    1
    20    38    31    1
    21    44    45   ar
    22     2     3   ar
    23    15    20   ar
    24    15    16   ar
    25    30    31   ar
    26    30    29   ar
    27    31    32   ar
    28    20    19   ar
    29     5    16    1
    30     5     4   ar
    31    16    17   ar
    32    19    29    1
    33    19    18   ar
    34    29    28   ar
    35    32    42    1
    36    32    33   ar
    37    17    18   ar
    38    17    21    1
    39    42    41   ar
    40    18    25    1
    41     3     4   ar
    42     3     7    1
    43    45    48    1
    44    45    46   ar
    45    28    33   ar
    46    28    35    1
    47    37    35    1
    48     4    12    1
    49    25    26    3
    50    35    36    1
    51    26    27    1
    52    41    46   ar
    53    41    49    1
    54    12    13    3
    55    51    49    1
    56    49    50    1
    57    13    14    1
