@<TRIPOS>MOLECULE
mol_data/opt/b3lyp/geoms/mol2/6he6he-4he6he.out
 55 58 0 0 0
SMALL
GASTEIGER

@<TRIPOS>ATOM
      1 C          -4.6809   -2.2581   -0.2409 C.ar    1  LIG1        0.1169
      2 C          -3.2851   -2.4729   -0.2119 C.ar    1  LIG1       -0.0209
      3 C          -2.4672   -1.3699   -0.1020 C.ar    1  LIG1       -0.0410
      4 C          -3.0148   -0.0691   -0.0379 C.ar    1  LIG1        0.0508
      5 C          -4.4246    0.0471   -0.1229 C.ar    1  LIG1        0.0917
      6 N          -5.2184   -1.0313   -0.2064 N.ar    1  LIG1       -0.2311
      7 H          -1.3897   -1.4880   -0.0481 H       1  LIG1        0.0631
      8 H          -2.8743   -3.4766   -0.2546 H       1  LIG1        0.0652
      9 N          -5.5676   -3.3051   -0.2711 N.pl3   1  LIG1       -0.3431
     10 H          -6.5203   -3.0579   -0.4956 H       1  LIG1        0.1437
     11 H          -5.2481   -4.2020   -0.6012 H       1  LIG1        0.1437
     12 C          -2.1466    1.0440    0.1583 C.1     1  LIG1       -0.0675
     13 C          -1.3790    1.9699    0.3093 C.1     1  LIG1       -0.1138
     14 H          -0.7181    2.7880    0.4801 H       1  LIG1        0.1232
     15 C          -4.9209    2.4574   -0.9256 C.ar    1  LIG1        0.1262
     16 C          -5.1577    1.3435   -0.0736 C.ar    1  LIG1        0.0423
     17 C          -6.2313    1.4575    0.8001 C.ar    1  LIG1       -0.0317
     18 C          -7.0344    2.6087    0.8656 C.ar    1  LIG1        0.0514
     19 C          -6.7323    3.6590   -0.0399 C.ar    1  LIG1        0.0902
     20 N          -5.6873    3.5584   -0.8792 N.ar    1  LIG1       -0.2305
     21 H          -6.4554    0.6260    1.4586 H       1  LIG1        0.0638
     22 N          -3.9667    2.4504   -1.9172 N.pl3   1  LIG1       -0.3426
     23 H          -3.0967    1.9746   -1.7261 H       1  LIG1        0.1437
     24 H          -3.8611    3.3469   -2.3715 H       1  LIG1        0.1437
     25 C          -8.0549    2.6675    1.8616 C.1     1  LIG1       -0.0675
     26 C          -8.8917    2.6542    2.7367 C.1     1  LIG1       -0.1138
     27 H          -9.6353    2.6744    3.4992 H       1  LIG1        0.1232
     28 C          -6.9245    6.1838   -0.3379 C.ar    1  LIG1        0.0345
     29 C          -7.7490    7.3238   -0.3861 C.ar    1  LIG1       -0.0314
     30 C          -7.5309    4.9113   -0.1240 C.ar    1  LIG1        0.0234
     31 C          -9.1347    7.2641   -0.2714 C.ar    1  LIG1        0.0026
     32 H          -7.2821    8.2920   -0.5465 H       1  LIG1        0.0643
     33 C          -8.9224    4.8576   -0.0216 C.ar    1  LIG1       -0.0348
     34 C          -9.7438    5.9941   -0.0903 C.ar    1  LIG1        0.0332
     35 H          -9.4017    3.8974    0.1191 H       1  LIG1        0.0637
     36 N          -5.5584    6.3273   -0.4435 N.pl3   1  LIG1       -0.3574
     37 H          -5.0845    5.5043   -0.7978 H       1  LIG1        0.1423
     38 H          -5.2371    7.2092   -0.8148 H       1  LIG1        0.1423
     39 C         -11.1571    5.8401    0.0496 C.1     1  LIG1       -0.0690
     40 C         -12.3548    5.6864    0.1516 C.1     1  LIG1       -0.1139
     41 H         -13.4069    5.5640    0.2634 H       1  LIG1        0.1232
     42 C         -10.8594    8.8302   -1.3432 C.ar    1  LIG1        0.1240
     43 C          -9.9104    8.5357   -0.3214 C.ar    1  LIG1        0.0240
     44 C          -9.6669    9.5291    0.6191 C.ar    1  LIG1       -0.0338
     45 C         -10.3433   10.7630    0.5669 C.ar    1  LIG1        0.0435
     46 C         -11.2613   10.9291   -0.4819 C.ar    1  LIG1        0.0451
     47 N         -11.5138   10.0033   -1.4028 N.ar    1  LIG1       -0.2389
     48 H          -8.9495    9.3448    1.4124 H       1  LIG1        0.0637
     49 H         -11.8166   11.8608   -0.5684 H       1  LIG1        0.0843
     50 N         -11.1104    7.9611   -2.3789 N.pl3   1  LIG1       -0.3427
     51 H         -11.9311    8.2106   -2.9134 H       1  LIG1        0.1437
     52 H         -11.0125    6.9746   -2.1895 H       1  LIG1        0.1437
     53 C         -10.1163   11.7917    1.5268 C.1     1  LIG1       -0.0681
     54 C          -9.9247   12.6691    2.3393 C.1     1  LIG1       -0.1139
     55 H          -9.7590   13.4399    3.0552 H       1  LIG1        0.1232
@<TRIPOS>BOND
     1    51    50    1
     2    50    52    1
     3    50    42    1
     4    24    22    1
     5    22    23    1
     6    22    15    1
     7    47    42   ar
     8    47    46   ar
     9    42    43   ar
    10    15    20   ar
    11    15    16   ar
    12    20    19   ar
    13    38    36    1
    14    37    36    1
    15    11     9    1
    16    49    46    1
    17    32    29    1
    18    10     9    1
    19    46    45   ar
    20    36    28    1
    21    29    28   ar
    22    29    31   ar
    23    28    30   ar
    24    43    31    1
    25    43    44   ar
    26    31    34   ar
    27     9     1    1
    28     8     2    1
    29     1     2   ar
    30     1     6   ar
    31     2     3   ar
    32     6     5   ar
    33    30    19    1
    34    30    33   ar
    35     5    16    1
    36     5     4   ar
    37     3     7    1
    38     3     4   ar
    39    34    33   ar
    40    34    39    1
    41    16    17   ar
    42    19    18   ar
    43     4    12    1
    44    33    35    1
    45    39    40    3
    46    40    41    1
    47    12    13    3
    48    13    14    1
    49    45    44   ar
    50    45    53    1
    51    44    48    1
    52    17    18   ar
    53    17    21    1
    54    18    25    1
    55    53    54    3
    56    25    26    3
    57    54    55    1
    58    26    27    1
