@<TRIPOS>MOLECULE
mol_data/opt/b3lyp/geoms/mol2/6hf12al-12ad-4eh.out
 47 50 0 0 0
SMALL
GASTEIGER

@<TRIPOS>ATOM
      1 C          -4.0446   -2.0296    0.9493 C.ar    1  LIG1        0.1172
      2 C          -2.6800   -1.9941    0.5847 C.ar    1  LIG1       -0.0186
      3 C          -2.1833   -0.8431   -0.0008 C.ar    1  LIG1       -0.0147
      4 C          -3.0245    0.2584   -0.1854 C.ar    1  LIG1        0.1459
      5 C          -4.3589    0.1504    0.2463 C.ar    1  LIG1        0.1494
      6 N          -4.8536   -0.9855    0.7765 N.ar    1  LIG1       -0.2257
      7 H          -1.1510   -0.7729   -0.3277 H       1  LIG1        0.0656
      8 H          -2.0389   -2.8531    0.7561 H       1  LIG1        0.0653
      9 N          -4.5934   -3.1453    1.5677 N.pl3   1  LIG1       -0.3431
     10 H          -5.6045   -3.1347    1.5786 H       1  LIG1        0.1437
     11 H          -4.1970   -4.0390    1.3150 H       1  LIG1        0.1437
     12 O          -2.5034    1.3784   -0.7810 O.3     1  LIG1       -0.5045
     13 H          -3.2337    1.8894   -1.1621 H       1  LIG1        0.2922
     14 C          -5.2807    1.2763    0.1139 C.ar    1  LIG1        0.1612
     15 C          -5.0899    2.6455    0.0935 C.ar    1  LIG1        0.0284
     16 C          -6.3859    3.2242   -0.0217 C.ar    1  LIG1        0.1694
     17 C          -7.2880    2.1789   -0.0725 C.ar    1  LIG1        0.2120
     18 O          -6.6073    0.9946    0.0090 O.2     1  LIG1       -0.4462
     19 H          -4.1524    3.1595    0.2416 H       1  LIG1        0.0693
     20 O          -6.7615    4.5239   -0.0762 O.3     1  LIG1       -0.4912
     21 C          -5.7209    5.4893    0.0395 C.3     1  LIG1        0.0790
     22 H          -6.2034    6.4649   -0.0218 H       1  LIG1        0.0660
     23 H          -5.2010    5.4000    1.0009 H       1  LIG1        0.0660
     24 H          -4.9950    5.3914   -0.7772 H       1  LIG1        0.0660
     25 C          -8.7131    2.1642   -0.2004 C.ar    1  LIG1        0.1755
     26 C          -9.6353    3.1678   -0.3367 C.ar    1  LIG1        0.0054
     27 C         -10.9144    2.5250   -0.4059 C.ar    1  LIG1        0.0981
     28 C         -10.6929    1.1617   -0.2987 C.ar    1  LIG1        0.1543
     29 O          -9.3470    0.9506   -0.1825 O.2     1  LIG1       -0.4502
     30 H          -9.4339    4.2255   -0.3928 H       1  LIG1        0.0670
     31 N         -13.0986    3.8060   -0.9167 N.1     1  LIG1       -0.1907
     32 C         -12.1370    3.1996   -0.6678 C.1     1  LIG1        0.1030
     33 C         -12.7869   -0.1391    0.2677 C.ar    1  LIG1        0.0355
     34 C         -13.5103   -1.3377    0.1114 C.ar    1  LIG1       -0.0439
     35 C         -11.5212   -0.0406   -0.3686 C.ar    1  LIG1        0.0356
     36 C         -13.0122   -2.4063   -0.6150 C.ar    1  LIG1       -0.0399
     37 H         -14.4795   -1.4188    0.5918 H       1  LIG1        0.0630
     38 C         -11.0167   -1.1355   -1.0835 C.ar    1  LIG1       -0.0292
     39 C         -11.7432   -2.3250   -1.2187 C.ar    1  LIG1        0.0253
     40 H         -10.0405   -1.0490   -1.5501 H       1  LIG1        0.0643
     41 H         -13.5966   -3.3177   -0.7088 H       1  LIG1        0.0636
     42 C         -13.3209    0.8830    1.1054 C.1     1  LIG1       -0.0690
     43 C         -13.8080    1.7060    1.8475 C.1     1  LIG1       -0.1139
     44 H         -14.2288    2.4659    2.4639 H       1  LIG1        0.1232
     45 N         -11.2058   -3.4150   -1.8944 N.pl3   1  LIG1       -0.3579
     46 H         -11.8751   -4.0760   -2.2626 H       1  LIG1        0.1423
     47 H         -10.4699   -3.2031   -2.5533 H       1  LIG1        0.1423
@<TRIPOS>BOND
     1    47    45    1
     2    46    45    1
     3    45    39    1
     4    40    38    1
     5    39    38   ar
     6    39    36   ar
     7    13    12    1
     8    38    35   ar
     9    31    32    3
    10    12     4    1
    11    24    21    1
    12    41    36    1
    13    32    27    1
    14    36    34   ar
    15    27    26   ar
    16    27    28   ar
    17    30    26    1
    18    35    28    1
    19    35    33   ar
    20    26    25   ar
    21     7     3    1
    22    28    29   ar
    23    25    29   ar
    24    25    17    1
    25     4     3   ar
    26     4     5   ar
    27    20    16    1
    28    20    21    1
    29    17    16   ar
    30    17    18   ar
    31    22    21    1
    32    16    15   ar
    33     3     2   ar
    34    18    14   ar
    35    21    23    1
    36    15    14   ar
    37    15    19    1
    38    34    33   ar
    39    34    37    1
    40    14     5    1
    41     5     6   ar
    42    33    42    1
    43     2     8    1
    44     2     1   ar
    45     6     1   ar
    46     1     9    1
    47    42    43    3
    48    11     9    1
    49     9    10    1
    50    43    44    1
