@<TRIPOS>MOLECULE
mol_data/opt/b3lyp/geoms/mol2/6hf12ie-13hh6li-12hh-12ia-4fa-13ea-.out
 96 103 0 0 0
SMALL
GASTEIGER

@<TRIPOS>ATOM
      1 C          -3.9532   -1.0469   -1.3680 C.ar    1  LIG1        0.1172
      2 C          -2.8444   -0.7795   -2.1993 C.ar    1  LIG1       -0.0186
      3 C          -2.5870    0.5321   -2.5562 C.ar    1  LIG1       -0.0147
      4 C          -3.4055    1.5545   -2.0636 C.ar    1  LIG1        0.1459
      5 C          -4.4557    1.2041   -1.1982 C.ar    1  LIG1        0.1495
      6 N          -4.7326   -0.0793   -0.8876 N.ar    1  LIG1       -0.2257
      7 H          -1.7696    0.7889   -3.2221 H       1  LIG1        0.0656
      8 H          -2.2128   -1.5875   -2.5554 H       1  LIG1        0.0653
      9 N          -4.2456   -2.3469   -0.9592 N.pl3   1  LIG1       -0.3431
     10 H          -5.1685   -2.4241   -0.5523 H       1  LIG1        0.1437
     11 H          -4.0453   -3.0729   -1.6332 H       1  LIG1        0.1437
     12 O          -3.1518    2.8357   -2.4710 O.3     1  LIG1       -0.5045
     13 H          -3.9058    3.3872   -2.2106 H       1  LIG1        0.2922
     14 C          -5.3399    2.2312   -0.6344 C.ar    1  LIG1        0.1616
     15 C          -5.1286    3.4441   -0.0280 C.ar    1  LIG1        0.0130
     16 C          -6.4353    3.9434    0.3440 C.ar    1  LIG1        0.0754
     17 C          -7.3562    2.9883   -0.0696 C.ar    1  LIG1        0.1692
     18 O          -6.6889    1.9528   -0.6573 O.2     1  LIG1       -0.4501
     19 C          -3.8301    4.1071    0.3236 C.3     1  LIG1       -0.0349
     20 H          -3.8238    4.3718    1.3858 H       1  LIG1        0.0279
     21 H          -3.6832    5.0407   -0.2324 H       1  LIG1        0.0279
     22 H          -2.9775    3.4562    0.1248 H       1  LIG1        0.0279
     23 C          -6.6562    5.1262    1.0890 C.1     1  LIG1       -0.0655
     24 C          -6.7734    6.1433    1.7401 C.1     1  LIG1       -0.1138
     25 H          -6.8790    7.0250    2.3287 H       1  LIG1        0.1232
     26 C          -8.7800    2.8416   -0.0077 C.ar    1  LIG1        0.1065
     27 C          -9.8345    3.7581    0.1495 C.ar    1  LIG1        0.0749
     28 C         -11.0409    3.0238    0.0938 C.ar    1  LIG1        0.0720
     29 C         -10.7198    1.6657   -0.0997 C.ar    1  LIG1        0.0749
     30 N          -9.3447    1.6031   -0.1711 N.ar    1  LIG1       -0.3486
     31 H          -8.8417    0.7420   -0.3272 H       1  LIG1        0.1661
     32 N          -9.8263    5.1761    0.2810 N.pl3   1  LIG1       -0.3548
     33 H          -9.1365    5.4831    0.9612 H       1  LIG1        0.1424
     34 H          -9.5794    5.6235   -0.5996 H       1  LIG1        0.1424
     35 N         -12.3076    3.6100    0.2540 N.pl3   1  LIG1       -0.3549
     36 H         -12.1816    4.6153    0.3517 H       1  LIG1        0.1424
     37 H         -12.9354    3.4200   -0.5214 H       1  LIG1        0.1424
     38 C         -11.1163   -0.8064   -0.5432 C.ar    1  LIG1        0.2245
     39 C         -11.5733    0.4931   -0.1775 C.ar    1  LIG1        0.0619
     40 C         -12.9383    0.5529    0.1425 C.ar    1  LIG1       -0.0424
     41 C         -13.7838   -0.5587    0.0664 C.ar    1  LIG1       -0.0205
     42 C         -13.2114   -1.7643   -0.3847 C.ar    1  LIG1        0.1146
     43 N         -11.8878   -1.8625   -0.6539 N.ar    1  LIG1       -0.2089
     44 H         -13.3382    1.4901    0.5143 H       1  LIG1        0.0629
     45 O          -9.7813   -0.9570   -0.8030 O.3     1  LIG1       -0.4792
     46 C          -9.3332   -2.2660   -1.1679 C.3     1  LIG1        0.0804
     47 H          -8.2562   -2.1673   -1.3149 H       1  LIG1        0.0660
     48 H          -9.5525   -2.9897   -0.3787 H       1  LIG1        0.0660
     49 H          -9.8162   -2.6026   -2.0889 H       1  LIG1        0.0660
     50 C         -15.2155   -0.4551    0.5299 C.3     1  LIG1       -0.0376
     51 H         -15.4279   -1.2034    1.3014 H       1  LIG1        0.0278
     52 H         -15.9286   -0.6396   -0.2800 H       1  LIG1        0.0278
     53 H         -15.4097    0.5335    0.9543 H       1  LIG1        0.0278
     54 C         -13.9800   -2.9975   -0.5634 C.ar    1  LIG1        0.1767
     55 C         -15.1637   -3.2969   -1.2070 C.ar    1  LIG1        0.0943
     56 C         -15.3255   -4.7184   -1.1304 C.ar    1  LIG1        0.0958
     57 C         -14.2416   -5.1977   -0.4281 C.ar    1  LIG1        0.1933
     58 O         -13.4087   -4.1573   -0.1018 O.2     1  LIG1       -0.4463
     59 N         -16.0479   -2.4175   -1.8512 N.pl3   1  LIG1       -0.3535
     60 H         -15.6160   -1.8262   -2.5510 H       1  LIG1        0.1425
     61 H         -16.8682   -2.8808   -2.2199 H       1  LIG1        0.1425
     62 N         -16.4056   -5.4197   -1.7004 N.pl3   1  LIG1       -0.3535
     63 H         -16.5256   -5.1749   -2.6808 H       1  LIG1        0.1425
     64 H         -16.2675   -6.4229   -1.6433 H       1  LIG1        0.1425
     65 C         -13.8815   -6.5230    0.0022 C.ar    1  LIG1        0.1754
     66 C         -14.6148   -7.5931    0.4722 C.ar    1  LIG1       -0.0010
     67 C         -13.6734   -8.6439    0.6914 C.ar    1  LIG1       -0.0121
     68 C         -12.4285   -8.1576    0.3725 C.ar    1  LIG1        0.1396
     69 O         -12.5518   -6.8606   -0.0586 O.2     1  LIG1       -0.4513
     70 C         -16.0822   -7.6407    0.7841 C.3     1  LIG1       -0.0360
     71 H         -16.2478   -8.0588    1.7828 H       1  LIG1        0.0279
     72 H         -16.6350   -8.2776    0.0816 H       1  LIG1        0.0279
     73 H         -16.5321   -6.6454    0.7596 H       1  LIG1        0.0279
     74 H         -13.8815   -9.6312    1.0702 H       1  LIG1        0.0658
     75 C         -10.7972  -10.0263    0.7797 C.ar    1  LIG1        0.1281
     76 C          -9.4901  -10.5018    0.8242 C.ar    1  LIG1       -0.0103
     77 C         -11.0776   -8.6887    0.4154 C.ar    1  LIG1        0.0587
     78 C          -8.4018   -9.6773    0.4981 C.ar    1  LIG1        0.0030
     79 H          -9.3103  -11.5305    1.1213 H       1  LIG1        0.0661
     80 C          -9.9779   -7.8744    0.0859 C.ar    1  LIG1       -0.0469
     81 C          -8.6749   -8.3484    0.1202 C.ar    1  LIG1       -0.0517
     82 H         -10.1715   -6.8498   -0.2099 H       1  LIG1        0.0626
     83 O         -11.8499  -10.8382    1.1025 O.3     1  LIG1       -0.5060
     84 H         -11.5087  -11.7169    1.3154 H       1  LIG1        0.2922
     85 H          -7.8680   -7.6898   -0.1870 H       1  LIG1        0.0624
     86 C          -7.0319  -10.1783    0.5698 C.ar    1  LIG1        0.0622
     87 C          -6.4891  -11.4686    0.4589 C.ar    1  LIG1        0.0499
     88 C          -5.0687  -11.3488    0.6021 C.ar    1  LIG1       -0.0284
     89 C          -4.7825  -10.0208    0.7978 C.ar    1  LIG1        0.0034
     90 N          -5.9677   -9.3262    0.7645 N.ar    1  LIG1       -0.3597
     91 H          -6.0709   -8.3479    0.9812 H       1  LIG1        0.1654
     92 H          -3.8426   -9.5158    0.9615 H       1  LIG1        0.0807
     93 C          -7.1830  -12.6796    0.2067 C.1     1  LIG1       -0.0675
     94 C          -7.7400  -13.7358   -0.0016 C.1     1  LIG1       -0.1138
     95 H          -8.2238  -14.6621   -0.2064 H       1  LIG1        0.1232
     96 H          -4.3605  -12.1624    0.5546 H       1  LIG1        0.0645
@<TRIPOS>BOND
     1     7     3    1
     2    63    62    1
     3     3     2   ar
     4     3     4   ar
     5     8     2    1
     6    60    59    1
     7    12    13    1
     8    12     4    1
     9    61    59    1
    10     2     1   ar
    11    49    46    1
    12     4     5   ar
    13    59    55    1
    14    62    64    1
    15    62    56    1
    16    11     9    1
    17     1     9    1
    18     1     6   ar
    19    47    46    1
    20    55    56   ar
    21    55    54   ar
    22     5     6   ar
    23     5    14    1
    24    46    45    1
    25    46    48    1
    26    56    57   ar
    27     9    10    1
    28    45    38    1
    29    18    14   ar
    30    18    17   ar
    31    43    38   ar
    32    43    42   ar
    33    14    15   ar
    34    34    32    1
    35    54    42    1
    36    54    58   ar
    37    38    39   ar
    38    37    35    1
    39    57    58   ar
    40    57    65    1
    41    42    41   ar
    42    31    30    1
    43    52    50    1
    44    21    19    1
    45    82    80    1
    46    95    94    1
    47    85    81    1
    48    39    29    1
    49    39    40   ar
    50    30    29   ar
    51    30    26   ar
    52    29    28   ar
    53    17    26    1
    54    17    16   ar
    55    69    65   ar
    56    69    68   ar
    57    15    19    1
    58    15    16   ar
    59    26    27   ar
    60    94    93    3
    61    65    66   ar
    62    41    40   ar
    63    41    50    1
    64    72    70    1
    65    80    81   ar
    66    80    77   ar
    67    28    27   ar
    68    28    35    1
    69    81    78   ar
    70    22    19    1
    71    40    44    1
    72    27    32    1
    73    93    87    1
    74    35    36    1
    75    32    33    1
    76    19    20    1
    77    16    23    1
    78    68    77    1
    79    68    67   ar
    80    77    75   ar
    81    87    86   ar
    82    87    88   ar
    83    66    67   ar
    84    66    70    1
    85    78    86    1
    86    78    76   ar
    87    50    53    1
    88    50    51    1
    89    96    88    1
    90    86    90   ar
    91    88    89   ar
    92    67    74    1
    93    73    70    1
    94    90    89   ar
    95    90    91    1
    96    75    76   ar
    97    75    83    1
    98    70    71    1
    99    89    92    1
   100    76    79    1
   101    23    24    3
   102    83    84    1
   103    24    25    1
