@<TRIPOS>MOLECULE
mol_data/opt/b3lyp/geoms/mol2/6hf12ei13ea-13ef-.out
 47 50 0 0 0
SMALL
GASTEIGER

@<TRIPOS>ATOM
      1 C          -4.7354   -1.9763   -1.0131 C.ar    1  LIG1        0.1172
      2 C          -3.4456   -2.2772   -0.5230 C.ar    1  LIG1       -0.0186
      3 C          -2.7521   -1.2823    0.1349 C.ar    1  LIG1       -0.0147
      4 C          -3.3214   -0.0115    0.3179 C.ar    1  LIG1        0.1459
      5 C          -4.6133    0.2016   -0.2076 C.ar    1  LIG1        0.1505
      6 N          -5.2848   -0.7773   -0.8609 N.ar    1  LIG1       -0.2256
      7 H          -1.7608   -1.4562    0.5406 H       1  LIG1        0.0656
      8 H          -3.0162   -3.2657   -0.6546 H       1  LIG1        0.0653
      9 N          -5.5131   -2.9498   -1.6362 N.pl3   1  LIG1       -0.3431
     10 H          -6.2854   -2.5535   -2.1559 H       1  LIG1        0.1437
     11 H          -5.0023   -3.6473   -2.1596 H       1  LIG1        0.1437
     12 O          -2.5899    0.8669    1.0552 O.3     1  LIG1       -0.5045
     13 H          -2.8267    1.7909    0.8674 H       1  LIG1        0.2922
     14 C          -5.3659    1.4497   -0.0629 C.ar    1  LIG1        0.1731
     15 C          -5.0667    2.7975    0.0732 C.ar    1  LIG1        0.0756
     16 C          -6.3143    3.5175    0.1820 C.ar    1  LIG1        0.0129
     17 C          -7.2961    2.5630    0.0689 C.ar    1  LIG1        0.1571
     18 O          -6.7190    1.3179   -0.0726 O.2     1  LIG1       -0.4501
     19 C          -3.7866    3.4031    0.0636 C.1     1  LIG1       -0.0655
     20 C          -2.6960    3.9345    0.0664 C.1     1  LIG1       -0.1138
     21 H          -1.7370    4.3988    0.0394 H       1  LIG1        0.1232
     22 C          -6.4289    4.9931    0.4027 C.3     1  LIG1       -0.0349
     23 H          -7.3551    5.2491    0.9170 H       1  LIG1        0.0279
     24 H          -6.4214    5.5453   -0.5437 H       1  LIG1        0.0279
     25 H          -5.5829    5.3490    0.9980 H       1  LIG1        0.0279
     26 C          -8.7376    2.5106    0.1036 C.ar    1  LIG1        0.0984
     27 C          -9.7746    3.4417   -0.0834 C.ar    1  LIG1        0.0536
     28 C         -11.0048    2.7299    0.0394 C.ar    1  LIG1       -0.0188
     29 C         -10.7125    1.3987    0.2804 C.ar    1  LIG1        0.0659
     30 N          -9.3361    1.2894    0.3299 N.ar    1  LIG1       -0.3496
     31 H          -8.8099    0.4284    0.3043 H       1  LIG1        0.1661
     32 C          -9.6820    4.8223   -0.3942 C.1     1  LIG1       -0.0674
     33 C          -9.6730    6.0001   -0.6769 C.1     1  LIG1       -0.1138
     34 H          -9.6531    7.0340   -0.9316 H       1  LIG1        0.1232
     35 H         -11.9931    3.1548   -0.0372 H       1  LIG1        0.0652
     36 C         -11.5737    0.2607    0.4950 C.ar    1  LIG1        0.0821
     37 C         -12.9029    0.0388    0.1091 C.ar    1  LIG1        0.0927
     38 C         -13.2550   -1.2651    0.5902 C.ar    1  LIG1        0.1500
     39 C         -12.1658   -1.7978    1.2403 C.ar    1  LIG1        0.0454
     40 N         -11.1400   -0.8677    1.1505 N.ar    1  LIG1       -0.3555
     41 H         -10.3152   -0.8930    1.7288 H       1  LIG1        0.1655
     42 H         -12.0276   -2.7469    1.7348 H       1  LIG1        0.0845
     43 C         -13.7334    0.9032   -0.6421 C.1     1  LIG1       -0.0638
     44 C         -14.4542    1.6403   -1.2779 C.1     1  LIG1       -0.1137
     45 H         -15.0899    2.2776   -1.8468 H       1  LIG1        0.1232
     46 O         -14.4826   -1.8109    0.3723 O.3     1  LIG1       -0.5040
     47 H         -14.5084   -2.6929    0.7641 H       1  LIG1        0.2923
@<TRIPOS>BOND
     1    11     9    1
     2    10     9    1
     3    45    44    1
     4     9     1    1
     5    44    43    3
     6     1     6   ar
     7     1     2   ar
     8    34    33    1
     9     6     5   ar
    10    33    32    3
    11     8     2    1
    12    43    37    1
    13    24    22    1
    14     2     3   ar
    15    32    27    1
    16     5    14    1
    17     5     4   ar
    18    27    28   ar
    19    27    26   ar
    20    18    14   ar
    21    18    17   ar
    22    14    15   ar
    23    35    28    1
    24    28    29   ar
    25    21    20    1
    26    19    20    3
    27    19    15    1
    28    17    26    1
    29    17    16   ar
    30    15    16   ar
    31    26    30   ar
    32    37    36   ar
    33    37    38   ar
    34     3     4   ar
    35     3     7    1
    36    16    22    1
    37    29    30   ar
    38    29    36    1
    39    31    30    1
    40     4    12    1
    41    46    38    1
    42    46    47    1
    43    22    23    1
    44    22    25    1
    45    36    40   ar
    46    38    39   ar
    47    13    12    1
    48    40    39   ar
    49    40    41    1
    50    39    42    1
