@<TRIPOS>MOLECULE
mol_data/opt/b3lyp/geoms/mol2/6hf4dl-12li4fi.out
 57 60 0 0 0
SMALL
GASTEIGER

@<TRIPOS>ATOM
      1 C          -4.3619   -2.2861    0.5543 C.ar    1  LIG1        0.1170
      2 C          -3.0642   -2.4229    0.0189 C.ar    1  LIG1       -0.0186
      3 C          -2.4633   -1.2985   -0.5146 C.ar    1  LIG1       -0.0148
      4 C          -3.1231   -0.0621   -0.4954 C.ar    1  LIG1        0.1429
      5 C          -4.4082   -0.0128    0.0740 C.ar    1  LIG1        0.1157
      6 N          -5.0067   -1.1185    0.5647 N.ar    1  LIG1       -0.2287
      7 H          -1.4775   -1.3461   -0.9664 H       1  LIG1        0.0656
      8 H          -2.5580   -3.3835    0.0248 H       1  LIG1        0.0653
      9 N          -5.0148   -3.3589    1.1423 N.pl3   1  LIG1       -0.3431
     10 H          -6.0039   -3.2024    1.2792 H       1  LIG1        0.1437
     11 H          -4.7850   -4.2770    0.7912 H       1  LIG1        0.1437
     12 O          -2.5377    1.0077   -1.1367 O.3     1  LIG1       -0.5046
     13 H          -2.1421    1.6053   -0.4809 H       1  LIG1        0.2922
     14 C          -4.8119    2.4992    0.4915 C.ar    1  LIG1        0.0619
     15 C          -5.6877    3.5914    0.5115 C.ar    1  LIG1       -0.0294
     16 C          -5.2568    1.2111    0.1089 C.ar    1  LIG1        0.0248
     17 C          -7.0384    3.4718    0.1435 C.ar    1  LIG1        0.0638
     18 H          -5.3192    4.5541    0.8420 H       1  LIG1        0.0639
     19 C          -6.6099    1.0915   -0.2199 C.ar    1  LIG1       -0.0087
     20 C          -7.4857    2.1739   -0.2193 C.ar    1  LIG1        0.1315
     21 H          -7.0043    0.1164   -0.4796 H       1  LIG1        0.0661
     22 N          -2.3678    2.8918    1.2733 N.1     1  LIG1       -0.1908
     23 C          -3.4701    2.7201    0.9356 C.1     1  LIG1        0.0998
     24 O          -8.7976    1.9183   -0.5350 O.3     1  LIG1       -0.4944
     25 C          -9.1539    2.1587   -1.8982 C.3     1  LIG1        0.0788
     26 H         -10.2074    1.8896   -1.9911 H       1  LIG1        0.0660
     27 H          -9.0297    3.2131   -2.1662 H       1  LIG1        0.0660
     28 H          -8.5558    1.5350   -2.5748 H       1  LIG1        0.0660
     29 C          -7.8875    4.6534    0.1862 C.ar    1  LIG1        0.1809
     30 C          -7.6212    5.9943    0.3841 C.ar    1  LIG1        0.1692
     31 C          -8.8580    6.7135    0.3643 C.ar    1  LIG1        0.0378
     32 C          -9.8237    5.7607    0.1300 C.ar    1  LIG1        0.1457
     33 O          -9.2410    4.5213    0.0308 O.2     1  LIG1       -0.4505
     34 O          -6.3931    6.5458    0.6351 O.3     1  LIG1       -0.4910
     35 C          -5.8314    7.2703   -0.4671 C.3     1  LIG1        0.0790
     36 H          -4.8744    7.6640   -0.1204 H       1  LIG1        0.0660
     37 H          -5.6680    6.6102   -1.3270 H       1  LIG1        0.0660
     38 H          -6.4786    8.1009   -0.7700 H       1  LIG1        0.0660
     39 C          -8.9988    8.1738    0.6674 C.3     1  LIG1       -0.0326
     40 H          -9.9205    8.3768    1.2173 H       1  LIG1        0.0280
     41 H          -9.0281    8.7831   -0.2415 H       1  LIG1        0.0280
     42 H          -8.1524    8.5028    1.2775 H       1  LIG1        0.0280
     43 C         -12.0222    6.8032   -0.5314 C.ar    1  LIG1        0.1275
     44 C         -13.4176    6.7442   -0.5572 C.ar    1  LIG1       -0.0192
     45 C         -11.2840    5.7555    0.0556 C.ar    1  LIG1        0.0593
     46 C         -14.0910    5.6439   -0.0343 C.ar    1  LIG1       -0.0554
     47 H         -13.9774    7.5637   -1.0038 H       1  LIG1        0.0654
     48 C         -11.9950    4.6499    0.5584 C.ar    1  LIG1       -0.0446
     49 C         -13.3875    4.5685    0.5234 C.ar    1  LIG1       -0.0496
     50 H         -11.4214    3.8359    0.9905 H       1  LIG1        0.0628
     51 H         -15.1772    5.6222   -0.0656 H       1  LIG1        0.0621
     52 O         -11.3386    7.8497   -1.0906 O.3     1  LIG1       -0.5061
     53 H         -11.9761    8.4709   -1.4661 H       1  LIG1        0.2922
     54 C         -14.1120    3.3538    1.0555 C.3     1  LIG1       -0.0397
     55 H         -13.5028    2.8144    1.7861 H       1  LIG1        0.0278
     56 H         -14.3567    2.6490    0.2510 H       1  LIG1        0.0278
     57 H         -15.0537    3.6299    1.5405 H       1  LIG1        0.0278
@<TRIPOS>BOND
     1    28    25    1
     2    27    25    1
     3    26    25    1
     4    25    24    1
     5    53    52    1
     6    37    35    1
     7    12     4    1
     8    12    13    1
     9    52    43    1
    10    47    44    1
    11     7     3    1
    12    38    35    1
    13    44    43   ar
    14    44    46   ar
    15    24    20    1
    16    43    45   ar
    17     3     4   ar
    18     3     2   ar
    19     4     5   ar
    20    21    19    1
    21    35    36    1
    22    35    34    1
    23    41    39    1
    24    19    20   ar
    25    19    16   ar
    26    20    17   ar
    27    51    46    1
    28    46    49   ar
    29     2     8    1
    30     2     1   ar
    31    33    32   ar
    32    33    29   ar
    33    45    32    1
    34    45    48   ar
    35     5    16    1
    36     5     6   ar
    37    16    14   ar
    38    32    31   ar
    39    17    29    1
    40    17    15   ar
    41    29    30   ar
    42    56    54    1
    43    31    30   ar
    44    31    39    1
    45    30    34    1
    46    14    15   ar
    47    14    23    1
    48    15    18    1
    49    49    48   ar
    50    49    54    1
    51     1     6   ar
    52     1     9    1
    53    48    50    1
    54    39    40    1
    55    39    42    1
    56    11     9    1
    57    23    22    3
    58    54    57    1
    59    54    55    1
    60     9    10    1
