@<TRIPOS>MOLECULE
mol_data/opt/b3lyp/geoms/mol2/6hf6hf-6hf.out
 38 40 0 0 0
SMALL
GASTEIGER

@<TRIPOS>ATOM
      1 C          -4.4256   -2.1683   -0.1967 C.ar    1  LIG1        0.1170
      2 C          -3.0562   -2.2330    0.1375 C.ar    1  LIG1       -0.0186
      3 C          -2.3867   -1.0489    0.3688 C.ar    1  LIG1       -0.0148
      4 C          -3.0578    0.1850    0.2890 C.ar    1  LIG1        0.1429
      5 C          -4.4269    0.1568   -0.0564 C.ar    1  LIG1        0.1177
      6 N          -5.0726   -1.0107   -0.2910 N.ar    1  LIG1       -0.2287
      7 H          -1.3350   -1.0362    0.6365 H       1  LIG1        0.0656
      8 H          -2.5480   -3.1893    0.2166 H       1  LIG1        0.0653
      9 N          -5.1766   -3.3273   -0.3883 N.pl3   1  LIG1       -0.3431
     10 H          -6.0493   -3.1486   -0.8674 H       1  LIG1        0.1437
     11 H          -4.6719   -4.1147   -0.7714 H       1  LIG1        0.1437
     12 O          -2.3466    1.2931    0.6127 O.3     1  LIG1       -0.5046
     13 H          -2.6942    2.0707    0.1061 H       1  LIG1        0.2922
     14 C          -4.9435    2.6343   -0.5753 C.ar    1  LIG1        0.1264
     15 C          -5.3034    1.3578   -0.0940 C.ar    1  LIG1        0.0470
     16 C          -6.6181    1.2473    0.3695 C.ar    1  LIG1       -0.0055
     17 C          -7.4620    2.3501    0.4119 C.ar    1  LIG1        0.1436
     18 C          -6.9989    3.5968   -0.0543 C.ar    1  LIG1        0.1177
     19 N          -5.7479    3.6909   -0.5399 N.ar    1  LIG1       -0.2280
     20 H          -6.9546    0.2777    0.7266 H       1  LIG1        0.0662
     21 N          -3.6493    2.8657   -1.1194 N.pl3   1  LIG1       -0.3426
     22 H          -3.4417    2.2456   -1.8993 H       1  LIG1        0.1437
     23 H          -3.5874    3.8327   -1.4256 H       1  LIG1        0.1437
     24 O          -8.7295    2.2618    0.9402 O.3     1  LIG1       -0.5046
     25 H          -8.8692    1.3633    1.2684 H       1  LIG1        0.2922
     26 C          -9.1158    5.0213   -0.4621 C.ar    1  LIG1        0.1257
     27 C          -7.7723    4.8660   -0.0132 C.ar    1  LIG1        0.0469
     28 C          -7.0983    6.0151    0.4059 C.ar    1  LIG1       -0.0061
     29 C          -7.7377    7.2524    0.3989 C.ar    1  LIG1        0.1356
     30 C          -9.0559    7.2950   -0.0508 C.ar    1  LIG1        0.0711
     31 N          -9.7234    6.2168   -0.4652 N.ar    1  LIG1       -0.2364
     32 H          -6.0663    5.9453    0.7301 H       1  LIG1        0.0662
     33 H          -9.6005    8.2411   -0.0751 H       1  LIG1        0.0867
     34 N          -9.8475    3.9781   -1.0164 N.pl3   1  LIG1       -0.3426
     35 H         -10.8071    4.2626   -1.1688 H       1  LIG1        0.1437
     36 H          -9.7698    3.0989   -0.5191 H       1  LIG1        0.1437
     37 O          -7.0456    8.3544    0.8323 O.3     1  LIG1       -0.5052
     38 H          -7.6196    9.1287    0.7636 H       1  LIG1        0.2922
@<TRIPOS>BOND
     1    22    21    1
     2    23    21    1
     3    35    34    1
     4    21    14    1
     5    34    36    1
     6    34    26    1
     7    10     9    1
     8    11     9    1
     9    14    19   ar
    10    14    15   ar
    11    19    18   ar
    12    31    26   ar
    13    31    30   ar
    14    26    27   ar
    15     9     1    1
    16     6     1   ar
    17     6     5   ar
    18     1     2   ar
    19    15     5    1
    20    15    16   ar
    21    33    30    1
    22     5     4   ar
    23    18    27    1
    24    18    17   ar
    25    30    29   ar
    26    27    28   ar
    27    13    12    1
    28     2     8    1
    29     2     3   ar
    30     4     3   ar
    31     4    12    1
    32     3     7    1
    33    16    17   ar
    34    16    20    1
    35    29    28   ar
    36    29    37    1
    37    28    32    1
    38    17    24    1
    39    38    37    1
    40    24    25    1
