@<TRIPOS>MOLECULE
mol_data/opt/b3lyp/geoms/mol2/6hf6hf6hf-6hf-.out
 50 53 0 0 0
SMALL
GASTEIGER

@<TRIPOS>ATOM
      1 C          -4.1851   -2.2214   -0.6745 C.ar    1  LIG1        0.1170
      2 C          -3.0655   -2.3808    0.1661 C.ar    1  LIG1       -0.0186
      3 C          -2.7100   -1.3295    0.9906 C.ar    1  LIG1       -0.0148
      4 C          -3.4424   -0.1368    0.9611 C.ar    1  LIG1        0.1429
      5 C          -4.5238   -0.0380    0.0665 C.ar    1  LIG1        0.1177
      6 N          -4.8809   -1.0842   -0.7125 N.ar    1  LIG1       -0.2287
      7 H          -1.8732   -1.4073    1.6772 H       1  LIG1        0.0656
      8 H          -2.5125   -3.3147    0.1826 H       1  LIG1        0.0653
      9 N          -4.6501   -3.2674   -1.4668 N.pl3   1  LIG1       -0.3431
     10 H          -5.2445   -2.9572   -2.2239 H       1  LIG1        0.1437
     11 H          -3.9521   -3.9355   -1.7618 H       1  LIG1        0.1437
     12 O          -3.0542    0.8519    1.8221 O.3     1  LIG1       -0.5046
     13 H          -3.7380    1.5375    1.8426 H       1  LIG1        0.2922
     14 C          -6.7557    1.1863   -0.1792 C.ar    1  LIG1        0.1264
     15 C          -5.3302    1.2044   -0.0529 C.ar    1  LIG1        0.0470
     16 C          -4.7287    2.4610   -0.0610 C.ar    1  LIG1       -0.0055
     17 C          -5.4747    3.6475   -0.1347 C.ar    1  LIG1        0.1436
     18 C          -6.8768    3.5238   -0.2318 C.ar    1  LIG1        0.1177
     19 N          -7.4684    2.3085   -0.2587 N.ar    1  LIG1       -0.2280
     20 H          -3.6483    2.5617   -0.0212 H       1  LIG1        0.0662
     21 N          -7.4605    0.0010   -0.1698 N.pl3   1  LIG1       -0.3426
     22 H          -8.4170    0.1048   -0.4774 H       1  LIG1        0.1437
     23 H          -6.9513   -0.7905   -0.5457 H       1  LIG1        0.1437
     24 O          -4.7827    4.8116   -0.0408 O.3     1  LIG1       -0.5046
     25 H          -5.2566    5.5208   -0.5420 H       1  LIG1        0.2922
     26 C          -7.6304    5.9115   -0.8484 C.ar    1  LIG1        0.1264
     27 C          -7.8226    4.6691   -0.2143 C.ar    1  LIG1        0.0470
     28 C          -9.0341    4.5370    0.4732 C.ar    1  LIG1       -0.0055
     29 C          -9.9321    5.5907    0.5807 C.ar    1  LIG1        0.1436
     30 C          -9.6213    6.8318   -0.0302 C.ar    1  LIG1        0.1177
     31 N          -8.4767    6.9311   -0.7378 N.ar    1  LIG1       -0.2280
     32 H          -9.2482    3.5823    0.9464 H       1  LIG1        0.0662
     33 N          -6.4742    6.1444   -1.6439 N.pl3   1  LIG1       -0.3426
     34 H          -6.3656    5.4448   -2.3751 H       1  LIG1        0.1437
     35 H          -6.5260    7.0675   -2.0638 H       1  LIG1        0.1437
     36 O         -11.0949    5.4549    1.2931 O.3     1  LIG1       -0.5046
     37 H         -11.1008    4.5813    1.7067 H       1  LIG1        0.2922
     38 C          -9.9707    9.3600    0.0176 C.ar    1  LIG1        0.1257
     39 C         -10.4906    8.0286    0.0494 C.ar    1  LIG1        0.0469
     40 C         -11.8856    7.9033    0.1387 C.ar    1  LIG1       -0.0061
     41 C         -12.6994    9.0281    0.2132 C.ar    1  LIG1        0.1356
     42 C         -12.0856   10.2809    0.1919 C.ar    1  LIG1        0.0711
     43 N         -10.7680   10.4395    0.0910 N.ar    1  LIG1       -0.2364
     44 H         -12.3311    6.9153    0.1514 H       1  LIG1        0.0662
     45 H         -12.6948   11.1806    0.2494 H       1  LIG1        0.0867
     46 N          -8.6206    9.6299   -0.0272 N.pl3   1  LIG1       -0.3426
     47 H          -8.0578    8.9314   -0.4924 H       1  LIG1        0.1437
     48 H          -8.4186   10.5989   -0.2276 H       1  LIG1        0.1437
     49 O         -14.0689    8.9760    0.2952 O.3     1  LIG1       -0.5052
     50 H         -14.3428    8.0511    0.3427 H       1  LIG1        0.2922
@<TRIPOS>BOND
     1    34    33    1
     2    10     9    1
     3    35    33    1
     4    11     9    1
     5    33    26    1
     6     9     1    1
     7    26    31   ar
     8    26    27   ar
     9    31    30   ar
    10     6     1   ar
    11     6     5   ar
    12     1     2   ar
    13    23    21    1
    14    25    24    1
    15    47    46    1
    16    22    21    1
    17    19    18   ar
    18    19    14   ar
    19    18    27    1
    20    18    17   ar
    21    48    46    1
    22    27    28   ar
    23    14    21    1
    24    14    15   ar
    25    17    16   ar
    26    17    24    1
    27    16    15   ar
    28    16    20    1
    29    15     5    1
    30    30    39    1
    31    30    29   ar
    32    46    38    1
    33    38    39   ar
    34    38    43   ar
    35    39    40   ar
    36     5     4   ar
    37    43    42   ar
    38    40    44    1
    39    40    41   ar
    40     2     8    1
    41     2     3   ar
    42    42    41   ar
    43    42    45    1
    44    41    49    1
    45    49    50    1
    46    28    29   ar
    47    28    32    1
    48    29    36    1
    49     4     3   ar
    50     4    12    1
    51     3     7    1
    52    36    37    1
    53    12    13    1
