@<TRIPOS>MOLECULE
mol_data/opt/b3lyp/geoms/mol2/6hf6hf6hf-6hf.out
 50 53 0 0 0
SMALL
GASTEIGER

@<TRIPOS>ATOM
      1 C          -4.1173   -2.1894   -0.6409 C.ar    1  LIG1        0.1170
      2 C          -2.9714   -2.3095    0.1702 C.ar    1  LIG1       -0.0186
      3 C          -2.6135   -1.2345    0.9626 C.ar    1  LIG1       -0.0148
      4 C          -3.3708   -0.0574    0.9307 C.ar    1  LIG1        0.1429
      5 C          -4.4804    0.0007    0.0676 C.ar    1  LIG1        0.1177
      6 N          -4.8377   -1.0678   -0.6804 N.ar    1  LIG1       -0.2287
      7 H          -1.7556   -1.2815    1.6255 H       1  LIG1        0.0656
      8 H          -2.3996   -3.2319    0.1894 H       1  LIG1        0.0653
      9 N          -4.5827   -3.2602   -1.3994 N.pl3   1  LIG1       -0.3431
     10 H          -5.2061   -2.9765   -2.1436 H       1  LIG1        0.1437
     11 H          -3.8788   -3.9177   -1.7042 H       1  LIG1        0.1437
     12 O          -2.9777    0.9571    1.7587 O.3     1  LIG1       -0.5046
     13 H          -3.6713    1.6328    1.7787 H       1  LIG1        0.2922
     14 C          -6.7448    1.1712   -0.1307 C.ar    1  LIG1        0.1264
     15 C          -5.3170    1.2231   -0.0512 C.ar    1  LIG1        0.0470
     16 C          -4.7440    2.4919   -0.1047 C.ar    1  LIG1       -0.0055
     17 C          -5.5180    3.6605   -0.1800 C.ar    1  LIG1        0.1436
     18 C          -6.9193    3.5037   -0.2296 C.ar    1  LIG1        0.1177
     19 N          -7.4842    2.2756   -0.2107 N.ar    1  LIG1       -0.2280
     20 H          -3.6653    2.6164   -0.1029 H       1  LIG1        0.0662
     21 N          -7.4229   -0.0289   -0.0722 N.pl3   1  LIG1       -0.3426
     22 H          -8.3900    0.0486   -0.3535 H       1  LIG1        0.1437
     23 H          -6.9089   -0.8165   -0.4497 H       1  LIG1        0.1437
     24 O          -4.8515    4.8411   -0.1360 O.3     1  LIG1       -0.5046
     25 H          -5.3597    5.5275   -0.6402 H       1  LIG1        0.2922
     26 C          -7.7462    5.8635   -0.8739 C.ar    1  LIG1        0.1264
     27 C          -7.8907    4.6281   -0.2078 C.ar    1  LIG1        0.0470
     28 C          -9.0758    4.4804    0.5201 C.ar    1  LIG1       -0.0055
     29 C          -9.9886    5.5220    0.6279 C.ar    1  LIG1        0.1436
     30 C          -9.7356    6.7386   -0.0375 C.ar    1  LIG1        0.1177
     31 N          -8.6173    6.8613   -0.7755 N.ar    1  LIG1       -0.2280
     32 H          -9.2491    3.5355    1.0279 H       1  LIG1        0.0662
     33 N          -6.6125    6.1154   -1.6966 N.pl3   1  LIG1       -0.3426
     34 H          -6.5186    5.4299   -2.4432 H       1  LIG1        0.1437
     35 H          -6.6950    7.0460   -2.0963 H       1  LIG1        0.1437
     36 O         -11.1167    5.4078    1.4072 O.3     1  LIG1       -0.5046
     37 H         -11.1128    4.5427    1.8386 H       1  LIG1        0.2922
     38 C         -12.0064    7.9694   -0.1306 C.ar    1  LIG1        0.1257
     39 C         -10.5918    7.9513    0.0424 C.ar    1  LIG1        0.0469
     40 C          -9.9487    9.1807    0.2036 C.ar    1  LIG1       -0.0061
     41 C         -10.6802   10.3656    0.2155 C.ar    1  LIG1        0.1356
     42 C         -12.0607   10.2734    0.0491 C.ar    1  LIG1        0.0711
     43 N         -12.7025    9.1157   -0.1166 N.ar    1  LIG1       -0.2364
     44 H          -8.8705    9.2133    0.3110 H       1  LIG1        0.0662
     45 H         -12.6785   11.1738    0.0526 H       1  LIG1        0.0867
     46 N         -12.7422    6.8283   -0.4246 N.pl3   1  LIG1       -0.3426
     47 H         -13.7338    7.0313   -0.3983 H       1  LIG1        0.1437
     48 H         -12.4909    6.0122    0.1206 H       1  LIG1        0.1437
     49 O         -10.0126   11.5508    0.3909 O.3     1  LIG1       -0.5052
     50 H         -10.6533   12.2740    0.3733 H       1  LIG1        0.2922
@<TRIPOS>BOND
     1    34    33    1
     2    10     9    1
     3    35    33    1
     4    11     9    1
     5    33    26    1
     6     9     1    1
     7    26    31   ar
     8    26    27   ar
     9    31    30   ar
    10     6     1   ar
    11     6     5   ar
    12     1     2   ar
    13    25    24    1
    14    23    21    1
    15    46    47    1
    16    46    38    1
    17    46    48    1
    18    22    21    1
    19    18    19   ar
    20    18    27    1
    21    18    17   ar
    22    19    14   ar
    23    27    28   ar
    24    17    24    1
    25    17    16   ar
    26    14    21    1
    27    14    15   ar
    28    38    43   ar
    29    38    39   ar
    30    43    42   ar
    31    16    20    1
    32    16    15   ar
    33    15     5    1
    34    30    39    1
    35    30    29   ar
    36    39    40   ar
    37    42    45    1
    38    42    41   ar
    39     5     4   ar
    40     2     8    1
    41     2     3   ar
    42    40    41   ar
    43    40    44    1
    44    41    49    1
    45    50    49    1
    46    28    29   ar
    47    28    32    1
    48    29    36    1
    49     4     3   ar
    50     4    12    1
    51     3     7    1
    52    36    37    1
    53    12    13    1
