@<TRIPOS>MOLECULE
mol_data/opt/b3lyp/geoms/mol2/6hf6hf6hf6hf.out
 50 53 0 0 0
SMALL
GASTEIGER

@<TRIPOS>ATOM
      1 C          -3.8797   -1.9685   -1.1666 C.ar    1  LIG1        0.1170
      2 C          -2.8708   -2.2424   -0.2214 C.ar    1  LIG1       -0.0186
      3 C          -2.7245   -1.3804    0.8495 C.ar    1  LIG1       -0.0148
      4 C          -3.5505   -0.2557    0.9620 C.ar    1  LIG1        0.1429
      5 C          -4.5049   -0.0235   -0.0450 C.ar    1  LIG1        0.1177
      6 N          -4.6626   -0.8931   -1.0685 N.ar    1  LIG1       -0.2287
      7 H          -1.9837   -1.5592    1.6220 H       1  LIG1        0.0656
      8 H          -2.2429   -3.1224   -0.3194 H       1  LIG1        0.0653
      9 N          -4.1414   -2.8395   -2.2193 N.pl3   1  LIG1       -0.3431
     10 H          -4.6540   -2.4068   -2.9760 H       1  LIG1        0.1437
     11 H          -3.3573   -3.3914   -2.5370 H       1  LIG1        0.1437
     12 O          -3.3715    0.5398    2.0607 O.3     1  LIG1       -0.5046
     13 H          -4.1262    1.1412    2.1394 H       1  LIG1        0.2922
     14 C          -6.7744    1.1025   -0.3782 C.ar    1  LIG1        0.1264
     15 C          -5.3899    1.1703   -0.0286 C.ar    1  LIG1        0.0470
     16 C          -4.9045    2.4278    0.3332 C.ar    1  LIG1       -0.0055
     17 C          -5.7341    3.5513    0.3620 C.ar    1  LIG1        0.1436
     18 C          -7.0813    3.3953   -0.0067 C.ar    1  LIG1        0.1177
     19 N          -7.5621    2.1804   -0.3469 N.ar    1  LIG1       -0.2280
     20 H          -3.8573    2.5689    0.5826 H       1  LIG1        0.0662
     21 N          -7.3724   -0.0924   -0.7149 N.pl3   1  LIG1       -0.3426
     22 H          -8.2681    0.0209   -1.1681 H       1  LIG1        0.1437
     23 H          -6.7429   -0.7646   -1.1392 H       1  LIG1        0.1437
     24 O          -5.1638    4.7318    0.7571 O.3     1  LIG1       -0.5046
     25 H          -5.8659    5.3698    0.9505 H       1  LIG1        0.2922
     26 C          -9.3811    4.4181    0.4223 C.ar    1  LIG1        0.1264
     27 C          -8.0316    4.5357   -0.0341 C.ar    1  LIG1        0.0470
     28 C          -7.6465    5.7905   -0.5110 C.ar    1  LIG1       -0.0055
     29 C          -8.5326    6.8696   -0.5243 C.ar    1  LIG1        0.1436
     30 C          -9.8433    6.6628   -0.0603 C.ar    1  LIG1        0.1177
     31 N         -10.2216    5.4561    0.4097 N.ar    1  LIG1       -0.2280
     32 H          -6.6501    5.9520   -0.9105 H       1  LIG1        0.0662
     33 N          -9.8623    3.2379    0.9460 N.pl3   1  LIG1       -0.3426
     34 H         -10.8704    3.2086    1.0063 H       1  LIG1        0.1437
     35 H          -9.4158    2.4079    0.5714 H       1  LIG1        0.1437
     36 O          -8.0499    8.0636   -0.9891 O.3     1  LIG1       -0.5046
     37 H          -8.6794    8.7634   -0.7612 H       1  LIG1        0.2922
     38 C         -11.7656    7.9377    1.0318 C.ar    1  LIG1        0.1257
     39 C         -10.8591    7.7472   -0.0582 C.ar    1  LIG1        0.0469
     40 C         -10.9772    8.6210   -1.1445 C.ar    1  LIG1       -0.0061
     41 C         -11.9175    9.6533   -1.1247 C.ar    1  LIG1        0.1356
     42 C         -12.7262    9.7696    0.0029 C.ar    1  LIG1        0.0711
     43 N         -12.6628    8.9330    1.0420 N.ar    1  LIG1       -0.2364
     44 H         -10.3670    8.4906   -2.0330 H       1  LIG1        0.0662
     45 H         -13.4719   10.5643    0.0665 H       1  LIG1        0.0867
     46 N         -11.7245    7.1358    2.1506 N.pl3   1  LIG1       -0.3426
     47 H         -12.5306    7.2469    2.7491 H       1  LIG1        0.1437
     48 H         -11.4144    6.1868    1.9781 H       1  LIG1        0.1437
     49 O         -11.9967   10.4848   -2.2119 O.3     1  LIG1       -0.5052
     50 H         -12.7039   11.1265   -2.0639 H       1  LIG1        0.2922
@<TRIPOS>BOND
     1    10     9    1
     2    11     9    1
     3     9     1    1
     4    49    50    1
     5    49    41    1
     6    44    40    1
     7    22    21    1
     8     1     6   ar
     9     1     2   ar
    10    40    41   ar
    11    40    39   ar
    12    23    21    1
    13    41    42   ar
    14     6     5   ar
    15    36    37    1
    16    36    29    1
    17    32    28    1
    18    21    14    1
    19    29    28   ar
    20    29    30   ar
    21    28    27   ar
    22    14    19   ar
    23    14    15   ar
    24    19    18   ar
    25     8     2    1
    26     2     3   ar
    27    30    39    1
    28    30    31   ar
    29    39    38   ar
    30     5    15    1
    31     5     4   ar
    32    27    18    1
    33    27    26   ar
    34    15    16   ar
    35    18    17   ar
    36    42    45    1
    37    42    43   ar
    38    16    17   ar
    39    16    20    1
    40    17    24    1
    41    31    26   ar
    42    26    33    1
    43    35    33    1
    44    24    25    1
    45     3     4   ar
    46     3     7    1
    47    33    34    1
    48     4    12    1
    49    38    43   ar
    50    38    46    1
    51    48    46    1
    52    12    13    1
    53    46    47    1
