@<TRIPOS>MOLECULE
mol_data/opt/b3lyp/geoms/mol2/6hf6hf-6hf-6hf.out
 50 53 0 0 0
SMALL
GASTEIGER

@<TRIPOS>ATOM
      1 C          -4.4205   -2.2846   -0.0498 C.ar    1  LIG1        0.1170
      2 C          -3.0232   -2.3662    0.1317 C.ar    1  LIG1       -0.0186
      3 C          -2.3061   -1.1893    0.1966 C.ar    1  LIG1       -0.0148
      4 C          -2.9553    0.0548    0.1001 C.ar    1  LIG1        0.1429
      5 C          -4.3550    0.0436   -0.0865 C.ar    1  LIG1        0.1177
      6 N          -5.0488   -1.1179   -0.1583 N.ar    1  LIG1       -0.2287
      7 H          -1.2308   -1.1889    0.3435 H       1  LIG1        0.0656
      8 H          -2.5302   -3.3292    0.2251 H       1  LIG1        0.0653
      9 N          -5.2125   -3.4308   -0.0674 N.pl3   1  LIG1       -0.3431
     10 H          -6.1318   -3.2637   -0.4544 H       1  LIG1        0.1437
     11 H          -4.7721   -4.2612   -0.4383 H       1  LIG1        0.1437
     12 O          -2.1863    1.1614    0.2604 O.3     1  LIG1       -0.5046
     13 H          -2.5687    1.9118   -0.2571 H       1  LIG1        0.2922
     14 C          -4.8733    2.4865   -0.7333 C.ar    1  LIG1        0.1264
     15 C          -5.2026    1.2642   -0.1162 C.ar    1  LIG1        0.0470
     16 C          -6.4585    1.2331    0.4987 C.ar    1  LIG1       -0.0055
     17 C          -7.2743    2.3554    0.5547 C.ar    1  LIG1        0.1436
     18 C          -6.8316    3.5657   -0.0364 C.ar    1  LIG1        0.1177
     19 N          -5.6409    3.5702   -0.6725 N.ar    1  LIG1       -0.2280
     20 H          -6.7769    0.3004    0.9567 H       1  LIG1        0.0662
     21 N          -3.6537    2.6262   -1.4502 N.pl3   1  LIG1       -0.3426
     22 H          -3.5440    1.9100   -2.1648 H       1  LIG1        0.1437
     23 H          -3.6077    3.5451   -1.8795 H       1  LIG1        0.1437
     24 O          -8.4844    2.3119    1.1985 O.3     1  LIG1       -0.5046
     25 H          -8.5805    1.4430    1.6110 H       1  LIG1        0.2922
     26 C          -6.9899    6.1198   -0.0683 C.ar    1  LIG1        0.1264
     27 C          -7.6041    4.8276   -0.0145 C.ar    1  LIG1        0.0470
     28 C          -9.0023    4.8305    0.0446 C.ar    1  LIG1       -0.0055
     29 C          -9.7305    6.0135    0.0569 C.ar    1  LIG1        0.1436
     30 C          -9.0486    7.2393   -0.0288 C.ar    1  LIG1        0.1177
     31 N          -7.7065    7.2490   -0.0755 N.ar    1  LIG1       -0.2280
     32 H          -9.5327    3.8868    0.0979 H       1  LIG1        0.0662
     33 N          -5.6253    6.2899   -0.0606 N.pl3   1  LIG1       -0.3426
     34 H          -5.0939    5.5271   -0.4570 H       1  LIG1        0.1437
     35 H          -5.3393    7.2310   -0.2891 H       1  LIG1        0.1437
     36 O         -11.1086    6.0051    0.1715 O.3     1  LIG1       -0.5046
     37 H         -11.4007    5.0958    0.3178 H       1  LIG1        0.2922
     38 C         -10.8293    8.9521   -0.7957 C.ar    1  LIG1        0.1257
     39 C          -9.6961    8.5785   -0.0154 C.ar    1  LIG1        0.0469
     40 C          -9.0872    9.5762    0.7493 C.ar    1  LIG1       -0.0061
     41 C          -9.5974   10.8719    0.7577 C.ar    1  LIG1        0.1356
     42 C         -10.7166   11.1304   -0.0307 C.ar    1  LIG1        0.0711
     43 N         -11.3138   10.2031   -0.7813 N.ar    1  LIG1       -0.2364
     44 H          -8.2036    9.3392    1.3306 H       1  LIG1        0.0662
     45 H         -11.1544   12.1305   -0.0566 H       1  LIG1        0.0867
     46 N         -11.4425    8.0869   -1.6932 N.pl3   1  LIG1       -0.3426
     47 H         -12.2907    8.5020   -2.0584 H       1  LIG1        0.1437
     48 H         -11.5791    7.1457   -1.3429 H       1  LIG1        0.1437
     49 O          -8.9809   11.8197    1.5359 O.3     1  LIG1       -0.5052
     50 H          -9.4465   12.6594    1.4271 H       1  LIG1        0.2922
@<TRIPOS>BOND
     1    22    21    1
     2    47    46    1
     3    23    21    1
     4    46    48    1
     5    46    38    1
     6    21    14    1
     7    38    43   ar
     8    38    39   ar
     9    43    42   ar
    10    14    19   ar
    11    14    15   ar
    12    19    18   ar
    13    34    33    1
    14    10     9    1
    15    11     9    1
    16    35    33    1
    17    13    12    1
    18     6     5   ar
    19     6     1   ar
    20    15     5    1
    21    15    16   ar
    22     5     4   ar
    23    31    26   ar
    24    31    30   ar
    25    26    33    1
    26    26    27   ar
    27     9     1    1
    28    45    42    1
    29     1     2   ar
    30    18    27    1
    31    18    17   ar
    32    42    41   ar
    33    30    39    1
    34    30    29   ar
    35    39    40   ar
    36    27    28   ar
    37    28    29   ar
    38    28    32    1
    39    29    36    1
    40     4     3   ar
    41     4    12    1
    42     2     3   ar
    43     2     8    1
    44    36    37    1
    45     3     7    1
    46    16    17   ar
    47    16    20    1
    48    17    24    1
    49    40    41   ar
    50    40    44    1
    51    41    49    1
    52    24    25    1
    53    50    49    1
