@<TRIPOS>MOLECULE
mol_data/opt/b3lyp/geoms/mol2/6hf6hf.out
 26 27 0 0 0
SMALL
GASTEIGER

@<TRIPOS>ATOM
      1 C          -4.4303   -2.0702   -0.4947 C.ar    1  LIG1        0.1170
      2 C          -3.0765   -2.0900   -0.1054 C.ar    1  LIG1       -0.0186
      3 C          -2.5119   -0.9177    0.3631 C.ar    1  LIG1       -0.0148
      4 C          -3.2762    0.2534    0.4203 C.ar    1  LIG1        0.1429
      5 C          -4.6100    0.2044   -0.0242 C.ar    1  LIG1        0.1177
      6 N          -5.1599   -0.9544   -0.4501 N.ar    1  LIG1       -0.2287
      7 H          -1.4816   -0.8826    0.7021 H       1  LIG1        0.0656
      8 H          -2.4999   -3.0087   -0.1487 H       1  LIG1        0.0653
      9 N          -5.0866   -3.2313   -0.8938 N.pl3   1  LIG1       -0.3431
     10 H          -5.9314   -3.0475   -1.4187 H       1  LIG1        0.1437
     11 H          -4.5037   -3.9382   -1.3195 H       1  LIG1        0.1437
     12 O          -2.6668    1.3725    0.9187 O.3     1  LIG1       -0.5046
     13 H          -3.3423    2.0460    1.0867 H       1  LIG1        0.2922
     14 C          -6.8430    1.3733    0.3865 C.ar    1  LIG1        0.1257
     15 C          -5.4764    1.4133   -0.0326 C.ar    1  LIG1        0.0469
     16 C          -4.9813    2.6450   -0.4726 C.ar    1  LIG1       -0.0061
     17 C          -5.7924    3.7820   -0.4558 C.ar    1  LIG1        0.1356
     18 C          -7.0985    3.6372    0.0041 C.ar    1  LIG1        0.0711
     19 N          -7.6127    2.4700    0.4006 N.ar    1  LIG1       -0.2364
     20 H          -3.9715    2.7310   -0.8621 H       1  LIG1        0.0662
     21 H          -7.7682    4.4985    0.0411 H       1  LIG1        0.0867
     22 N          -7.4209    0.2106    0.8464 N.pl3   1  LIG1       -0.3426
     23 H          -8.4265    0.2691    0.9209 H       1  LIG1        0.1437
     24 H          -7.0452   -0.6377    0.4399 H       1  LIG1        0.1437
     25 O          -5.2631    4.9679   -0.8960 O.3     1  LIG1       -0.5052
     26 H          -5.9447    5.6512   -0.8478 H       1  LIG1        0.2922
@<TRIPOS>BOND
     1    10     9    1
     2    11     9    1
     3    25    26    1
     4    25    17    1
     5     9     1    1
     6    20    16    1
     7     1     6   ar
     8     1     2   ar
     9    16    17   ar
    10    16    15   ar
    11    17    18   ar
    12     6     5   ar
    13     8     2    1
    14     2     3   ar
    15    15     5    1
    16    15    14   ar
    17     5     4   ar
    18    18    21    1
    19    18    19   ar
    20     3     4   ar
    21     3     7    1
    22    14    19   ar
    23    14    22    1
    24     4    12    1
    25    24    22    1
    26    22    23    1
    27    12    13    1
