@<TRIPOS>MOLECULE
mol_data/opt/b3lyp/geoms/mol2/6hf6hf-.out
 26 27 0 0 0
SMALL
GASTEIGER

@<TRIPOS>ATOM
      1 C          -4.5211   -2.0702   -0.3267 C.ar    1  LIG1        0.1170
      2 C          -3.1996   -2.1828    0.1540 C.ar    1  LIG1       -0.0186
      3 C          -2.5497   -1.0297    0.5446 C.ar    1  LIG1       -0.0148
      4 C          -3.1967    0.2179    0.4810 C.ar    1  LIG1        0.1429
      5 C          -4.5194    0.2378   -0.0135 C.ar    1  LIG1        0.1177
      6 N          -5.1437   -0.8982   -0.4061 N.ar    1  LIG1       -0.2287
      7 H          -1.5346   -1.0541    0.9279 H       1  LIG1        0.0656
      8 H          -2.7130   -3.1513    0.2203 H       1  LIG1        0.0653
      9 N          -5.2559   -3.1997   -0.6875 N.pl3   1  LIG1       -0.3431
     10 H          -6.0697   -2.9693   -1.2424 H       1  LIG1        0.1437
     11 H          -4.7180   -3.9612   -1.0780 H       1  LIG1        0.1437
     12 O          -2.5167    1.2898    0.9573 O.3     1  LIG1       -0.5046
     13 H          -2.7899    2.1015    0.4569 H       1  LIG1        0.2922
     14 C          -4.9428    2.7492   -0.4137 C.ar    1  LIG1        0.1257
     15 C          -5.3767    1.4550   -0.0572 C.ar    1  LIG1        0.0469
     16 C          -6.7362    1.3248    0.2569 C.ar    1  LIG1       -0.0061
     17 C          -7.5638    2.4431    0.2834 C.ar    1  LIG1        0.1356
     18 C          -7.0040    3.6882   -0.0207 C.ar    1  LIG1        0.0711
     19 N          -5.7279    3.8273   -0.3807 N.ar    1  LIG1       -0.2364
     20 H          -7.1162    0.3345    0.4912 H       1  LIG1        0.0662
     21 H          -7.6194    4.5836    0.0153 H       1  LIG1        0.0867
     22 N          -3.5948    2.9823   -0.8094 N.pl3   1  LIG1       -0.3426
     23 H          -3.3233    2.4166   -1.6106 H       1  LIG1        0.1437
     24 H          -3.4840    3.9671   -1.0340 H       1  LIG1        0.1437
     25 O          -8.8916    2.3985    0.6026 O.3     1  LIG1       -0.5052
     26 H          -9.1386    1.4850    0.7978 H       1  LIG1        0.2922
@<TRIPOS>BOND
     1    23    22    1
     2    10     9    1
     3    11     9    1
     4    24    22    1
     5    22    14    1
     6     9     1    1
     7    14    19   ar
     8    14    15   ar
     9     6     1   ar
    10     6     5   ar
    11    19    18   ar
    12     1     2   ar
    13    15     5    1
    14    15    16   ar
    15    18    21    1
    16    18    17   ar
    17     5     4   ar
    18     2     8    1
    19     2     3   ar
    20    16    17   ar
    21    16    20    1
    22    17    25    1
    23    13    12    1
    24     4     3   ar
    25     4    12    1
    26     3     7    1
    27    25    26    1
