@<TRIPOS>MOLECULE
mol_data/opt/b3lyp/geoms/mol2/6hf6hf-6hf-6hf-.out
 50 53 0 0 0
SMALL
GASTEIGER

@<TRIPOS>ATOM
      1 C          -4.5031   -2.3143   -0.1002 C.ar    1  LIG1        0.1170
      2 C          -3.1125   -2.4295    0.1122 C.ar    1  LIG1       -0.0186
      3 C          -2.3712   -1.2700    0.2092 C.ar    1  LIG1       -0.0148
      4 C          -2.9901   -0.0104    0.1145 C.ar    1  LIG1        0.1429
      5 C          -4.3849    0.0122   -0.1044 C.ar    1  LIG1        0.1177
      6 N          -5.1026   -1.1324   -0.2078 N.ar    1  LIG1       -0.2287
      7 H          -1.2999   -1.2959    0.3810 H       1  LIG1        0.0656
      8 H          -2.6433   -3.4044    0.2043 H       1  LIG1        0.0653
      9 N          -5.3197   -3.4418   -0.1510 N.pl3   1  LIG1       -0.3431
     10 H          -6.2260   -3.2499   -0.5568 H       1  LIG1        0.1437
     11 H          -4.8894   -4.2781   -0.5204 H       1  LIG1        0.1437
     12 O          -2.2002    1.0762    0.3075 O.3     1  LIG1       -0.5046
     13 H          -2.5539    1.8419   -0.2073 H       1  LIG1        0.2922
     14 C          -4.8344    2.4742   -0.7297 C.ar    1  LIG1        0.1264
     15 C          -5.2045    1.2517   -0.1366 C.ar    1  LIG1        0.0470
     16 C          -6.4743    1.2406    0.4497 C.ar    1  LIG1       -0.0055
     17 C          -7.2661    2.3800    0.5038 C.ar    1  LIG1        0.1436
     18 C          -6.7840    3.5878   -0.0613 C.ar    1  LIG1        0.1177
     19 N          -5.5794    3.5738   -0.6716 N.ar    1  LIG1       -0.2280
     20 H          -6.8231    0.3093    0.8881 H       1  LIG1        0.0662
     21 N          -3.5965    2.5955   -1.4175 N.pl3   1  LIG1       -0.3426
     22 H          -3.4854    1.8848   -2.1372 H       1  LIG1        0.1437
     23 H          -3.5198    3.5178   -1.8347 H       1  LIG1        0.1437
     24 O          -8.4897    2.3562    1.1214 O.3     1  LIG1       -0.5046
     25 H          -8.6126    1.4864    1.5248 H       1  LIG1        0.2922
     26 C          -6.8925    6.1425   -0.0593 C.ar    1  LIG1        0.1264
     27 C          -7.5305    4.8646   -0.0380 C.ar    1  LIG1        0.0470
     28 C          -8.9304    4.8977   -0.0111 C.ar    1  LIG1       -0.0055
     29 C          -9.6451    6.0884    0.0058 C.ar    1  LIG1        0.1436
     30 C          -8.9384    7.3117   -0.0078 C.ar    1  LIG1        0.1177
     31 N          -7.5912    7.2827   -0.0356 N.ar    1  LIG1       -0.2280
     32 H          -9.4792    3.9632    0.0025 H       1  LIG1        0.0662
     33 N          -5.5229    6.2850   -0.0463 N.pl3   1  LIG1       -0.3426
     34 H          -5.0144    5.5037   -0.4393 H       1  LIG1        0.1437
     35 H          -5.2093    7.2110   -0.2984 H       1  LIG1        0.1437
     36 O         -11.0217    6.0826    0.0439 O.3     1  LIG1       -0.5046
     37 H         -11.3160    5.1749    0.1951 H       1  LIG1        0.2922
     38 C          -8.9757    9.7987    0.5748 C.ar    1  LIG1        0.1257
     39 C          -9.5933    8.6405    0.0038 C.ar    1  LIG1        0.0469
     40 C         -10.8562    8.8286   -0.5780 C.ar    1  LIG1       -0.0061
     41 C         -11.4655   10.0782   -0.5738 C.ar    1  LIG1        0.1356
     42 C         -10.7804   11.1371    0.0221 C.ar    1  LIG1        0.0711
     43 N          -9.5757   11.0024    0.5720 N.ar    1  LIG1       -0.2364
     44 H         -11.3609    7.9857   -1.0359 H       1  LIG1        0.0662
     45 H         -11.2303   12.1279    0.0400 H       1  LIG1        0.0867
     46 N          -7.7601    9.7496    1.2147 N.pl3   1  LIG1       -0.3426
     47 H          -7.1397    9.0134    0.9023 H       1  LIG1        0.1437
     48 H          -7.3666   10.6607    1.3991 H       1  LIG1        0.1437
     49 O         -12.6960   10.3292   -1.1324 O.3     1  LIG1       -0.5052
     50 H         -13.0578    9.4986   -1.4668 H       1  LIG1        0.2922
@<TRIPOS>BOND
     1    22    21    1
     2    23    21    1
     3    50    49    1
     4    21    14    1
     5    49    41    1
     6    44    40    1
     7    14    19   ar
     8    14    15   ar
     9    19    18   ar
    10    40    41   ar
    11    40    39   ar
    12    41    42   ar
    13    10     9    1
    14    11     9    1
    15    34    33    1
    16    35    33    1
    17     6     5   ar
    18     6     1   ar
    19    13    12    1
    20     9     1    1
    21    15     5    1
    22    15    16   ar
    23     5     4   ar
    24     1     2   ar
    25    18    27    1
    26    18    17   ar
    27    26    33    1
    28    26    27   ar
    29    26    31   ar
    30    27    28   ar
    31    31    30   ar
    32    28    32    1
    33    28    29   ar
    34    30    39    1
    35    30    29   ar
    36    39    38   ar
    37    29    36    1
    38    42    45    1
    39    42    43   ar
    40    36    37    1
    41     2     8    1
    42     2     3   ar
    43     4     3   ar
    44     4    12    1
    45     3     7    1
    46    16    17   ar
    47    16    20    1
    48    17    24    1
    49    43    38   ar
    50    38    46    1
    51    47    46    1
    52    24    25    1
    53    46    48    1
