@<TRIPOS>MOLECULE
mol_data/opt/b3lyp/geoms/mol2/6hf6hf6hf.out
 38 40 0 0 0
SMALL
GASTEIGER

@<TRIPOS>ATOM
      1 C          -4.2084   -2.0545   -0.8839 C.ar    1  LIG1        0.1170
      2 C          -2.9945   -2.1796   -0.1792 C.ar    1  LIG1       -0.0186
      3 C          -2.6010   -1.1366    0.6386 C.ar    1  LIG1       -0.0148
      4 C          -3.3899    0.0160    0.7329 C.ar    1  LIG1        0.1429
      5 C          -4.5663    0.0862   -0.0351 C.ar    1  LIG1        0.1177
      6 N          -4.9584   -0.9545   -0.8045 N.ar    1  LIG1       -0.2287
      7 H          -1.6901   -1.1913    1.2258 H       1  LIG1        0.0656
      8 H          -2.3978   -3.0830   -0.2577 H       1  LIG1        0.0653
      9 N          -4.7085   -3.0991   -1.6553 N.pl3   1  LIG1       -0.3431
     10 H          -5.3989   -2.7990   -2.3306 H       1  LIG1        0.1437
     11 H          -4.0172   -3.7227   -2.0477 H       1  LIG1        0.1437
     12 O          -2.9576    0.9984    1.5813 O.3     1  LIG1       -0.5046
     13 H          -3.6771    1.6314    1.7205 H       1  LIG1        0.2922
     14 C          -6.8626    1.2051   -0.0051 C.ar    1  LIG1        0.1264
     15 C          -5.4365    1.2910   -0.0306 C.ar    1  LIG1        0.0470
     16 C          -4.8937    2.5770   -0.0530 C.ar    1  LIG1       -0.0055
     17 C          -5.7067    3.7125   -0.0395 C.ar    1  LIG1        0.1436
     18 C          -7.1008    3.5346   -0.0211 C.ar    1  LIG1        0.1177
     19 N          -7.6339    2.2954    0.0115 N.ar    1  LIG1       -0.2280
     20 H          -3.8196    2.7261   -0.1058 H       1  LIG1        0.0662
     21 N          -7.5082   -0.0115    0.0554 N.pl3   1  LIG1       -0.3426
     22 H          -8.4904    0.0453   -0.1743 H       1  LIG1        0.1437
     23 H          -6.9965   -0.7725   -0.3770 H       1  LIG1        0.1437
     24 O          -5.0764    4.9280   -0.0404 O.3     1  LIG1       -0.5046
     25 H          -5.7264    5.6151    0.1682 H       1  LIG1        0.2922
     26 C          -9.2207    4.7095    0.7791 C.ar    1  LIG1        0.1257
     27 C          -8.0419    4.6845   -0.0305 C.ar    1  LIG1        0.0469
     28 C          -7.8130    5.7902   -0.8567 C.ar    1  LIG1       -0.0061
     29 C          -8.6883    6.8784   -0.8427 C.ar    1  LIG1        0.1356
     30 C          -9.7867    6.8133    0.0105 C.ar    1  LIG1        0.0711
     31 N         -10.0530    5.7596    0.7868 N.ar    1  LIG1       -0.2364
     32 H          -6.9737    5.8059   -1.5452 H       1  LIG1        0.0662
     33 H         -10.4954    7.6422    0.0602 H       1  LIG1        0.0867
     34 N          -9.5299    3.6731    1.6315 N.pl3   1  LIG1       -0.3426
     35 H         -10.4726    3.7218    1.9912 H       1  LIG1        0.1437
     36 H          -9.2086    2.7632    1.3224 H       1  LIG1        0.1437
     37 O          -8.4234    7.9400   -1.6689 O.3     1  LIG1       -0.5052
     38 H          -9.1233    8.5983   -1.5659 H       1  LIG1        0.2922
@<TRIPOS>BOND
     1    10     9    1
     2    11     9    1
     3    37    38    1
     4    37    29    1
     5     9     1    1
     6    32    28    1
     7     1     6   ar
     8     1     2   ar
     9    28    29   ar
    10    28    27   ar
    11    29    30   ar
    12     6     5   ar
    13    23    21    1
    14     8     2    1
    15     2     3   ar
    16    22    21    1
    17    20    16    1
    18    16    17   ar
    19    16    15   ar
    20    24    17    1
    21    24    25    1
    22    17    18   ar
    23     5    15    1
    24     5     4   ar
    25    15    14   ar
    26    27    18    1
    27    27    26   ar
    28    18    19   ar
    29    14    19   ar
    30    14    21    1
    31    30    33    1
    32    30    31   ar
    33     3     4   ar
    34     3     7    1
    35     4    12    1
    36    26    31   ar
    37    26    34    1
    38    36    34    1
    39    12    13    1
    40    34    35    1
