@<TRIPOS>MOLECULE
mol_data/opt/b3lyp/geoms/mol2/6hf6hf6hf6hf-.out
 50 53 0 0 0
SMALL
GASTEIGER

@<TRIPOS>ATOM
      1 C          -3.8687   -1.9946   -1.0369 C.ar    1  LIG1        0.1170
      2 C          -2.9229   -2.2885   -0.0345 C.ar    1  LIG1       -0.0186
      3 C          -2.8271   -1.4329    1.0472 C.ar    1  LIG1       -0.0148
      4 C          -3.6407   -0.2958    1.1156 C.ar    1  LIG1        0.1429
      5 C          -4.5298   -0.0445    0.0548 C.ar    1  LIG1        0.1177
      6 N          -4.6391   -0.9073   -0.9809 N.ar    1  LIG1       -0.2287
      7 H          -2.1365   -1.6264    1.8616 H       1  LIG1        0.0656
      8 H          -2.3043   -3.1782   -0.0990 H       1  LIG1        0.0653
      9 N          -4.0800   -2.8575   -2.1081 N.pl3   1  LIG1       -0.3431
     10 H          -4.5400   -2.4130   -2.8914 H       1  LIG1        0.1437
     11 H          -3.2845   -3.4164   -2.3827 H       1  LIG1        0.1437
     12 O          -3.5157    0.4925    2.2266 O.3     1  LIG1       -0.5046
     13 H          -4.2608    1.1103    2.2585 H       1  LIG1        0.2922
     14 C          -6.7597    1.1158   -0.4009 C.ar    1  LIG1        0.1264
     15 C          -5.3966    1.1624    0.0257 C.ar    1  LIG1        0.0470
     16 C          -4.9130    2.4118    0.4178 C.ar    1  LIG1       -0.0055
     17 C          -5.7264    3.5473    0.4040 C.ar    1  LIG1        0.1436
     18 C          -7.0545    3.4109   -0.0366 C.ar    1  LIG1        0.1177
     19 N          -7.5326    2.2047   -0.4095 N.ar    1  LIG1       -0.2280
     20 H          -3.8787    2.5368    0.7232 H       1  LIG1        0.0662
     21 N          -7.3550   -0.0701   -0.7759 N.pl3   1  LIG1       -0.3426
     22 H          -8.2214    0.0596   -1.2790 H       1  LIG1        0.1437
     23 H          -6.7119   -0.7473   -1.1709 H       1  LIG1        0.1437
     24 O          -5.1624    4.7178    0.8329 O.3     1  LIG1       -0.5046
     25 H          -5.8617    5.3770    0.9526 H       1  LIG1        0.2922
     26 C          -9.3592    4.4688    0.2799 C.ar    1  LIG1        0.1264
     27 C          -7.9848    4.5657   -0.1064 C.ar    1  LIG1        0.0470
     28 C          -7.5639    5.8101   -0.5725 C.ar    1  LIG1       -0.0055
     29 C          -8.4180    6.9227   -0.6122 C.ar    1  LIG1        0.1436
     30 C          -9.7489    6.7302   -0.1844 C.ar    1  LIG1        0.1177
     31 N         -10.1766    5.5195    0.2363 N.ar    1  LIG1       -0.2280
     32 H          -6.5529    5.9547   -0.9412 H       1  LIG1        0.0662
     33 N          -9.8859    3.2913    0.7687 N.pl3   1  LIG1       -0.3426
     34 H         -10.8957    3.2926    0.8004 H       1  LIG1        0.1437
     35 H          -9.4503    2.4546    0.3976 H       1  LIG1        0.1437
     36 O          -7.8736    8.1017   -1.0035 O.3     1  LIG1       -0.5046
     37 H          -8.5681    8.6489   -1.4543 H       1  LIG1        0.2922
     38 C         -10.9232    8.8837   -0.9747 C.ar    1  LIG1        0.1257
     39 C         -10.7573    7.8184   -0.0647 C.ar    1  LIG1        0.0469
     40 C         -11.6406    7.7921    1.0236 C.ar    1  LIG1       -0.0061
     41 C         -12.5599    8.8197    1.2092 C.ar    1  LIG1        0.1356
     42 C         -12.5820    9.8643    0.2789 C.ar    1  LIG1        0.0711
     43 N         -11.7950    9.8777   -0.7970 N.ar    1  LIG1       -0.2364
     44 H         -11.5745    6.9595    1.7180 H       1  LIG1        0.0662
     45 H         -13.2713   10.6942    0.4111 H       1  LIG1        0.0867
     46 N         -10.1249    8.9683   -2.1514 N.pl3   1  LIG1       -0.3426
     47 H         -10.2224    8.1470   -2.7448 H       1  LIG1        0.1437
     48 H         -10.3952    9.7981   -2.6721 H       1  LIG1        0.1437
     49 O         -13.4354    8.8772    2.2562 O.3     1  LIG1       -0.5052
     50 H         -13.3076    8.1016    2.8183 H       1  LIG1        0.2922
@<TRIPOS>BOND
     1    10     9    1
     2    47    46    1
     3    48    46    1
     4    11     9    1
     5    46    38    1
     6     9     1    1
     7    37    36    1
     8    22    21    1
     9    23    21    1
    10     1     6   ar
    11     1     2   ar
    12    36    29    1
    13     6     5   ar
    14    38    43   ar
    15    38    39   ar
    16    32    28    1
    17    43    42   ar
    18    21    14    1
    19    29    28   ar
    20    29    30   ar
    21    28    27   ar
    22    19    14   ar
    23    19    18   ar
    24    14    15   ar
    25    30    39    1
    26    30    31   ar
    27    27    18    1
    28    27    26   ar
    29     8     2    1
    30    39    40   ar
    31    18    17   ar
    32     2     3   ar
    33    15     5    1
    34    15    16   ar
    35     5     4   ar
    36    31    26   ar
    37    42    45    1
    38    42    41   ar
    39    26    33    1
    40    35    33    1
    41    17    16   ar
    42    17    24    1
    43    16    20    1
    44    33    34    1
    45    24    25    1
    46    40    41   ar
    47    40    44    1
    48     3     4   ar
    49     3     7    1
    50     4    12    1
    51    41    49    1
    52    12    13    1
    53    49    50    1
