@<TRIPOS>MOLECULE
mol_data/opt/b3lyp/geoms/mol2/6hf6hf-6hf6hf-.out
 50 53 0 0 0
SMALL
GASTEIGER

@<TRIPOS>ATOM
      1 C          -4.0304   -2.0996   -0.7093 C.ar    1  LIG1        0.1170
      2 C          -3.1915   -2.4399    0.3731 C.ar    1  LIG1       -0.0186
      3 C          -2.9975   -1.5010    1.3654 C.ar    1  LIG1       -0.0148
      4 C          -3.6337   -0.2476    1.3049 C.ar    1  LIG1        0.1429
      5 C          -4.4544    0.0095    0.1847 C.ar    1  LIG1        0.1177
      6 N          -4.6288   -0.9154   -0.7900 N.ar    1  LIG1       -0.2287
      7 H          -2.3684   -1.7078    2.2252 H       1  LIG1        0.0656
      8 H          -2.7189   -3.4162    0.4244 H       1  LIG1        0.0653
      9 N          -4.3132   -3.0192   -1.7186 N.pl3   1  LIG1       -0.3431
     10 H          -4.6990   -2.5814   -2.5448 H       1  LIG1        0.1437
     11 H          -3.5733   -3.6743   -1.9301 H       1  LIG1        0.1437
     12 O          -3.4532    0.5840    2.3601 O.3     1  LIG1       -0.5046
     13 H          -3.5090    1.5254    2.0552 H       1  LIG1        0.2922
     14 C          -4.8762    2.5531    0.3523 C.ar    1  LIG1        0.1264
     15 C          -5.2700    1.2410    0.0123 C.ar    1  LIG1        0.0470
     16 C          -6.5390    1.1347   -0.5656 C.ar    1  LIG1       -0.0055
     17 C          -7.3650    2.2440   -0.6970 C.ar    1  LIG1        0.1436
     18 C          -6.9249    3.4970   -0.2256 C.ar    1  LIG1        0.1177
     19 N          -5.6710    3.6114    0.2483 N.ar    1  LIG1       -0.2280
     20 H          -6.8627    0.1563   -0.9102 H       1  LIG1        0.0662
     21 N          -3.5774    2.8086    0.8730 N.pl3   1  LIG1       -0.3426
     22 H          -2.8387    2.4901    0.2497 H       1  LIG1        0.1437
     23 H          -3.4785    3.8049    1.0465 H       1  LIG1        0.1437
     24 O          -8.6043    2.1493   -1.2898 O.3     1  LIG1       -0.5046
     25 H          -8.7307    1.2435   -1.6028 H       1  LIG1        0.2922
     26 C          -9.0715    4.8973    0.1213 C.ar    1  LIG1        0.1264
     27 C          -7.7115    4.7560   -0.2836 C.ar    1  LIG1        0.0470
     28 C          -7.0554    5.9203   -0.6714 C.ar    1  LIG1       -0.0055
     29 C          -7.6894    7.1675   -0.6800 C.ar    1  LIG1        0.1436
     30 C          -9.0413    7.2055   -0.2730 C.ar    1  LIG1        0.1177
     31 N          -9.6822    6.0822    0.1117 N.ar    1  LIG1       -0.2280
     32 H          -6.0106    5.8774   -0.9566 H       1  LIG1        0.0662
     33 N          -9.8102    3.8412    0.6435 N.pl3   1  LIG1       -0.3426
     34 H         -10.7793    4.1103    0.7591 H       1  LIG1        0.1437
     35 H          -9.7033    2.9676    0.1414 H       1  LIG1        0.1437
     36 O          -6.9358    8.2457   -1.0161 O.3     1  LIG1       -0.5046
     37 H          -7.5109    8.9214   -1.4563 H       1  LIG1        0.2922
     38 C          -9.8042    9.5515   -1.0153 C.ar    1  LIG1        0.1257
     39 C          -9.8399    8.4536   -0.1297 C.ar    1  LIG1        0.0469
     40 C         -10.7239    8.5615    0.9524 C.ar    1  LIG1       -0.0061
     41 C         -11.4486    9.7317    1.1559 C.ar    1  LIG1        0.1356
     42 C         -11.2777   10.7824    0.2489 C.ar    1  LIG1        0.0711
     43 N         -10.4891   10.6798   -0.8213 N.ar    1  LIG1       -0.2364
     44 H         -10.8120    7.7159    1.6285 H       1  LIG1        0.0662
     45 H         -11.8118   11.7178    0.3952 H       1  LIG1        0.0867
     46 N          -8.9881    9.5203   -2.1811 N.pl3   1  LIG1       -0.3426
     47 H          -9.2047    8.7306   -2.7853 H       1  LIG1        0.1437
     48 H          -9.1123   10.3887   -2.6936 H       1  LIG1        0.1437
     49 O         -12.3101    9.9202    2.2000 O.3     1  LIG1       -0.5052
     50 H         -12.3202    9.1240    2.7474 H       1  LIG1        0.2922
@<TRIPOS>BOND
     1    47    46    1
     2    48    46    1
     3    10     9    1
     4    46    38    1
     5    11     9    1
     6     9     1    1
     7    25    24    1
     8    37    36    1
     9    24    17    1
    10    36    29    1
    11    38    43   ar
    12    38    39   ar
    13    32    28    1
    14    20    16    1
    15    43    42   ar
    16     6     1   ar
    17     6     5   ar
    18     1     2   ar
    19    17    16   ar
    20    17    18   ar
    21    29    28   ar
    22    29    30   ar
    23    28    27   ar
    24    16    15   ar
    25    27    18    1
    26    27    26   ar
    27    30    39    1
    28    30    31   ar
    29    18    19   ar
    30    39    40   ar
    31    15     5    1
    32    15    14   ar
    33    31    26   ar
    34    26    33    1
    35    35    33    1
    36     5     4   ar
    37    19    14   ar
    38    42    45    1
    39    42    41   ar
    40    22    21    1
    41    14    21    1
    42     2     8    1
    43     2     3   ar
    44    33    34    1
    45    21    23    1
    46    40    41   ar
    47    40    44    1
    48    41    49    1
    49     4     3   ar
    50     4    12    1
    51     3     7    1
    52    13    12    1
    53    49    50    1
