@<TRIPOS>MOLECULE
mol_data/opt/b3lyp/geoms/mol2/6hf6hf-4hf6hf.out
 51 54 0 0 0
SMALL
GASTEIGER

@<TRIPOS>ATOM
      1 C          -4.3980   -2.2770    0.0648 C.ar    1  LIG1        0.1170
      2 C          -2.9918   -2.3495    0.1581 C.ar    1  LIG1       -0.0186
      3 C          -2.2761   -1.1703    0.1194 C.ar    1  LIG1       -0.0148
      4 C          -2.9345    0.0675    0.0068 C.ar    1  LIG1        0.1429
      5 C          -4.3436    0.0472   -0.0863 C.ar    1  LIG1        0.1177
      6 N          -5.0360   -1.1169   -0.0577 N.ar    1  LIG1       -0.2287
      7 H          -1.1935   -1.1626    0.1952 H       1  LIG1        0.0656
      8 H          -2.4904   -3.3067    0.2654 H       1  LIG1        0.0653
      9 N          -5.1862   -3.4229    0.1541 N.pl3   1  LIG1       -0.3431
     10 H          -6.1294   -3.2730   -0.1787 H       1  LIG1        0.1437
     11 H          -4.7694   -4.2693   -0.2079 H       1  LIG1        0.1437
     12 O          -2.1605    1.1807    0.0621 O.3     1  LIG1       -0.5046
     13 H          -2.5801    1.9050   -0.4646 H       1  LIG1        0.2922
     14 C          -4.9113    2.4570   -0.8103 C.ar    1  LIG1        0.1264
     15 C          -5.1958    1.2648   -0.1176 C.ar    1  LIG1        0.0470
     16 C          -6.4092    1.2611    0.5790 C.ar    1  LIG1       -0.0055
     17 C          -7.2240    2.3846    0.6354 C.ar    1  LIG1        0.1435
     18 C          -6.8249    3.5641   -0.0414 C.ar    1  LIG1        0.1162
     19 N          -5.6783    3.5418   -0.7520 N.ar    1  LIG1       -0.2280
     20 H          -6.6924    0.3508    1.1007 H       1  LIG1        0.0662
     21 N          -3.7399    2.5661   -1.6103 N.pl3   1  LIG1       -0.3426
     22 H          -3.6791    1.8236   -2.3037 H       1  LIG1        0.1437
     23 H          -3.7271    3.4677   -2.0773 H       1  LIG1        0.1437
     24 O          -8.3886    2.3757    1.3577 O.3     1  LIG1       -0.5046
     25 H          -8.4536    1.5305    1.8224 H       1  LIG1        0.2922
     26 C          -6.9850    6.1039   -0.0772 C.ar    1  LIG1        0.0348
     27 C          -7.8029    7.2448   -0.0695 C.ar    1  LIG1       -0.0291
     28 C          -7.6062    4.8245   -0.0302 C.ar    1  LIG1        0.0281
     29 C          -9.2003    7.2022   -0.0336 C.ar    1  LIG1        0.0287
     30 H          -7.3236    8.2189   -0.1161 H       1  LIG1        0.0643
     31 C          -9.0113    4.7822   -0.0034 C.ar    1  LIG1       -0.0085
     32 C          -9.7945    5.9272   -0.0000 C.ar    1  LIG1        0.1254
     33 H          -9.5028    3.8162    0.0273 H       1  LIG1        0.0661
     34 N          -5.6031    6.2596   -0.0638 N.pl3   1  LIG1       -0.3574
     35 H          -5.1080    5.4924   -0.5007 H       1  LIG1        0.1423
     36 H          -5.2833    7.1729   -0.3540 H       1  LIG1        0.1423
     37 O         -11.1760    5.8474    0.0407 O.3     1  LIG1       -0.5061
     38 H         -11.4259    4.9215    0.1566 H       1  LIG1        0.2922
     39 C         -11.0137    8.8136   -0.8937 C.ar    1  LIG1        0.1242
     40 C          -9.9611    8.4802    0.0089 C.ar    1  LIG1        0.0286
     41 C          -9.5784    9.4578    0.9286 C.ar    1  LIG1       -0.0076
     42 C         -10.2021   10.7062    0.9393 C.ar    1  LIG1        0.1356
     43 C         -11.2076   10.9337    0.0045 C.ar    1  LIG1        0.0711
     44 N         -11.6073   10.0143   -0.8784 N.ar    1  LIG1       -0.2365
     45 H          -8.7941    9.2514    1.6495 H       1  LIG1        0.0662
     46 H         -11.7223   11.8961   -0.0303 H       1  LIG1        0.0867
     47 N         -11.4281    7.9436   -1.8957 N.pl3   1  LIG1       -0.3427
     48 H         -12.2619    8.2982   -2.3476 H       1  LIG1        0.1437
     49 H         -11.5281    6.9824   -1.5884 H       1  LIG1        0.1437
     50 O          -9.7970   11.6347    1.8650 O.3     1  LIG1       -0.5052
     51 H         -10.3277   12.4344    1.7534 H       1  LIG1        0.2922
@<TRIPOS>BOND
     1    48    47    1
     2    22    21    1
     3    23    21    1
     4    47    49    1
     5    47    39    1
     6    21    14    1
     7    39    44   ar
     8    39    40   ar
     9    44    43   ar
    10    14    19   ar
    11    14    15   ar
    12    19    18   ar
    13    35    34    1
    14    13    12    1
    15    36    34    1
    16    11     9    1
    17    10     9    1
    18    15     5    1
    19    15    16   ar
    20    30    27    1
    21     5     6   ar
    22     5     4   ar
    23    26    27   ar
    24    26    34    1
    25    26    28   ar
    26    27    29   ar
    27     6     1   ar
    28    18    28    1
    29    18    17   ar
    30    29    32   ar
    31    29    40    1
    32    46    43    1
    33    28    31   ar
    34    31    32   ar
    35    31    33    1
    36    32    37    1
    37    43    42   ar
    38     4    12    1
    39     4     3   ar
    40    40    41   ar
    41    37    38    1
    42     1     9    1
    43     1     2   ar
    44     3     2   ar
    45     3     7    1
    46     2     8    1
    47    16    17   ar
    48    16    20    1
    49    17    24    1
    50    41    42   ar
    51    41    45    1
    52    42    50    1
    53    24    25    1
    54    51    50    1
