@<TRIPOS>MOLECULE
mol_data/opt/b3lyp/geoms/mol2/6hg.out
 14 14 0 0 0
SMALL
GASTEIGER

@<TRIPOS>ATOM
      1 C          -4.5743   -2.0619   -0.0720 C.ar    1  LIG1        0.1162
      2 C          -3.1656   -2.0374   -0.0300 C.ar    1  LIG1       -0.0211
      3 C          -2.5212   -0.8122    0.0028 C.ar    1  LIG1       -0.0439
      4 C          -3.2771    0.3698   -0.0025 C.ar    1  LIG1        0.0230
      5 C          -4.6664    0.2358   -0.0457 C.ar    1  LIG1        0.0428
      6 N          -5.3038   -0.9378   -0.0827 N.ar    1  LIG1       -0.2396
      7 H          -1.4362   -0.7721    0.0367 H       1  LIG1        0.0630
      8 H          -2.5974   -2.9625   -0.0147 H       1  LIG1        0.0652
      9 H          -5.3042    1.1189   -0.0558 H       1  LIG1        0.0841
     10 N          -5.2791   -3.2539   -0.0527 N.pl3   1  LIG1       -0.3431
     11 H          -6.2491   -3.1531   -0.3184 H       1  LIG1        0.1437
     12 H          -4.8211   -4.0611   -0.4495 H       1  LIG1        0.1437
     13 S          -2.4349    1.9474    0.0308 S.3     1  LIG1       -0.1412
     14 H          -3.5423    2.7107    0.1098 H       1  LIG1        0.1072
@<TRIPOS>BOND
     1    12    10    1
     2    11    10    1
     3     6     1   ar
     4     6     5   ar
     5     1    10    1
     6     1     2   ar
     7     9     5    1
     8     5     4   ar
     9     2     8    1
    10     2     3   ar
    11     4     3   ar
    12     4    13    1
    13     3     7    1
    14    13    14    1
