@<TRIPOS>MOLECULE
mol_data/opt/b3lyp/geoms/mol2/6hh.out
 15 15 0 0 0
SMALL
GASTEIGER

@<TRIPOS>ATOM
      1 C          -4.5683   -2.0505   -0.0581 C.ar    1  LIG1        0.1162
      2 C          -3.1613   -2.0311   -0.0285 C.ar    1  LIG1       -0.0204
      3 C          -2.5071   -0.8090   -0.0267 C.ar    1  LIG1       -0.0363
      4 C          -3.2496    0.3829   -0.0490 C.ar    1  LIG1        0.0430
      5 C          -4.6423    0.2475   -0.0776 C.ar    1  LIG1        0.0503
      6 N          -5.2880   -0.9233   -0.0874 N.ar    1  LIG1       -0.2389
      7 H          -1.4207   -0.7722    0.0011 H       1  LIG1        0.0637
      8 H          -2.5978   -2.9590    0.0008 H       1  LIG1        0.0652
      9 H          -5.2707    1.1387   -0.0983 H       1  LIG1        0.0849
     10 N          -5.2827   -3.2485   -0.0038 N.pl3   1  LIG1       -0.3431
     11 H          -6.2503   -3.1258   -0.2736 H       1  LIG1        0.1437
     12 H          -4.8458   -4.0355   -0.4638 H       1  LIG1        0.1437
     13 N          -2.6299    1.6427    0.0199 N.pl3   1  LIG1       -0.3568
     14 H          -1.7209    1.6768   -0.4244 H       1  LIG1        0.1424
     15 H          -3.2123    2.3989   -0.3177 H       1  LIG1        0.1424
@<TRIPOS>BOND
     1    12    10    1
     2    14    13    1
     3    15    13    1
     4    11    10    1
     5     9     5    1
     6     6     5   ar
     7     6     1   ar
     8     5     4   ar
     9     1     2   ar
    10     1    10    1
    11     4     3   ar
    12     4    13    1
    13     2     3   ar
    14     2     8    1
    15     3     7    1
