@<TRIPOS>MOLECULE
mol_data/opt/b3lyp/geoms/mol2/6hh13fl-12aa6ai.out
 47 50 0 0 0
SMALL
GASTEIGER

@<TRIPOS>ATOM
      1 C          -4.4543   -2.0506    0.2006 C.ar    1  LIG1        0.1170
      2 C          -3.0552   -2.1726    0.0756 C.ar    1  LIG1       -0.0203
      3 C          -2.3321   -1.0101   -0.1404 C.ar    1  LIG1       -0.0357
      4 C          -2.9637    0.2341   -0.1810 C.ar    1  LIG1        0.0526
      5 C          -4.3603    0.2753    0.0315 C.ar    1  LIG1        0.1134
      6 N          -5.0734   -0.8695    0.1736 N.ar    1  LIG1       -0.2290
      7 H          -1.2556   -1.0635   -0.2897 H       1  LIG1        0.0638
      8 H          -2.5687   -3.1404    0.1334 H       1  LIG1        0.0652
      9 N          -5.2515   -3.1601    0.4167 N.pl3   1  LIG1       -0.3431
     10 H          -6.2381   -2.9949    0.2761 H       1  LIG1        0.1437
     11 H          -4.9178   -4.0420    0.0577 H       1  LIG1        0.1437
     12 N          -2.2267    1.4423   -0.4663 N.pl3   1  LIG1       -0.3563
     13 H          -1.2444    1.3281   -0.2303 H       1  LIG1        0.1424
     14 H          -2.2711    1.6662   -1.4605 H       1  LIG1        0.1424
     15 C          -5.1629    1.4861    0.0868 C.ar    1  LIG1        0.1131
     16 C          -4.8983    2.8605    0.2681 C.ar    1  LIG1        0.1867
     17 C          -6.1480    3.5265    0.3138 C.ar    1  LIG1        0.1904
     18 C          -7.1547    2.5623    0.1861 C.ar    1  LIG1        0.1285
     19 N          -6.5394    1.3505    0.0512 N.ar    1  LIG1       -0.3446
     20 H          -6.9765    0.4418    0.0409 H       1  LIG1        0.1663
     21 O          -3.7154    3.4931    0.4172 O.3     1  LIG1       -0.5019
     22 H          -3.0058    2.8260    0.2109 H       1  LIG1        0.2924
     23 O          -6.3954    4.8553    0.5184 O.3     1  LIG1       -0.4894
     24 C          -5.6850    5.7478   -0.3462 C.3     1  LIG1        0.0791
     25 H          -5.9967    6.7559   -0.0650 H       1  LIG1        0.0660
     26 H          -4.6042    5.6440   -0.2195 H       1  LIG1        0.0660
     27 H          -5.9472    5.5658   -1.3966 H       1  LIG1        0.0660
     28 C          -8.5778    2.7197    0.1914 C.ar    1  LIG1        0.1555
     29 C          -9.4101    3.8027    0.3556 C.ar    1  LIG1       -0.0137
     30 C         -10.7376    3.3071    0.2557 C.ar    1  LIG1       -0.0152
     31 C         -10.6549    1.9525    0.0379 C.ar    1  LIG1        0.1372
     32 O          -9.3279    1.5883   -0.0022 O.2     1  LIG1       -0.4532
     33 H          -9.0848    4.8154    0.5341 H       1  LIG1        0.0656
     34 H         -11.6471    3.8845    0.3380 H       1  LIG1        0.0656
     35 C         -11.2548   -0.4386   -0.3538 C.ar    1  LIG1        0.0382
     36 C         -11.6384    0.9019   -0.1458 C.ar    1  LIG1        0.0356
     37 C         -13.0159    1.1720   -0.1242 C.ar    1  LIG1       -0.0453
     38 C         -13.9379    0.1411   -0.3018 C.ar    1  LIG1       -0.0317
     39 C         -13.4247   -1.1475   -0.4992 C.ar    1  LIG1        0.0305
     40 N         -12.1186   -1.4388   -0.5263 N.ar    1  LIG1       -0.2623
     41 H         -13.3680    2.1887    0.0319 H       1  LIG1        0.0628
     42 H         -14.1066   -1.9850   -0.6424 H       1  LIG1        0.0832
     43 H         -10.2002   -0.6982   -0.3795 H       1  LIG1        0.0837
     44 C         -15.4245    0.3975   -0.2827 C.3     1  LIG1       -0.0383
     45 H         -15.9869   -0.5279   -0.4334 H       1  LIG1        0.0278
     46 H         -15.7192    1.0998   -1.0705 H       1  LIG1        0.0278
     47 H         -15.7430    0.8302    0.6724 H       1  LIG1        0.0278
@<TRIPOS>BOND
     1    14    12    1
     2    27    24    1
     3    46    44    1
     4    42    39    1
     5    40    39   ar
     6    40    35   ar
     7    39    38   ar
     8    12    13    1
     9    12     4    1
    10    45    44    1
    11    43    35    1
    12    35    36   ar
    13    24    26    1
    14    24    25    1
    15    24    23    1
    16    38    44    1
    17    38    37   ar
    18     7     3    1
    19    44    47    1
    20     4     3   ar
    21     4     5   ar
    22    36    37   ar
    23    36    31    1
    24     3     2   ar
    25    37    41    1
    26    32    31   ar
    27    32    28   ar
    28     5    15    1
    29     5     6   ar
    30    31    30   ar
    31    20    19    1
    32    19    15   ar
    33    19    18   ar
    34    11     9    1
    35     2     8    1
    36     2     1   ar
    37    15    16   ar
    38     6     1   ar
    39    18    28    1
    40    18    17   ar
    41    28    29   ar
    42     1     9    1
    43    22    21    1
    44    30    34    1
    45    30    29   ar
    46    16    17   ar
    47    16    21    1
    48    10     9    1
    49    17    23    1
    50    29    33    1
