@<TRIPOS>MOLECULE
mol_data/opt/b3lyp/geoms/mol2/6hh6aa-12fi13fa13ed13lh-6dd12da.out
 88 95 0 0 0
SMALL
GASTEIGER

@<TRIPOS>ATOM
      1 C          -5.1972   -2.3922   -1.1285 C.ar    1  LIG1        0.1169
      2 C          -3.9148   -2.5446   -1.6906 C.ar    1  LIG1       -0.0203
      3 C          -3.1743   -1.4039   -1.9437 C.ar    1  LIG1       -0.0357
      4 C          -3.6733   -0.1307   -1.6228 C.ar    1  LIG1        0.0511
      5 C          -4.9508   -0.0779   -1.0209 C.ar    1  LIG1        0.0951
      6 N          -5.6845   -1.1913   -0.8171 N.ar    1  LIG1       -0.2306
      7 H          -2.1903   -1.4879   -2.4001 H       1  LIG1        0.0638
      8 H          -3.5221   -3.5293   -1.9243 H       1  LIG1        0.0652
      9 N          -5.9916   -3.4888   -0.8132 N.pl3   1  LIG1       -0.3431
     10 H          -6.9527   -3.2307   -0.6355 H       1  LIG1        0.1437
     11 H          -5.9069   -4.3073   -1.4007 H       1  LIG1        0.1437
     12 N          -2.8947    1.0166   -1.8758 N.pl3   1  LIG1       -0.3563
     13 H          -2.1920    0.8584   -2.5884 H       1  LIG1        0.1424
     14 H          -3.4460    1.8339   -2.1109 H       1  LIG1        0.1424
     15 C          -7.0109    1.2909   -0.6745 C.ar    1  LIG1        0.0376
     16 C          -5.6076    1.1867   -0.6058 C.ar    1  LIG1        0.0203
     17 C          -4.9305    2.3014   -0.0808 C.ar    1  LIG1       -0.0489
     18 C          -5.6458    3.4195    0.3290 C.ar    1  LIG1       -0.0319
     19 C          -7.0473    3.4143    0.2065 C.ar    1  LIG1        0.1097
     20 N          -7.7167    2.3516   -0.2982 N.ar    1  LIG1       -0.2511
     21 H          -3.8521    2.2808    0.0362 H       1  LIG1        0.0625
     22 H          -7.5743    0.4444   -1.0578 H       1  LIG1        0.0836
     23 H          -5.1401    4.2799    0.7517 H       1  LIG1        0.0640
     24 C          -7.8519    4.5427    0.6270 C.ar    1  LIG1        0.1952
     25 C          -7.5927    5.7881    1.1590 C.ar    1  LIG1        0.1678
     26 C          -8.8330    6.4617    1.3896 C.ar    1  LIG1        0.0391
     27 C          -9.8024    5.5689    0.9747 C.ar    1  LIG1        0.1619
     28 O          -9.2155    4.4223    0.5164 O.2     1  LIG1       -0.4476
     29 O          -6.3473    6.2760    1.4159 O.3     1  LIG1       -0.5030
     30 H          -6.4324    7.1600    1.7961 H       1  LIG1        0.2923
     31 C          -8.9582    7.8359    1.9742 C.3     1  LIG1       -0.0325
     32 H         -10.0010    8.1427    2.0476 H       1  LIG1        0.0280
     33 H          -8.4367    8.5812    1.3582 H       1  LIG1        0.0280
     34 H          -8.5254    7.8816    2.9828 H       1  LIG1        0.0280
     35 C         -11.2381    5.5071    0.8965 C.ar    1  LIG1        0.1249
     36 C         -12.3019    6.3855    1.1281 C.ar    1  LIG1        0.1457
     37 C         -13.5065    5.7284    0.8058 C.ar    1  LIG1        0.0074
     38 C         -13.1754    4.4422    0.3751 C.ar    1  LIG1        0.0682
     39 N         -11.8090    4.3278    0.4520 N.ar    1  LIG1       -0.3476
     40 H         -11.2307    3.5775    0.1034 H       1  LIG1        0.1661
     41 O         -12.1478    7.6597    1.5963 O.3     1  LIG1       -0.5045
     42 H         -13.0166    8.0772    1.6469 H       1  LIG1        0.2922
     43 H         -14.5088    6.1220    0.8879 H       1  LIG1        0.0676
     44 C         -14.0059    3.3550   -0.0673 C.ar    1  LIG1        0.0803
     45 C         -15.3232    3.3345   -0.5462 C.ar    1  LIG1        0.0693
     46 C         -15.6133    1.9759   -0.9226 C.ar    1  LIG1        0.0945
     47 C         -14.4778    1.2042   -0.6685 C.ar    1  LIG1        0.0858
     48 N         -13.5346    2.0631   -0.1429 N.ar    1  LIG1       -0.3498
     49 H         -12.6141    1.7665    0.1491 H       1  LIG1        0.1661
     50 C         -16.2058    4.4323   -0.6618 C.1     1  LIG1       -0.0662
     51 C         -16.9786    5.3589   -0.7650 C.1     1  LIG1       -0.1138
     52 H         -17.6693    6.1630   -0.8718 H       1  LIG1        0.1232
     53 N         -17.8974    1.1496   -1.7939 N.1     1  LIG1       -0.1908
     54 C         -16.8591    1.5143   -1.4124 C.1     1  LIG1        0.1026
     55 C         -14.1510   -0.1907   -0.8370 C.ar    1  LIG1        0.1087
     56 C         -14.4589   -1.1319   -1.8220 C.ar    1  LIG1        0.1679
     57 C         -13.6461   -2.2750   -1.6082 C.ar    1  LIG1        0.0932
     58 C         -12.8739   -2.0442   -0.4519 C.ar    1  LIG1        0.0744
     59 N         -13.1812   -0.7489   -0.0374 N.ar    1  LIG1       -0.3485
     60 H         -12.9733   -0.4006    0.8863 H       1  LIG1        0.1661
     61 O         -15.2453   -0.9513   -2.9202 O.3     1  LIG1       -0.4911
     62 C         -16.5045   -1.6571   -2.8915 C.3     1  LIG1        0.0790
     63 H         -16.9719   -1.4717   -3.8590 H       1  LIG1        0.0660
     64 H         -16.3485   -2.7332   -2.7535 H       1  LIG1        0.0660
     65 H         -17.1496   -1.2676   -2.1013 H       1  LIG1        0.0660
     66 N         -13.6288   -3.3669   -2.4737 N.pl3   1  LIG1       -0.3535
     67 H         -14.0543   -3.1271   -3.3637 H       1  LIG1        0.1425
     68 H         -12.7076   -3.7595   -2.6310 H       1  LIG1        0.1425
     69 C         -10.9601   -2.4473    1.1879 C.ar    1  LIG1        0.1500
     70 C         -11.9034   -2.8807    0.1995 C.ar    1  LIG1        0.0373
     71 C         -11.8326   -4.2617   -0.0990 C.ar    1  LIG1       -0.0303
     72 C         -10.8600   -5.0760    0.4707 C.ar    1  LIG1        0.0814
     73 C          -9.9237   -4.5046    1.3775 C.ar    1  LIG1        0.1260
     74 N         -10.0233   -3.2258    1.7375 N.ar    1  LIG1       -0.2312
     75 H         -12.5776   -4.7093   -0.7457 H       1  LIG1        0.0638
     76 N         -10.9996    0.0190    2.0216 N.1     1  LIG1       -0.1893
     77 C         -10.9480   -1.0885    1.6661 C.1     1  LIG1        0.1198
     78 N         -10.9316   -7.6199   -0.0392 N.1     1  LIG1       -0.1908
     79 C         -10.8789   -6.4809    0.1891 C.1     1  LIG1        0.1014
     80 C          -8.8211   -5.2668    1.9700 C.ar    1  LIG1        0.1715
     81 C          -7.8398   -6.0805    1.4366 C.ar    1  LIG1        0.0989
     82 C          -6.9973   -6.4773    2.5316 C.ar    1  LIG1       -0.0058
     83 C          -7.5194   -5.8781    3.6319 C.ar    1  LIG1        0.0939
     84 O          -8.6182   -5.1400    3.3050 O.2     1  LIG1       -0.4600
     85 H          -7.2464   -5.8749    4.6751 H       1  LIG1        0.1030
     86 N          -7.4197   -6.5237   -1.0735 N.1     1  LIG1       -0.1907
     87 C          -7.6258   -6.3462    0.0584 C.1     1  LIG1        0.1030
     88 H          -6.1233   -7.1077    2.4765 H       1  LIG1        0.0662
@<TRIPOS>BOND
     1    63    62    1
     2    67    66    1
     3    61    62    1
     4    61    56    1
     5    62    64    1
     6    62    65    1
     7    68    66    1
     8    13    12    1
     9    66    57    1
    10     7     3    1
    11    14    12    1
    12     3     2   ar
    13     3     4   ar
    14     8     2    1
    15    12     4    1
    16    56    57   ar
    17    56    55   ar
    18    53    54    3
    19     2     1   ar
    20     4     5   ar
    21    57    58   ar
    22    54    46    1
    23    11     9    1
    24     1     6   ar
    25     1     9    1
    26    86    87    3
    27    22    15    1
    28     5     6   ar
    29     5    16    1
    30    46    47   ar
    31    46    45   ar
    32    52    51    1
    33    55    47    1
    34    55    59   ar
    35     9    10    1
    36    51    50    3
    37    75    71    1
    38    15    16   ar
    39    15    20   ar
    40    47    48   ar
    41    50    45    1
    42    16    17   ar
    43    45    44   ar
    44    58    59   ar
    45    58    70    1
    46    20    19   ar
    47    48    44   ar
    48    48    49    1
    49    71    70   ar
    50    71    72   ar
    51    17    21    1
    52    17    18   ar
    53    44    38    1
    54    78    79    3
    55    59    60    1
    56    87    81    1
    57    40    39    1
    58    79    72    1
    59    70    69   ar
    60    19    18   ar
    61    19    24    1
    62    18    23    1
    63    38    39   ar
    64    38    37   ar
    65    39    35   ar
    66    72    73   ar
    67    28    24   ar
    68    28    27   ar
    69    24    25   ar
    70    37    43    1
    71    37    36   ar
    72    35    27    1
    73    35    36   ar
    74    27    26   ar
    75    36    41    1
    76    25    26   ar
    77    25    29    1
    78    69    77    1
    79    69    74   ar
    80    33    31    1
    81    73    74   ar
    82    73    80    1
    83    26    31    1
    84    29    30    1
    85    81    80   ar
    86    81    82   ar
    87    41    42    1
    88    77    76    3
    89    80    84   ar
    90    31    32    1
    91    31    34    1
    92    88    82    1
    93    82    83   ar
    94    84    83   ar
    95    83    85    1
