@<TRIPOS>MOLECULE
mol_data/opt/b3lyp/geoms/mol2/6hh6hh6hh6hh.out
 54 57 0 0 0
SMALL
GASTEIGER

@<TRIPOS>ATOM
      1 C          -3.9617   -1.9451    1.1583 C.ar    1  LIG1        0.1169
      2 C          -2.8739   -2.2309    0.3133 C.ar    1  LIG1       -0.0203
      3 C          -2.6277   -1.3758   -0.7447 C.ar    1  LIG1       -0.0357
      4 C          -3.4180   -0.2326   -0.9503 C.ar    1  LIG1        0.0511
      5 C          -4.4581    0.0060   -0.0233 C.ar    1  LIG1        0.0970
      6 N          -4.7228   -0.8659    0.9754 N.ar    1  LIG1       -0.2305
      7 H          -1.8103   -1.5853   -1.4308 H       1  LIG1        0.0638
      8 H          -2.2519   -3.1041    0.4827 H       1  LIG1        0.0652
      9 N          -4.2538   -2.7489    2.2574 N.pl3   1  LIG1       -0.3431
     10 H          -5.1648   -2.5648    2.6554 H       1  LIG1        0.1437
     11 H          -4.0588   -3.7341    2.1472 H       1  LIG1        0.1437
     12 N          -3.1328    0.6291   -2.0254 N.pl3   1  LIG1       -0.3563
     13 H          -2.6656    0.1570   -2.7902 H       1  LIG1        0.1424
     14 H          -3.9460    1.1297   -2.3649 H       1  LIG1        0.1424
     15 C          -6.7332    1.1601    0.1371 C.ar    1  LIG1        0.1263
     16 C          -5.3281    1.2107   -0.0965 C.ar    1  LIG1        0.0435
     17 C          -4.7978    2.4695   -0.3814 C.ar    1  LIG1       -0.0264
     18 C          -5.5906    3.6224   -0.4472 C.ar    1  LIG1        0.0518
     19 C          -6.9721    3.4680   -0.1989 C.ar    1  LIG1        0.0970
     20 N          -7.4952    2.2531    0.0660 N.ar    1  LIG1       -0.2298
     21 H          -3.7290    2.5627   -0.5533 H       1  LIG1        0.0644
     22 N          -7.3858   -0.0338    0.3923 N.pl3   1  LIG1       -0.3426
     23 H          -8.3051    0.1071    0.7889 H       1  LIG1        0.1437
     24 H          -6.8046   -0.7035    0.8842 H       1  LIG1        0.1437
     25 N          -4.9900    4.8690   -0.7138 N.pl3   1  LIG1       -0.3563
     26 H          -4.1118    4.7778   -1.2105 H       1  LIG1        0.1424
     27 H          -5.6045    5.5112   -1.2009 H       1  LIG1        0.1424
     28 C          -9.2298    4.5074   -0.7796 C.ar    1  LIG1        0.1263
     29 C          -7.9252    4.6084   -0.2128 C.ar    1  LIG1        0.0435
     30 C          -7.5941    5.8404    0.3530 C.ar    1  LIG1       -0.0264
     31 C          -8.4793    6.9257    0.3601 C.ar    1  LIG1        0.0518
     32 C          -9.7467    6.7268   -0.2296 C.ar    1  LIG1        0.0970
     33 N         -10.0724    5.5425   -0.7864 N.ar    1  LIG1       -0.2298
     34 H          -6.6174    5.9614    0.8133 H       1  LIG1        0.0644
     35 N          -9.6643    3.3522   -1.4047 N.pl3   1  LIG1       -0.3426
     36 H         -10.6675    3.3332   -1.5280 H       1  LIG1        0.1437
     37 H          -9.2618    2.5087   -1.0105 H       1  LIG1        0.1437
     38 N          -8.0968    8.1350    0.9755 N.pl3   1  LIG1       -0.3563
     39 H          -7.0913    8.2566    0.9993 H       1  LIG1        0.1424
     40 H          -8.5406    8.9477    0.5637 H       1  LIG1        0.1424
     41 C         -11.5947    8.0078   -1.4338 C.ar    1  LIG1        0.1255
     42 C         -10.7862    7.7902   -0.2779 C.ar    1  LIG1        0.0434
     43 C         -11.0363    8.6013    0.8337 C.ar    1  LIG1       -0.0270
     44 C         -12.0134    9.6041    0.7976 C.ar    1  LIG1        0.0437
     45 C         -12.7154    9.7445   -0.4030 C.ar    1  LIG1        0.0503
     46 N         -12.5234    8.9726   -1.4749 N.ar    1  LIG1       -0.2382
     47 H         -10.4713    8.4368    1.7468 H       1  LIG1        0.0644
     48 H         -13.4847   10.5124   -0.4970 H       1  LIG1        0.0849
     49 N         -11.4192    7.2754   -2.5942 N.pl3   1  LIG1       -0.3426
     50 H         -12.1904    7.3888   -3.2378 H       1  LIG1        0.1437
     51 H         -11.1197    6.3208   -2.4311 H       1  LIG1        0.1437
     52 N         -12.3247   10.3758    1.9337 N.pl3   1  LIG1       -0.3568
     53 H         -11.5363   10.5247    2.5513 H       1  LIG1        0.1424
     54 H         -12.7626   11.2610    1.7097 H       1  LIG1        0.1424
@<TRIPOS>BOND
     1    50    49    1
     2    13    12    1
     3    49    51    1
     4    49    41    1
     5    14    12    1
     6    12     4    1
     7    36    35    1
     8    46    41   ar
     9    46    45   ar
    10    41    42   ar
    11     7     3    1
    12    35    37    1
    13    35    28    1
    14    26    25    1
    15    27    25    1
    16     4     3   ar
    17     4     5   ar
    18    33    28   ar
    19    33    32   ar
    20    28    29   ar
    21     3     2   ar
    22    25    18    1
    23    21    17    1
    24    48    45    1
    25    18    17   ar
    26    18    19   ar
    27    45    44   ar
    28    17    16   ar
    29    42    32    1
    30    42    43   ar
    31    32    31   ar
    32    29    19    1
    33    29    30   ar
    34    19    20   ar
    35    16     5    1
    36    16    15   ar
    37     5     6   ar
    38    20    15   ar
    39    15    22    1
    40     2     8    1
    41     2     1   ar
    42    30    31   ar
    43    30    34    1
    44    31    38    1
    45    22    23    1
    46    22    24    1
    47    40    38    1
    48    44    43   ar
    49    44    52    1
    50    43    47    1
    51     6     1   ar
    52    38    39    1
    53     1     9    1
    54    54    52    1
    55    52    53    1
    56    11     9    1
    57     9    10    1
