@<TRIPOS>MOLECULE
mol_data/opt/b3lyp/geoms/mol2/6hh6hh6hh.out
 41 43 0 0 0
SMALL
GASTEIGER

@<TRIPOS>ATOM
      1 C          -4.2350   -2.0298    0.8100 C.ar    1  LIG1        0.1169
      2 C          -2.9699   -2.1619    0.2095 C.ar    1  LIG1       -0.0203
      3 C          -2.5130   -1.1252   -0.5832 C.ar    1  LIG1       -0.0357
      4 C          -3.2737    0.0431   -0.7558 C.ar    1  LIG1        0.0511
      5 C          -4.5104    0.1127   -0.0748 C.ar    1  LIG1        0.0970
      6 N          -4.9703   -0.9286    0.6542 N.ar    1  LIG1       -0.2305
      7 H          -1.5501   -1.2091   -1.0818 H       1  LIG1        0.0638
      8 H          -2.3740   -3.0569    0.3578 H       1  LIG1        0.0652
      9 N          -4.7480   -3.0230    1.6412 N.pl3   1  LIG1       -0.3431
     10 H          -5.7326   -2.9062    1.8391 H       1  LIG1        0.1437
     11 H          -4.5012   -3.9719    1.3973 H       1  LIG1        0.1437
     12 N          -2.7756    1.0898   -1.5536 N.pl3   1  LIG1       -0.3563
     13 H          -2.1302    0.7658   -2.2640 H       1  LIG1        0.1424
     14 H          -3.5049    1.6555   -1.9723 H       1  LIG1        0.1424
     15 C          -6.7986    1.2368   -0.2529 C.ar    1  LIG1        0.1263
     16 C          -5.3815    1.3178   -0.1295 C.ar    1  LIG1        0.0435
     17 C          -4.8448    2.6028   -0.0381 C.ar    1  LIG1       -0.0264
     18 C          -5.6414    3.7541   -0.0757 C.ar    1  LIG1        0.0518
     19 C          -7.0354    3.5680   -0.2037 C.ar    1  LIG1        0.0970
     20 N          -7.5617    2.3304   -0.3013 N.ar    1  LIG1       -0.2298
     21 H          -3.7699    2.7165    0.0739 H       1  LIG1        0.0644
     22 N          -7.4498    0.0218   -0.3879 N.pl3   1  LIG1       -0.3426
     23 H          -8.4414    0.0960   -0.2042 H       1  LIG1        0.1437
     24 H          -6.9799   -0.7333    0.0990 H       1  LIG1        0.1437
     25 N          -5.0425    5.0230    0.0527 N.pl3   1  LIG1       -0.3563
     26 H          -4.0739    5.0277   -0.2443 H       1  LIG1        0.1424
     27 H          -5.5600    5.7567   -0.4173 H       1  LIG1        0.1424
     28 C          -9.1127    4.7232   -1.1287 C.ar    1  LIG1        0.1255
     29 C          -7.9975    4.7024   -0.2387 C.ar    1  LIG1        0.0434
     30 C          -7.8633    5.7845    0.6375 C.ar    1  LIG1       -0.0270
     31 C          -8.7661    6.8550    0.6147 C.ar    1  LIG1        0.0437
     32 C          -9.7969    6.7781   -0.3266 C.ar    1  LIG1        0.0503
     33 N          -9.9722    5.7505   -1.1601 N.ar    1  LIG1       -0.2382
     34 H          -7.0516    5.7838    1.3595 H       1  LIG1        0.0644
     35 H         -10.5287    7.5839   -0.3991 H       1  LIG1        0.0849
     36 N          -9.3296    3.7130   -2.0489 N.pl3   1  LIG1       -0.3426
     37 H         -10.2559    3.7558   -2.4514 H       1  LIG1        0.1437
     38 H          -9.0332    2.7990   -1.7262 H       1  LIG1        0.1437
     39 N          -8.6852    7.9121    1.5411 N.pl3   1  LIG1       -0.3568
     40 H          -7.7409    8.1144    1.8453 H       1  LIG1        0.1424
     41 H          -9.1378    8.7603    1.2232 H       1  LIG1        0.1424
@<TRIPOS>BOND
     1    37    36    1
     2    13    12    1
     3    36    38    1
     4    36    28    1
     5    14    12    1
     6    12     4    1
     7    33    28   ar
     8    33    32   ar
     9    28    29   ar
    10     7     3    1
    11     4     3   ar
    12     4     5   ar
    13     3     2   ar
    14    27    25    1
    15    35    32    1
    16    22    15    1
    17    22    23    1
    18    22    24    1
    19    32    31   ar
    20    20    15   ar
    21    20    19   ar
    22    15    16   ar
    23    26    25    1
    24    29    19    1
    25    29    30   ar
    26    19    18   ar
    27    16     5    1
    28    16    17   ar
    29    18    17   ar
    30    18    25    1
    31     5     6   ar
    32    17    21    1
    33     2     8    1
    34     2     1   ar
    35    31    30   ar
    36    31    39    1
    37    30    34    1
    38     6     1   ar
    39     1     9    1
    40    41    39    1
    41    11     9    1
    42    39    40    1
    43     9    10    1
