@<TRIPOS>MOLECULE
mol_data/opt/b3lyp/geoms/mol2/6hh6hh.out
 28 29 0 0 0
SMALL
GASTEIGER

@<TRIPOS>ATOM
      1 C          -4.4419   -2.0686    0.3856 C.ar    1  LIG1        0.1169
      2 C          -3.0611   -2.0899    0.1199 C.ar    1  LIG1       -0.0203
      3 C          -2.4609   -0.9194   -0.3069 C.ar    1  LIG1       -0.0357
      4 C          -3.2021    0.2662   -0.4391 C.ar    1  LIG1        0.0511
      5 C          -4.5748    0.2083   -0.1069 C.ar    1  LIG1        0.0970
      6 N          -5.1603   -0.9522    0.2616 N.ar    1  LIG1       -0.2305
      7 H          -1.3992   -0.9102   -0.5431 H       1  LIG1        0.0638
      8 H          -2.4851   -3.0022    0.2393 H       1  LIG1        0.0652
      9 N          -5.1080   -3.2035    0.8457 N.pl3   1  LIG1       -0.3431
     10 H          -6.1143   -3.1173    0.7963 H       1  LIG1        0.1437
     11 H          -4.7685   -4.0855    0.4879 H       1  LIG1        0.1437
     12 N          -2.5619    1.4478   -0.8562 N.pl3   1  LIG1       -0.3563
     13 H          -1.7546    1.2691   -1.4414 H       1  LIG1        0.1424
     14 H          -3.1889    2.1031   -1.3080 H       1  LIG1        0.1424
     15 C          -6.7745    1.3635   -0.6964 C.ar    1  LIG1        0.1255
     16 C          -5.4539    1.4093   -0.1607 C.ar    1  LIG1        0.0434
     17 C          -5.0187    2.6353    0.3524 C.ar    1  LIG1       -0.0270
     18 C          -5.8339    3.7735    0.3069 C.ar    1  LIG1        0.0437
     19 C          -7.0937    3.6118   -0.2777 C.ar    1  LIG1        0.0503
     20 N          -7.5529    2.4519   -0.7520 N.ar    1  LIG1       -0.2382
     21 H          -4.0341    2.6999    0.8072 H       1  LIG1        0.0644
     22 H          -7.7726    4.4624   -0.3513 H       1  LIG1        0.0849
     23 N          -7.2993    0.2042   -1.2435 N.pl3   1  LIG1       -0.3426
     24 H          -8.2995    0.2680   -1.3767 H       1  LIG1        0.1437
     25 H          -6.9751   -0.6385   -0.7839 H       1  LIG1        0.1437
     26 N          -5.4361    4.9922    0.8872 N.pl3   1  LIG1       -0.3568
     27 H          -4.4356    5.1455    0.8682 H       1  LIG1        0.1424
     28 H          -5.9201    5.7965    0.5076 H       1  LIG1        0.1424
@<TRIPOS>BOND
     1    13    12    1
     2    24    23    1
     3    14    12    1
     4    23    25    1
     5    23    15    1
     6    12     4    1
     7    20    15   ar
     8    20    19   ar
     9    15    16   ar
    10     7     3    1
    11     4     3   ar
    12     4     5   ar
    13    22    19    1
    14     3     2   ar
    15    19    18   ar
    16    16     5    1
    17    16    17   ar
    18     5     6   ar
    19     2     8    1
    20     2     1   ar
    21     6     1   ar
    22    18    17   ar
    23    18    26    1
    24    17    21    1
    25     1     9    1
    26    11     9    1
    27    28    26    1
    28    10     9    1
    29    27    26    1
