@<TRIPOS>MOLECULE
mol_data/opt/b3lyp/geoms/mol2/6hh6hf-13df4fd-13hi-4ha-4ef-.out
 87 93 0 0 0
SMALL
GASTEIGER

@<TRIPOS>ATOM
      1 C          -4.6777   -2.1121    0.8716 C.ar    1  LIG1        0.1169
      2 C          -3.6738   -2.5334   -0.0201 C.ar    1  LIG1       -0.0203
      3 C          -3.2788   -1.6625   -1.0168 C.ar    1  LIG1       -0.0357
      4 C          -3.8363   -0.3752   -1.1203 C.ar    1  LIG1        0.0511
      5 C          -4.8065   -0.0176   -0.1551 C.ar    1  LIG1        0.0970
      6 N          -5.2210   -0.8990    0.7846 N.ar    1  LIG1       -0.2305
      7 H          -2.5211   -1.9688   -1.7341 H       1  LIG1        0.0638
      8 H          -3.2284   -3.5192    0.0692 H       1  LIG1        0.0652
      9 N          -5.1022   -2.9281    1.9174 N.pl3   1  LIG1       -0.3431
     10 H          -5.9563   -2.6088    2.3539 H       1  LIG1        0.1437
     11 H          -5.0979   -3.9210    1.7307 H       1  LIG1        0.1437
     12 N          -3.3907    0.4901   -2.1285 N.pl3   1  LIG1       -0.3563
     13 H          -3.0130    0.0079   -2.9342 H       1  LIG1        0.1424
     14 H          -4.0645    1.1921   -2.4076 H       1  LIG1        0.1424
     15 C          -6.8211    1.5287    0.1993 C.ar    1  LIG1        0.1264
     16 C          -5.4375    1.3285   -0.1216 C.ar    1  LIG1        0.0452
     17 C          -4.7014    2.4811   -0.3692 C.ar    1  LIG1       -0.0055
     18 C          -5.2693    3.7648   -0.3547 C.ar    1  LIG1        0.1449
     19 C          -6.6405    3.8587   -0.0602 C.ar    1  LIG1        0.1318
     20 N          -7.3623    2.7410    0.2174 N.ar    1  LIG1       -0.2266
     21 H          -3.6397    2.4219   -0.5821 H       1  LIG1        0.0662
     22 N          -7.6604    0.4636    0.4492 N.pl3   1  LIG1       -0.3426
     23 H          -8.5337    0.7343    0.8788 H       1  LIG1        0.1437
     24 H          -7.1866   -0.3334    0.8602 H       1  LIG1        0.1437
     25 O          -4.4180    4.7682   -0.6952 O.3     1  LIG1       -0.5045
     26 H          -4.7063    5.6481   -0.4070 H       1  LIG1        0.2922
     27 C          -7.4695    5.0712   -0.0461 C.ar    1  LIG1        0.0903
     28 C          -7.2652    6.4679   -0.0388 C.ar    1  LIG1        0.1205
     29 C          -8.5478    7.0920    0.0317 C.ar    1  LIG1        0.1602
     30 C          -9.5159    6.0858    0.0700 C.ar    1  LIG1        0.0938
     31 N          -8.8142    4.8910    0.0133 N.ar    1  LIG1       -0.3488
     32 H          -9.1673    3.9511    0.1475 H       1  LIG1        0.1661
     33 N          -5.0267    7.7470    0.0028 N.1     1  LIG1       -0.1907
     34 C          -6.0461    7.1778   -0.0237 C.1     1  LIG1        0.1050
     35 O          -8.6925    8.4311    0.0044 O.3     1  LIG1       -0.5034
     36 H          -9.5618    8.6439    0.3895 H       1  LIG1        0.2923
     37 C         -11.7582    7.1404    0.6100 C.ar    1  LIG1        0.1268
     38 C         -13.1436    7.1210    0.5850 C.ar    1  LIG1       -0.0091
     39 C         -10.9738    6.1007    0.0550 C.ar    1  LIG1        0.0446
     40 C         -13.8786    6.0540    0.0252 C.ar    1  LIG1        0.0209
     41 H         -13.6875    7.9253    1.0717 H       1  LIG1        0.0661
     42 C         -11.6974    5.0369   -0.4970 C.ar    1  LIG1       -0.0310
     43 C         -13.0996    4.9891   -0.5161 C.ar    1  LIG1        0.0618
     44 H         -11.1591    4.2181   -0.9620 H       1  LIG1        0.0638
     45 O         -11.0923    8.1783    1.2219 O.3     1  LIG1       -0.5061
     46 H         -11.7302    8.7938    1.6082 H       1  LIG1        0.2922
     47 N         -14.1898    2.8978   -1.5981 N.1     1  LIG1       -0.1908
     48 C         -13.6995    3.8422   -1.1215 C.1     1  LIG1        0.0998
     49 C         -15.3281    6.0962    0.0515 C.ar    1  LIG1        0.0695
     50 C         -16.1936    7.1909    0.2161 C.ar    1  LIG1        0.0538
     51 C         -17.5318    6.7142    0.2340 C.ar    1  LIG1       -0.0039
     52 C         -17.4692    5.3276    0.0657 C.ar    1  LIG1        0.0534
     53 N         -16.1492    4.9782   -0.0366 N.ar    1  LIG1       -0.3524
     54 H         -15.8408    4.0503   -0.2868 H       1  LIG1        0.1660
     55 N         -15.8236    8.5395    0.3866 N.pl3   1  LIG1       -0.3561
     56 H         -15.1318    8.8454   -0.2909 H       1  LIG1        0.1424
     57 H         -16.6282    9.1540    0.3330 H       1  LIG1        0.1424
     58 C         -18.7443    7.5576    0.5039 C.3     1  LIG1       -0.0359
     59 H         -19.6619    6.9768    0.4059 H       1  LIG1        0.0279
     60 H         -18.8235    8.3997   -0.1977 H       1  LIG1        0.0279
     61 H         -18.7192    7.9822    1.5155 H       1  LIG1        0.0279
     62 C         -19.6234    4.3555   -0.8381 C.ar    1  LIG1        0.0343
     63 C         -20.5677    3.3182   -0.8308 C.ar    1  LIG1       -0.0326
     64 C         -18.5125    4.2875    0.0407 C.ar    1  LIG1        0.0193
     65 C         -20.4360    2.2063    0.0051 C.ar    1  LIG1       -0.0148
     66 H         -21.4111    3.3778   -1.5110 H       1  LIG1        0.0642
     67 C         -18.3884    3.1608    0.8695 C.ar    1  LIG1       -0.0503
     68 C         -19.3216    2.1322    0.8584 C.ar    1  LIG1       -0.0533
     69 H         -17.5456    3.1126    1.5531 H       1  LIG1        0.0625
     70 N         -19.8012    5.4436   -1.6918 N.pl3   1  LIG1       -0.3574
     71 H         -18.9511    5.9421   -1.9223 H       1  LIG1        0.1423
     72 H         -20.3733    5.2545   -2.5034 H       1  LIG1        0.1423
     73 H         -19.2112    1.2904    1.5337 H       1  LIG1        0.0624
     74 C         -22.8243    1.2969    0.0068 C.ar    1  LIG1        0.0326
     75 C         -23.6768    0.1740   -0.0340 C.ar    1  LIG1       -0.0423
     76 C         -21.4208    1.0920   -0.0340 C.ar    1  LIG1        0.0010
     77 C         -23.1835   -1.1187   -0.1119 C.ar    1  LIG1       -0.0190
     78 H         -24.7484    0.3390    0.0052 H       1  LIG1        0.0631
     79 C         -20.9369   -0.2212   -0.1082 C.ar    1  LIG1       -0.0113
     80 C         -21.7992   -1.3183   -0.1480 C.ar    1  LIG1        0.1175
     81 H         -19.8626   -0.3803   -0.1616 H       1  LIG1        0.0660
     82 H         -23.8457   -1.9768   -0.1455 H       1  LIG1        0.0654
     83 C         -23.4196    2.5908    0.1313 C.1     1  LIG1       -0.0690
     84 C         -23.9850    3.6559    0.2421 C.1     1  LIG1       -0.1139
     85 H         -24.4618    4.6023    0.3484 H       1  LIG1        0.1232
     86 O         -21.3494   -2.6029   -0.2317 O.3     1  LIG1       -0.5067
     87 H         -20.3831   -2.6008   -0.2545 H       1  LIG1        0.2921
@<TRIPOS>BOND
     1    13    12    1
     2    72    70    1
     3    14    12    1
     4    12     4    1
     5    71    70    1
     6     7     3    1
     7    70    62    1
     8    47    48    3
     9    66    63    1
    10    48    43    1
    11     4     3   ar
    12     4     5   ar
    13     3     2   ar
    14    44    42    1
    15    62    63   ar
    16    62    64   ar
    17    63    65   ar
    18    25    26    1
    19    25    18    1
    20    21    17    1
    21    43    42   ar
    22    43    40   ar
    23    42    39   ar
    24    17    18   ar
    25    17    16   ar
    26    18    19   ar
    27    56    55    1
    28    54    53    1
    29    87    86    1
    30    86    80    1
    31    60    58    1
    32    81    79    1
    33     5    16    1
    34     5     6   ar
    35    80    77   ar
    36    80    79   ar
    37    82    77    1
    38    16    15   ar
    39    77    75   ar
    40    79    76   ar
    41    19    27    1
    42    19    20   ar
    43    27    28   ar
    44    27    31   ar
    45    28    34    1
    46    28    29   ar
    47    53    49   ar
    48    53    52   ar
    49    75    78    1
    50    75    74   ar
    51    76    65    1
    52    76    74   ar
    53    34    33    3
    54     2     8    1
    55     2     1   ar
    56    35    29    1
    57    35    36    1
    58    65    68   ar
    59    74    83    1
    60    31    30   ar
    61    31    32    1
    62    40    49    1
    63    40    38   ar
    64    29    30   ar
    65    64    52    1
    66    64    67   ar
    67    49    50   ar
    68    39    30    1
    69    39    37   ar
    70    52    51   ar
    71    83    84    3
    72    15    20   ar
    73    15    22    1
    74    50    51   ar
    75    50    55    1
    76    51    58    1
    77    84    85    1
    78    57    55    1
    79    59    58    1
    80    22    24    1
    81    22    23    1
    82    58    61    1
    83    38    37   ar
    84    38    41    1
    85    37    45    1
    86     6     1   ar
    87    68    67   ar
    88    68    73    1
    89    67    69    1
    90     1     9    1
    91    45    46    1
    92    11     9    1
    93     9    10    1
