@<TRIPOS>MOLECULE
mol_data/opt/b3lyp/geoms/mol2/6hi13ed6ha12dl.out
 50 53 0 0 0
SMALL
GASTEIGER

@<TRIPOS>ATOM
      1 C          -4.5102   -2.0763   -0.3322 C.ar    1  LIG1        0.1169
      2 C          -3.2432   -2.2738    0.2534 C.ar    1  LIG1       -0.0218
      3 C          -2.5892   -1.1691    0.7650 C.ar    1  LIG1       -0.0535
      4 C          -3.1425    0.1210    0.6891 C.ar    1  LIG1       -0.0229
      5 C          -4.3808    0.2147    0.0285 C.ar    1  LIG1        0.0933
      6 N          -5.0526   -0.8627   -0.4440 N.ar    1  LIG1       -0.2307
      7 H          -1.6302   -1.2988    1.2603 H       1  LIG1        0.0622
      8 H          -2.8139   -3.2681    0.3270 H       1  LIG1        0.0652
      9 N          -5.2727   -3.1422   -0.7764 N.pl3   1  LIG1       -0.3431
     10 H          -6.0250   -2.8803   -1.3976 H       1  LIG1        0.1437
     11 H          -4.7745   -3.9750   -1.0534 H       1  LIG1        0.1437
     12 C          -2.4384    1.2754    1.3563 C.3     1  LIG1       -0.0376
     13 H          -3.1487    2.0020    1.7591 H       1  LIG1        0.0278
     14 H          -1.7883    1.8209    0.6664 H       1  LIG1        0.0278
     15 H          -1.8218    0.9101    2.1831 H       1  LIG1        0.0278
     16 C          -5.1291    1.4691   -0.1634 C.ar    1  LIG1        0.0826
     17 C          -4.7930    2.7873   -0.4918 C.ar    1  LIG1        0.0694
     18 C          -6.0317    3.5158   -0.5963 C.ar    1  LIG1        0.0931
     19 C          -7.0837    2.6239   -0.3488 C.ar    1  LIG1        0.0691
     20 N          -6.4987    1.4103   -0.1076 N.ar    1  LIG1       -0.3509
     21 H          -7.0013    0.5511    0.0798 H       1  LIG1        0.1660
     22 C          -3.5270    3.3321   -0.8163 C.1     1  LIG1       -0.0662
     23 C          -2.4762    3.8447   -1.1294 C.1     1  LIG1       -0.1138
     24 H          -1.5552    4.2992   -1.4128 H       1  LIG1        0.1232
     25 N          -6.2409    6.0112   -1.2250 N.1     1  LIG1       -0.1908
     26 C          -6.1462    4.8843   -0.9444 C.1     1  LIG1        0.1025
     27 C          -9.4643    1.7918   -0.5659 C.ar    1  LIG1        0.1261
     28 C          -8.5286    2.8315   -0.2884 C.ar    1  LIG1        0.0391
     29 C          -9.0723    4.0688    0.0791 C.ar    1  LIG1       -0.0472
     30 C         -10.4461    4.2363    0.2031 C.ar    1  LIG1       -0.0319
     31 C         -11.2709    3.1288   -0.0349 C.ar    1  LIG1        0.1095
     32 N         -10.7779    1.9397   -0.4291 N.ar    1  LIG1       -0.2286
     33 H          -8.4131    4.9032    0.2883 H       1  LIG1        0.0626
     34 N          -9.0398    0.5191   -0.9602 N.pl3   1  LIG1       -0.3426
     35 H          -9.8340   -0.0517   -1.2265 H       1  LIG1        0.1437
     36 H          -8.3103    0.5097   -1.6647 H       1  LIG1        0.1437
     37 H         -10.8530    5.1956    0.4954 H       1  LIG1        0.0640
     38 C         -12.7231    3.1976    0.1149 C.ar    1  LIG1        0.1740
     39 C         -13.6000    4.1851    0.5458 C.ar    1  LIG1        0.1404
     40 C         -14.9267    3.6136    0.4554 C.ar    1  LIG1        0.1757
     41 C         -14.7572    2.3467   -0.0166 C.ar    1  LIG1        0.1355
     42 O         -13.4325    2.0917   -0.2144 O.2     1  LIG1       -0.4563
     43 H         -15.4464    1.5465   -0.2294 H       1  LIG1        0.1068
     44 N         -13.0475    6.5459    1.4306 N.1     1  LIG1       -0.1906
     45 C         -13.2836    5.4773    1.0304 C.1     1  LIG1        0.1067
     46 O         -16.1073    4.1583    0.8323 O.3     1  LIG1       -0.4907
     47 C         -16.4677    5.3916    0.1905 C.3     1  LIG1        0.0790
     48 H         -17.4509    5.6540    0.5825 H       1  LIG1        0.0660
     49 H         -15.7591    6.1910    0.4256 H       1  LIG1        0.0660
     50 H         -16.5277    5.2594   -0.8960 H       1  LIG1        0.0660
@<TRIPOS>BOND
     1    36    34    1
     2    24    23    1
     3    10     9    1
     4    35    34    1
     5    25    26    3
     6    23    22    3
     7    11     9    1
     8    34    27    1
     9    26    18    1
    10    50    47    1
    11    22    17    1
    12     9     1    1
    13    18    17   ar
    14    18    19   ar
    15    27    32   ar
    16    27    28   ar
    17    17    16   ar
    18     6     1   ar
    19     6     5   ar
    20    32    31   ar
    21    19    28    1
    22    19    20   ar
    23     1     2   ar
    24    28    29   ar
    25    43    41    1
    26    42    41   ar
    27    42    38   ar
    28    16    20   ar
    29    16     5    1
    30    20    21    1
    31    31    38    1
    32    31    30   ar
    33    41    40   ar
    34     5     4   ar
    35    29    30   ar
    36    29    33    1
    37    38    39   ar
    38    47    49    1
    39    47    48    1
    40    47    46    1
    41    30    37    1
    42     2     8    1
    43     2     3   ar
    44    40    39   ar
    45    40    46    1
    46    39    45    1
    47    14    12    1
    48     4     3   ar
    49     4    12    1
    50     3     7    1
    51    45    44    3
    52    12    13    1
    53    12    15    1
