@<TRIPOS>MOLECULE
mol_data/opt/b3lyp/geoms/mol2/6hi12ed-13fe-4ia-.out
 50 53 0 0 0
SMALL
GASTEIGER

@<TRIPOS>ATOM
      1 C          -4.4660   -1.9725   -0.6678 C.ar    1  LIG1        0.1169
      2 C          -3.3106   -2.1648    0.1178 C.ar    1  LIG1       -0.0218
      3 C          -2.8500   -1.0974    0.8657 C.ar    1  LIG1       -0.0535
      4 C          -3.4967    0.1502    0.8427 C.ar    1  LIG1       -0.0213
      5 C          -4.6164    0.2387   -0.0053 C.ar    1  LIG1        0.1122
      6 N          -5.0939   -0.7977   -0.7271 N.ar    1  LIG1       -0.2290
      7 H          -1.9790   -1.2268    1.5031 H       1  LIG1        0.0622
      8 H          -2.8149   -3.1302    0.1497 H       1  LIG1        0.0652
      9 N          -5.0322   -3.0142   -1.3846 N.pl3   1  LIG1       -0.3431
     10 H          -5.6848   -2.7073   -2.0928 H       1  LIG1        0.1437
     11 H          -4.4072   -3.7465   -1.6884 H       1  LIG1        0.1437
     12 C          -3.0108    1.2693    1.7291 C.3     1  LIG1       -0.0376
     13 H          -3.8400    1.8751    2.1046 H       1  LIG1        0.0278
     14 H          -2.3371    1.9513    1.2010 H       1  LIG1        0.0278
     15 H          -2.4709    0.8629    2.5895 H       1  LIG1        0.0278
     16 C          -5.3985    1.4739   -0.1635 C.ar    1  LIG1        0.1708
     17 C          -5.1025    2.7967   -0.4022 C.ar    1  LIG1        0.0900
     18 C          -6.3742    3.4891   -0.5382 C.ar    1  LIG1        0.1150
     19 C          -7.3574    2.5273   -0.3790 C.ar    1  LIG1        0.1740
     20 O          -6.7635    1.3188   -0.1610 O.2     1  LIG1       -0.4491
     21 C          -3.8337    3.3955   -0.5918 C.1     1  LIG1       -0.0645
     22 C          -2.7708    3.9426   -0.7769 C.1     1  LIG1       -0.1138
     23 H          -1.8401    4.4307   -0.9523 H       1  LIG1        0.1232
     24 N          -6.5354    6.0082   -1.0679 N.1     1  LIG1       -0.1907
     25 C          -6.5021    4.8699   -0.8254 C.1     1  LIG1        0.1043
     26 C          -8.7867    2.4904   -0.3843 C.ar    1  LIG1        0.1271
     27 C          -9.7737    3.4693   -0.4362 C.ar    1  LIG1        0.1611
     28 C         -11.0471    2.8266   -0.3691 C.ar    1  LIG1        0.0920
     29 C         -10.8093    1.4438   -0.2711 C.ar    1  LIG1        0.0665
     30 N          -9.4578    1.2734   -0.2951 N.ar    1  LIG1       -0.3478
     31 H          -8.9863    0.3896   -0.1748 H       1  LIG1        0.1661
     32 O          -9.5480    4.7927   -0.5376 O.3     1  LIG1       -0.5034
     33 H         -10.4041    5.2465   -0.5794 H       1  LIG1        0.2923
     34 C         -12.2645    3.5365   -0.4916 C.1     1  LIG1       -0.0638
     35 C         -13.2502    4.2344   -0.6036 C.1     1  LIG1       -0.1137
     36 H         -14.1343    4.8171   -0.7222 H       1  LIG1        0.1232
     37 C         -12.7646    0.1639    0.7069 C.ar    1  LIG1       -0.0413
     38 C         -13.5592   -0.9885    0.6642 C.ar    1  LIG1       -0.0582
     39 C         -11.7144    0.2825   -0.2347 C.ar    1  LIG1        0.0025
     40 C         -13.3352   -2.0072   -0.2606 C.ar    1  LIG1       -0.0615
     41 H         -14.3640   -1.0917    1.3872 H       1  LIG1        0.0620
     42 C         -11.4876   -0.7559   -1.1566 C.ar    1  LIG1       -0.0523
     43 C         -12.2880   -1.8942   -1.1740 C.ar    1  LIG1       -0.0611
     44 H         -10.6877   -0.6469   -1.8835 H       1  LIG1        0.0624
     45 H         -13.9718   -2.8871   -0.2616 H       1  LIG1        0.0618
     46 C         -13.0248    1.2085    1.7654 C.3     1  LIG1       -0.0391
     47 H         -13.6545    0.8000    2.5602 H       1  LIG1        0.0278
     48 H         -13.5308    2.0864    1.3515 H       1  LIG1        0.0278
     49 H         -12.0934    1.5647    2.2158 H       1  LIG1        0.0278
     50 H         -12.1003   -2.6793   -1.9000 H       1  LIG1        0.0618
@<TRIPOS>BOND
     1    10     9    1
     2    50    43    1
     3    44    42    1
     4    11     9    1
     5     9     1    1
     6    43    42   ar
     7    43    40   ar
     8    42    39   ar
     9    24    25    3
    10    23    22    1
    11    25    18    1
    12    22    21    3
    13     6     1   ar
    14     6     5   ar
    15    36    35    1
    16     1     2   ar
    17    35    34    3
    18    21    17    1
    19    33    32    1
    20    18    17   ar
    21    18    19   ar
    22    32    27    1
    23    34    28    1
    24    27    26   ar
    25    27    28   ar
    26    17    16   ar
    27    26    19    1
    28    26    30   ar
    29    19    20   ar
    30    28    29   ar
    31    30    29   ar
    32    30    31    1
    33    29    39    1
    34    45    40    1
    35    40    38   ar
    36    39    37   ar
    37    16    20   ar
    38    16     5    1
    39     5     4   ar
    40     2     8    1
    41     2     3   ar
    42    38    37   ar
    43    38    41    1
    44    37    46    1
    45     4     3   ar
    46     4    12    1
    47     3     7    1
    48    14    12    1
    49    48    46    1
    50    12    13    1
    51    12    15    1
    52    46    49    1
    53    46    47    1
