@<TRIPOS>MOLECULE
mol_data/opt/b3lyp/geoms/mol2/6hi12ei-12fe13hd.out
 49 52 0 0 0
SMALL
GASTEIGER

@<TRIPOS>ATOM
      1 C          -4.2211   -1.7840   -1.4641 C.ar    1  LIG1        0.1169
      2 C          -3.0567   -2.0804   -0.7271 C.ar    1  LIG1       -0.0218
      3 C          -2.6615   -1.1812    0.2464 C.ar    1  LIG1       -0.0535
      4 C          -3.3825   -0.0012    0.4937 C.ar    1  LIG1       -0.0213
      5 C          -4.5070    0.2118   -0.3273 C.ar    1  LIG1        0.1122
      6 N          -4.9173   -0.6639   -1.2692 N.ar    1  LIG1       -0.2290
      7 H          -1.7845   -1.3986    0.8510 H       1  LIG1        0.0622
      8 H          -2.5043   -2.9983   -0.9041 H       1  LIG1        0.0652
      9 N          -4.7283   -2.6709   -2.4025 N.pl3   1  LIG1       -0.3431
     10 H          -5.4005   -2.2459   -3.0270 H       1  LIG1        0.1437
     11 H          -4.0580   -3.2674   -2.8658 H       1  LIG1        0.1437
     12 C          -2.9651    0.9156    1.6163 C.3     1  LIG1       -0.0376
     13 H          -3.8305    1.3652    2.1110 H       1  LIG1        0.0278
     14 H          -2.3399    1.7419    1.2638 H       1  LIG1        0.0278
     15 H          -2.3956    0.3594    2.3671 H       1  LIG1        0.0278
     16 C          -5.3619    1.4046   -0.2144 C.ar    1  LIG1        0.1698
     17 C          -5.1354    2.7669   -0.1418 C.ar    1  LIG1        0.0755
     18 C          -6.4275    3.4146   -0.1111 C.ar    1  LIG1        0.0146
     19 C          -7.3451    2.3951   -0.1931 C.ar    1  LIG1        0.1785
     20 O          -6.7043    1.1821   -0.2600 O.2     1  LIG1       -0.4485
     21 C          -3.8969    3.4562   -0.1805 C.1     1  LIG1       -0.0655
     22 C          -2.8684    4.0937   -0.2279 C.1     1  LIG1       -0.1138
     23 H          -1.9584    4.6448   -0.2816 H       1  LIG1        0.1232
     24 C          -6.6391    4.8907    0.0154 C.3     1  LIG1       -0.0348
     25 H          -7.6874    5.1628   -0.1037 H       1  LIG1        0.0279
     26 H          -6.0558    5.4282   -0.7401 H       1  LIG1        0.0279
     27 H          -6.2950    5.2484    0.9932 H       1  LIG1        0.0279
     28 C          -8.7826    2.3174   -0.2175 C.ar    1  LIG1        0.2133
     29 C          -9.8156    3.1651   -0.5214 C.ar    1  LIG1        0.1822
     30 C         -11.0501    2.4355   -0.3717 C.ar    1  LIG1        0.1140
     31 C         -10.6863    1.1514    0.0172 C.ar    1  LIG1        0.1727
     32 O          -9.3315    1.0851    0.1148 O.2     1  LIG1       -0.4451
     33 O          -9.7151    4.4549   -0.9225 O.3     1  LIG1       -0.5023
     34 H         -10.6107    4.7878   -1.0866 H       1  LIG1        0.2923
     35 C         -12.3067    2.9992   -0.6833 C.1     1  LIG1       -0.0621
     36 C         -13.3284    3.5848   -0.9820 C.1     1  LIG1       -0.1137
     37 H         -14.2366    4.0724   -1.2528 H       1  LIG1        0.1232
     38 C         -11.3658   -0.0711    0.3113 C.ar    1  LIG1        0.1057
     39 C         -12.7064   -0.4099    0.5338 C.ar    1  LIG1        0.0709
     40 C         -12.7313   -1.8224    0.7973 C.ar    1  LIG1        0.0903
     41 C         -11.4201   -2.2898    0.7408 C.ar    1  LIG1        0.0216
     42 N         -10.6194   -1.2445    0.4546 N.ar    1  LIG1       -0.3556
     43 H          -9.6167   -1.2694    0.3466 H       1  LIG1        0.1655
     44 H         -11.0390   -3.2893    0.8812 H       1  LIG1        0.0820
     45 N         -13.8061    0.4121    0.5957 N.pl3   1  LIG1       -0.3552
     46 H         -13.7600    1.2946    0.1051 H       1  LIG1        0.1424
     47 H         -14.7002   -0.0541    0.5327 H       1  LIG1        0.1424
     48 N         -14.8958   -3.1480    1.2617 N.1     1  LIG1       -0.1908
     49 C         -13.9010   -2.5748    1.0597 C.1     1  LIG1        0.1025
@<TRIPOS>BOND
     1    10     9    1
     2    11     9    1
     3     9     1    1
     4     1     6   ar
     5     1     2   ar
     6     6     5   ar
     7    37    36    1
     8    34    33    1
     9    36    35    3
    10    33    29    1
    11     8     2    1
    12    26    24    1
    13     2     3   ar
    14    35    30    1
    15    29    30   ar
    16    29    28   ar
    17    30    31   ar
    18     5    16    1
    19     5     4   ar
    20    23    22    1
    21    20    16   ar
    22    20    19   ar
    23    22    21    3
    24    28    19    1
    25    28    32   ar
    26    16    17   ar
    27    19    18   ar
    28    21    17    1
    29    17    18   ar
    30    18    24    1
    31    25    24    1
    32    24    27    1
    33    31    32   ar
    34    31    38    1
    35    46    45    1
    36     3     4   ar
    37     3     7    1
    38    38    42   ar
    39    38    39   ar
    40    43    42    1
    41    42    41   ar
    42     4    12    1
    43    47    45    1
    44    39    45    1
    45    39    40   ar
    46    41    40   ar
    47    41    44    1
    48    40    49    1
    49    49    48    3
    50    14    12    1
    51    12    13    1
    52    12    15    1
