@<TRIPOS>MOLECULE
mol_data/opt/b3lyp/geoms/mol2/6hi13hl-12al6ii.out
 56 59 0 0 0
SMALL
GASTEIGER

@<TRIPOS>ATOM
      1 C          -4.2847   -2.0473   -0.7346 C.ar    1  LIG1        0.1169
      2 C          -2.9549   -2.2204   -0.3016 C.ar    1  LIG1       -0.0218
      3 C          -2.3135   -1.1239    0.2471 C.ar    1  LIG1       -0.0535
      4 C          -2.9387    0.1288    0.3456 C.ar    1  LIG1       -0.0229
      5 C          -4.2405    0.2172   -0.1947 C.ar    1  LIG1        0.0940
      6 N          -4.8935   -0.8621   -0.6944 N.ar    1  LIG1       -0.2307
      7 H          -1.3070   -1.2391    0.6431 H       1  LIG1        0.0622
      8 H          -2.4703   -3.1900   -0.3596 H       1  LIG1        0.0652
      9 N          -5.0413   -3.1167   -1.1849 N.pl3   1  LIG1       -0.3431
     10 H          -5.8657   -2.8448   -1.7021 H       1  LIG1        0.1437
     11 H          -4.5366   -3.8934   -1.5857 H       1  LIG1        0.1437
     12 C          -2.2523    1.2467    1.0946 C.3     1  LIG1       -0.0376
     13 H          -2.9745    1.9222    1.5569 H       1  LIG1        0.0278
     14 H          -1.6036    1.8639    0.4619 H       1  LIG1        0.0278
     15 H          -1.6192    0.8301    1.8845 H       1  LIG1        0.0278
     16 C          -5.0488    1.4383   -0.2251 C.ar    1  LIG1        0.0904
     17 C          -4.7836    2.8042   -0.4041 C.ar    1  LIG1        0.0947
     18 C          -6.0349    3.4675   -0.4304 C.ar    1  LIG1        0.1695
     19 C          -7.0479    2.5145   -0.3028 C.ar    1  LIG1        0.1268
     20 N          -6.4261    1.3036   -0.1815 N.ar    1  LIG1       -0.3461
     21 H          -6.8663    0.3959   -0.2057 H       1  LIG1        0.1662
     22 N          -3.5609    3.4778   -0.5628 N.pl3   1  LIG1       -0.3534
     23 H          -2.8694    2.9191   -1.0482 H       1  LIG1        0.1425
     24 H          -3.7098    4.3421   -1.0745 H       1  LIG1        0.1425
     25 O          -6.2060    4.8205   -0.6113 O.3     1  LIG1       -0.4910
     26 C          -6.0080    5.5865    0.5861 C.3     1  LIG1        0.0790
     27 H          -6.1392    6.6354    0.3104 H       1  LIG1        0.0660
     28 H          -6.7433    5.3133    1.3520 H       1  LIG1        0.0660
     29 H          -4.9996    5.4371    0.9892 H       1  LIG1        0.0660
     30 C          -8.4719    2.6720   -0.3094 C.ar    1  LIG1        0.1591
     31 C          -9.2902    3.7590   -0.5089 C.ar    1  LIG1        0.0282
     32 C         -10.6205    3.2662   -0.4034 C.ar    1  LIG1        0.1663
     33 C         -10.5605    1.9034   -0.1490 C.ar    1  LIG1        0.1788
     34 O          -9.2226    1.5566   -0.0917 O.2     1  LIG1       -0.4494
     35 H          -8.9557    4.7601   -0.7274 H       1  LIG1        0.0693
     36 O         -11.7834    3.9597   -0.5295 O.3     1  LIG1       -0.4913
     37 C         -11.6627    5.3364   -0.8645 C.3     1  LIG1        0.0790
     38 H         -12.6804    5.7210   -0.9413 H       1  LIG1        0.0660
     39 H         -11.1229    5.8912   -0.0871 H       1  LIG1        0.0660
     40 H         -11.1497    5.4700   -1.8247 H       1  LIG1        0.0660
     41 C         -11.3241   -0.5178    0.0473 C.ar    1  LIG1        0.0490
     42 C         -11.5763    0.8856    0.0611 C.ar    1  LIG1        0.0422
     43 C         -12.9038    1.2960    0.2862 C.ar    1  LIG1       -0.0449
     44 C         -13.9228    0.3665    0.4855 C.ar    1  LIG1       -0.0317
     45 C         -13.5554   -0.9797    0.4563 C.ar    1  LIG1        0.0308
     46 N         -12.3066   -1.4055    0.2450 N.ar    1  LIG1       -0.2592
     47 H         -13.1310    2.3557    0.3055 H       1  LIG1        0.0628
     48 H         -14.3057   -1.7555    0.6083 H       1  LIG1        0.0832
     49 C          -9.9642   -1.1299   -0.1949 C.3     1  LIG1       -0.0217
     50 H          -9.2676   -0.9047    0.6194 H       1  LIG1        0.0293
     51 H          -9.5082   -0.7581   -1.1179 H       1  LIG1        0.0293
     52 H         -10.0881   -2.2116   -0.2624 H       1  LIG1        0.0293
     53 C         -15.3496    0.7935    0.7258 C.3     1  LIG1       -0.0383
     54 H         -15.9973   -0.0716    0.8941 H       1  LIG1        0.0278
     55 H         -15.7507    1.3494   -0.1294 H       1  LIG1        0.0278
     56 H         -15.4304    1.4470    1.6017 H       1  LIG1        0.0278
@<TRIPOS>BOND
     1    40    37    1
     2    10     9    1
     3    11     9    1
     4     9     1    1
     5    51    49    1
     6    24    22    1
     7    23    22    1
     8    38    37    1
     9    37    36    1
    10    37    39    1
    11     1     6   ar
    12     1     2   ar
    13    35    31    1
    14     6     5   ar
    15    25    18    1
    16    25    26    1
    17    22    17    1
    18    36    32    1
    19    31    32   ar
    20    31    30   ar
    21    18    17   ar
    22    18    19   ar
    23    17    16   ar
    24    32    33   ar
    25     8     2    1
    26    30    19    1
    27    30    34   ar
    28    19    20   ar
    29     2     3   ar
    30    52    49    1
    31    16     5    1
    32    16    20   ar
    33    21    20    1
    34    49    41    1
    35    49    50    1
    36     5     4   ar
    37    33    34   ar
    38    33    42    1
    39    55    53    1
    40    41    42   ar
    41    41    46   ar
    42    42    43   ar
    43    46    45   ar
    44     3     4   ar
    45     3     7    1
    46    43    47    1
    47    43    44   ar
    48    27    26    1
    49     4    12    1
    50    45    44   ar
    51    45    48    1
    52    14    12    1
    53    44    53    1
    54    26    29    1
    55    26    28    1
    56    53    54    1
    57    53    56    1
    58    12    13    1
    59    12    15    1
