@<TRIPOS>MOLECULE
mol_data/opt/b3lyp/geoms/mol2/6hi6hi-6hi-6hi-.out
 58 61 0 0 0
SMALL
GASTEIGER

@<TRIPOS>ATOM
      1 C          -4.5119   -2.2397   -0.7354 C.ar    1  LIG1        0.1168
      2 C          -3.1258   -2.3752   -0.5290 C.ar    1  LIG1       -0.0218
      3 C          -2.4124   -1.2474   -0.1611 C.ar    1  LIG1       -0.0536
      4 C          -3.0417   -0.0016   -0.0088 C.ar    1  LIG1       -0.0242
      5 C          -4.4254    0.0303   -0.2760 C.ar    1  LIG1        0.0793
      6 N          -5.1362   -1.0619   -0.6193 N.ar    1  LIG1       -0.2321
      7 H          -1.3455   -1.3285    0.0326 H       1  LIG1        0.0622
      8 H          -2.6394   -3.3404   -0.6330 H       1  LIG1        0.0652
      9 N          -5.3122   -3.3318   -1.0252 N.pl3   1  LIG1       -0.3431
     10 H          -6.2239   -3.0832   -1.3833 H       1  LIG1        0.1437
     11 H          -4.8738   -4.1087   -1.4972 H       1  LIG1        0.1437
     12 C          -2.2660    1.2012    0.4730 C.3     1  LIG1       -0.0377
     13 H          -2.7743    1.6917    1.3097 H       1  LIG1        0.0278
     14 H          -2.1473    1.9572   -0.3102 H       1  LIG1        0.0278
     15 H          -1.2707    0.9026    0.8142 H       1  LIG1        0.0278
     16 C          -5.0218    2.4313   -0.9484 C.ar    1  LIG1        0.1261
     17 C          -5.2331    1.2804   -0.1527 C.ar    1  LIG1        0.0405
     18 C          -6.2925    1.3451    0.7464 C.ar    1  LIG1       -0.0443
     19 C          -7.0919    2.4848    0.8981 C.ar    1  LIG1       -0.0236
     20 C          -6.7909    3.5772    0.0569 C.ar    1  LIG1        0.0793
     21 N          -5.7720    3.5294   -0.8281 N.ar    1  LIG1       -0.2314
     22 H          -6.4883    0.4745    1.3665 H       1  LIG1        0.0628
     23 N          -4.0074    2.4956   -1.8945 N.pl3   1  LIG1       -0.3426
     24 H          -3.7124    1.6100   -2.2821 H       1  LIG1        0.1437
     25 H          -4.1589    3.2175   -2.5861 H       1  LIG1        0.1437
     26 C          -8.1650    2.4900    1.9634 C.3     1  LIG1       -0.0377
     27 H          -7.8875    1.8137    2.7775 H       1  LIG1        0.0278
     28 H          -9.1353    2.1476    1.5830 H       1  LIG1        0.0278
     29 H          -8.3148    3.4858    2.3869 H       1  LIG1        0.0278
     30 C          -6.9208    6.1277   -0.0021 C.ar    1  LIG1        0.1261
     31 C          -7.5574    4.8538    0.0669 C.ar    1  LIG1        0.0405
     32 C          -8.9478    4.8780    0.1296 C.ar    1  LIG1       -0.0443
     33 C          -9.6979    6.0614    0.1399 C.ar    1  LIG1       -0.0236
     34 C          -8.9659    7.2643    0.0777 C.ar    1  LIG1        0.0793
     35 N          -7.6173    7.2690    0.0237 N.ar    1  LIG1       -0.2314
     36 H          -9.4837    3.9344    0.1636 H       1  LIG1        0.0628
     37 N          -5.5505    6.2525   -0.0418 N.pl3   1  LIG1       -0.3426
     38 H          -5.0765    5.4733   -0.4835 H       1  LIG1        0.1437
     39 H          -5.2419    7.1744   -0.3167 H       1  LIG1        0.1437
     40 C         -11.2026    5.9739    0.2631 C.3     1  LIG1       -0.0377
     41 H         -11.4844    5.0559    0.7884 H       1  LIG1        0.0278
     42 H         -11.7056    5.9492   -0.7117 H       1  LIG1        0.0278
     43 H         -11.6148    6.8201    0.8177 H       1  LIG1        0.0278
     44 C          -9.0995    9.7026    0.8305 C.ar    1  LIG1        0.1254
     45 C          -9.6068    8.6093    0.0607 C.ar    1  LIG1        0.0404
     46 C         -10.7162    8.8746   -0.7404 C.ar    1  LIG1       -0.0449
     47 C         -11.3317   10.1331   -0.7624 C.ar    1  LIG1       -0.0316
     48 C         -10.7636   11.1006    0.0649 C.ar    1  LIG1        0.0326
     49 N          -9.6847   10.9100    0.8294 N.ar    1  LIG1       -0.2398
     50 H         -11.1017    8.0867   -1.3810 H       1  LIG1        0.0628
     51 H         -11.1966   12.1007    0.1039 H       1  LIG1        0.0833
     52 N          -8.0103    9.5586    1.6571 N.pl3   1  LIG1       -0.3426
     53 H          -7.3342    8.8707    1.3478 H       1  LIG1        0.1437
     54 H          -7.6453   10.4401    1.9890 H       1  LIG1        0.1437
     55 C         -12.5296   10.4257   -1.6308 C.3     1  LIG1       -0.0383
     56 H         -13.3835    9.7860   -1.3772 H       1  LIG1        0.0278
     57 H         -12.3116   10.2645   -2.6933 H       1  LIG1        0.0278
     58 H         -12.8523   11.4647   -1.5155 H       1  LIG1        0.0278
@<TRIPOS>BOND
     1    57    55    1
     2    25    23    1
     3    24    23    1
     4    23    16    1
     5    55    58    1
     6    55    56    1
     7    55    47    1
     8    11     9    1
     9    10     9    1
    10    50    46    1
    11     9     1    1
    12    16    21   ar
    13    16    17   ar
    14    21    20   ar
    15    47    46   ar
    16    47    48   ar
    17    46    45   ar
    18     1     6   ar
    19     1     2   ar
    20    42    40    1
    21     8     2    1
    22     6     5   ar
    23     2     3   ar
    24    38    37    1
    25    39    37    1
    26    14    12    1
    27     5    17    1
    28     5     4   ar
    29     3     4   ar
    30     3     7    1
    31    17    18   ar
    32    37    30    1
    33     4    12    1
    34    30    35   ar
    35    30    31   ar
    36    35    34   ar
    37    20    31    1
    38    20    19   ar
    39    45    34    1
    40    45    44   ar
    41    48    51    1
    42    48    49   ar
    43    31    32   ar
    44    34    33   ar
    45    32    33   ar
    46    32    36    1
    47    33    40    1
    48    40    41    1
    49    40    43    1
    50    12    15    1
    51    12    13    1
    52    18    19   ar
    53    18    22    1
    54    49    44   ar
    55    44    52    1
    56    19    26    1
    57    53    52    1
    58    28    26    1
    59    52    54    1
    60    26    29    1
    61    26    27    1
