@<TRIPOS>MOLECULE
mol_data/opt/b3lyp/geoms/mol2/6hi6hi-6hi-6hi.out
 58 61 0 0 0
SMALL
GASTEIGER

@<TRIPOS>ATOM
      1 C          -4.5517   -2.2912   -0.4162 C.ar    1  LIG1        0.1168
      2 C          -3.1568   -2.4141   -0.2711 C.ar    1  LIG1       -0.0218
      3 C          -2.4251   -1.2606   -0.0460 C.ar    1  LIG1       -0.0536
      4 C          -3.0456   -0.0031    0.0241 C.ar    1  LIG1       -0.0242
      5 C          -4.4415    0.0110   -0.1721 C.ar    1  LIG1        0.0793
      6 N          -5.1691   -1.1048   -0.3761 N.ar    1  LIG1       -0.2321
      7 H          -1.3495   -1.3287    0.0981 H       1  LIG1        0.0622
      8 H          -2.6766   -3.3871   -0.3114 H       1  LIG1        0.0652
      9 N          -5.3664   -3.4016   -0.5625 N.pl3   1  LIG1       -0.3431
     10 H          -6.2955   -3.1816   -0.8936 H       1  LIG1        0.1437
     11 H          -4.9535   -4.2195   -0.9859 H       1  LIG1        0.1437
     12 C          -2.2453    1.2348    0.3520 C.3     1  LIG1       -0.0377
     13 H          -2.7081    1.8023    1.1662 H       1  LIG1        0.0278
     14 H          -2.1687    1.9154   -0.5024 H       1  LIG1        0.0278
     15 H          -1.2332    0.9636    0.6656 H       1  LIG1        0.0278
     16 C          -5.0722    2.3431   -1.0299 C.ar    1  LIG1        0.1261
     17 C          -5.2417    1.2709   -0.1223 C.ar    1  LIG1        0.0405
     18 C          -6.2538    1.4221    0.8200 C.ar    1  LIG1       -0.0443
     19 C          -7.0445    2.5744    0.9069 C.ar    1  LIG1       -0.0236
     20 C          -6.7875    3.5841   -0.0451 C.ar    1  LIG1        0.0793
     21 N          -5.8159    3.4507   -0.9733 N.ar    1  LIG1       -0.2314
     22 H          -6.4176    0.6125    1.5263 H       1  LIG1        0.0628
     23 N          -4.1074    2.3160   -2.0287 N.pl3   1  LIG1       -0.3426
     24 H          -3.8353    1.3972   -2.3506 H       1  LIG1        0.1437
     25 H          -4.2939    2.9741   -2.7733 H       1  LIG1        0.1437
     26 C          -8.0629    2.6825    2.0194 C.3     1  LIG1       -0.0377
     27 H          -7.7433    2.0856    2.8790 H       1  LIG1        0.0278
     28 H          -9.0503    2.3085    1.7220 H       1  LIG1        0.0278
     29 H          -8.1938    3.7144    2.3531 H       1  LIG1        0.0278
     30 C          -6.9196    6.1195   -0.3236 C.ar    1  LIG1        0.1261
     31 C          -7.5536    4.8595   -0.1117 C.ar    1  LIG1        0.0405
     32 C          -8.9422    4.8871    0.0056 C.ar    1  LIG1       -0.0443
     33 C          -9.6866    6.0718   -0.0531 C.ar    1  LIG1       -0.0236
     34 C          -8.9501    7.2547   -0.2570 C.ar    1  LIG1        0.0793
     35 N          -7.6113    7.2655   -0.3819 N.ar    1  LIG1       -0.2314
     36 H          -9.4749    3.9513    0.1432 H       1  LIG1        0.0628
     37 N          -5.5524    6.2349   -0.4300 N.pl3   1  LIG1       -0.3426
     38 H          -5.0918    5.4277   -0.8322 H       1  LIG1        0.1437
     39 H          -5.2569    7.1398   -0.7683 H       1  LIG1        0.1437
     40 C         -11.1831    6.0523    0.1488 C.3     1  LIG1       -0.0377
     41 H         -11.5147    5.0574    0.4600 H       1  LIG1        0.0278
     42 H         -11.7238    6.3269   -0.7629 H       1  LIG1        0.0278
     43 H         -11.4885    6.7648    0.9227 H       1  LIG1        0.0278
     44 C         -10.5246    8.9770   -1.3162 C.ar    1  LIG1        0.1254
     45 C          -9.5945    8.6016   -0.3126 C.ar    1  LIG1        0.0404
     46 C          -9.2316    9.5817    0.6079 C.ar    1  LIG1       -0.0449
     47 C          -9.8104   10.8568    0.5840 C.ar    1  LIG1       -0.0316
     48 C         -10.7435   11.0848   -0.4277 C.ar    1  LIG1        0.0326
     49 N         -11.0859   10.1915   -1.3618 N.ar    1  LIG1       -0.2398
     50 H          -8.4852    9.3328    1.3579 H       1  LIG1        0.0628
     51 H         -11.2370   12.0541   -0.5009 H       1  LIG1        0.0833
     52 N         -10.9201    8.0939   -2.3128 N.pl3   1  LIG1       -0.3426
     53 H         -11.3633    8.5631   -3.0913 H       1  LIG1        0.1437
     54 H         -10.2408    7.3949   -2.5800 H       1  LIG1        0.1437
     55 C          -9.4476   11.9215    1.5888 C.3     1  LIG1       -0.0383
     56 H          -9.9803   12.8546    1.3827 H       1  LIG1        0.0278
     57 H          -8.3740   12.1421    1.5737 H       1  LIG1        0.0278
     58 H          -9.6989   11.6166    2.6117 H       1  LIG1        0.0278
@<TRIPOS>BOND
     1    53    52    1
     2    25    23    1
     3    54    52    1
     4    24    23    1
     5    52    44    1
     6    23    16    1
     7    49    44   ar
     8    49    48   ar
     9    44    45   ar
    10    16    21   ar
    11    16    17   ar
    12    11     9    1
    13    21    20   ar
    14    10     9    1
    15    38    37    1
    16    39    37    1
    17    42    40    1
    18     9     1    1
    19    14    12    1
    20    51    48    1
    21    37    30    1
    22    48    47   ar
    23     1     6   ar
    24     1     2   ar
    25    35    30   ar
    26    35    34   ar
    27     6     5   ar
    28    30    31   ar
    29    45    34    1
    30    45    46   ar
    31     8     2    1
    32     2     3   ar
    33    34    33   ar
    34     5    17    1
    35     5     4   ar
    36    17    18   ar
    37    31    20    1
    38    31    32   ar
    39    33    32   ar
    40    33    40    1
    41     3     4   ar
    42     3     7    1
    43    20    19   ar
    44    32    36    1
    45     4    12    1
    46    40    41    1
    47    40    43    1
    48    12    15    1
    49    12    13    1
    50    47    46   ar
    51    47    55    1
    52    46    50    1
    53    18    19   ar
    54    18    22    1
    55    19    26    1
    56    56    55    1
    57    57    55    1
    58    55    58    1
    59    28    26    1
    60    26    29    1
    61    26    27    1
