@<TRIPOS>MOLECULE
mol_data/opt/b3lyp/geoms/mol2/6hi6hi-4hi6hi.out
 59 62 0 0 0
SMALL
GASTEIGER

@<TRIPOS>ATOM
      1 C          -4.5514   -2.3008   -0.3089 C.ar    1  LIG1        0.1168
      2 C          -3.1517   -2.4174   -0.2169 C.ar    1  LIG1       -0.0218
      3 C          -2.4142   -1.2561   -0.0600 C.ar    1  LIG1       -0.0536
      4 C          -3.0345    0.0020   -0.0060 C.ar    1  LIG1       -0.0242
      5 C          -4.4375    0.0086   -0.1457 C.ar    1  LIG1        0.0793
      6 N          -5.1696   -1.1145   -0.2831 N.ar    1  LIG1       -0.2321
      7 H          -1.3334   -1.3182    0.0424 H       1  LIG1        0.0622
      8 H          -2.6711   -3.3907   -0.2446 H       1  LIG1        0.0652
      9 N          -5.3690   -3.4165   -0.3848 N.pl3   1  LIG1       -0.3431
     10 H          -6.3111   -3.2073   -0.6850 H       1  LIG1        0.1437
     11 H          -4.9722   -4.2461   -0.8008 H       1  LIG1        0.1437
     12 C          -2.2250    1.2512    0.2482 C.3     1  LIG1       -0.0377
     13 H          -2.6520    1.8405    1.0665 H       1  LIG1        0.0278
     14 H          -2.1924    1.9068   -0.6283 H       1  LIG1        0.0278
     15 H          -1.1980    0.9924    0.5216 H       1  LIG1        0.0278
     16 C          -5.1065    2.3114   -1.0513 C.ar    1  LIG1        0.1261
     17 C          -5.2374    1.2689   -0.1045 C.ar    1  LIG1        0.0405
     18 C          -6.2113    1.4498    0.8729 C.ar    1  LIG1       -0.0443
     19 C          -6.9982    2.6047    0.9549 C.ar    1  LIG1       -0.0237
     20 C          -6.7819    3.5837   -0.0383 C.ar    1  LIG1        0.0778
     21 N          -5.8490    3.4204   -1.0009 N.ar    1  LIG1       -0.2314
     22 H          -6.3455    0.6632    1.6107 H       1  LIG1        0.0628
     23 N          -4.1819    2.2534   -2.0880 N.pl3   1  LIG1       -0.3426
     24 H          -3.9280    1.3240   -2.3942 H       1  LIG1        0.1437
     25 H          -4.4051    2.8864   -2.8445 H       1  LIG1        0.1437
     26 C          -7.9713    2.7521    2.1028 C.3     1  LIG1       -0.0377
     27 H          -7.6171    2.1866    2.9701 H       1  LIG1        0.0278
     28 H          -8.9693    2.3690    1.8574 H       1  LIG1        0.0278
     29 H          -8.0911    3.7959    2.4013 H       1  LIG1        0.0278
     30 C          -6.9151    6.1040   -0.3379 C.ar    1  LIG1        0.0344
     31 C          -7.7107    7.2603   -0.3847 C.ar    1  LIG1       -0.0323
     32 C          -7.5550    4.8575   -0.1115 C.ar    1  LIG1        0.0216
     33 C          -9.1017    7.2281   -0.2462 C.ar    1  LIG1       -0.0099
     34 H          -7.2250    8.2193   -0.5502 H       1  LIG1        0.0642
     35 C          -8.9511    4.8456    0.0128 C.ar    1  LIG1       -0.0473
     36 C          -9.7514    5.9889   -0.0475 C.ar    1  LIG1       -0.0419
     37 H          -9.4427    3.8876    0.1518 H       1  LIG1        0.0627
     38 N          -5.5330    6.2039   -0.4502 N.pl3   1  LIG1       -0.3574
     39 H          -5.1098    5.3792   -0.8618 H       1  LIG1        0.1423
     40 H          -5.2101    7.0680   -0.8629 H       1  LIG1        0.1423
     41 C         -11.2486    5.8850    0.1296 C.3     1  LIG1       -0.0391
     42 H         -11.5370    4.8630    0.3914 H       1  LIG1        0.0278
     43 H         -11.7858    6.1683   -0.7822 H       1  LIG1        0.0278
     44 H         -11.6043    6.5482    0.9259 H       1  LIG1        0.0278
     45 C         -10.7012    8.8501   -1.3951 C.ar    1  LIG1        0.1239
     46 C          -9.8514    8.5182   -0.3049 C.ar    1  LIG1        0.0222
     47 C          -9.7007    9.4825    0.6877 C.ar    1  LIG1       -0.0464
     48 C         -10.3816   10.7078    0.6295 C.ar    1  LIG1       -0.0316
     49 C         -11.1964   10.9006   -0.4847 C.ar    1  LIG1        0.0326
     50 N         -11.3527   10.0159   -1.4765 N.ar    1  LIG1       -0.2398
     51 H          -9.0452    9.2645    1.5279 H       1  LIG1        0.0628
     52 H         -11.7537   11.8313   -0.5933 H       1  LIG1        0.0833
     53 N         -10.9190    7.9574   -2.4320 N.pl3   1  LIG1       -0.3427
     54 H         -11.3141    8.3891   -3.2558 H       1  LIG1        0.1437
     55 H         -10.1850    7.2860   -2.6077 H       1  LIG1        0.1437
     56 C         -10.2407   11.7544    1.7063 C.3     1  LIG1       -0.0383
     57 H         -10.8381   12.6407    1.4733 H       1  LIG1        0.0278
     58 H          -9.1999   12.0784    1.8238 H       1  LIG1        0.0278
     59 H         -10.5723   11.3798    2.6820 H       1  LIG1        0.0278
@<TRIPOS>BOND
     1    54    53    1
     2    25    23    1
     3    55    53    1
     4    53    45    1
     5    24    23    1
     6    23    16    1
     7    50    45   ar
     8    50    49   ar
     9    45    46   ar
    10    16    21   ar
    11    16    17   ar
    12    21    20   ar
    13    40    38    1
    14    39    38    1
    15    11     9    1
    16    43    41    1
    17    10     9    1
    18    14    12    1
    19    52    49    1
    20    34    31    1
    21    49    48   ar
    22    38    30    1
    23     9     1    1
    24    31    30   ar
    25    31    33   ar
    26    30    32   ar
    27     1     6   ar
    28     1     2   ar
    29    46    33    1
    30    46    47   ar
    31     6     5   ar
    32    33    36   ar
    33     8     2    1
    34     2     3   ar
    35     5    17    1
    36     5     4   ar
    37    32    20    1
    38    32    35   ar
    39    17    18   ar
    40     3     4   ar
    41     3     7    1
    42    36    35   ar
    43    36    41    1
    44    20    19   ar
    45     4    12    1
    46    35    37    1
    47    41    42    1
    48    41    44    1
    49    12    15    1
    50    12    13    1
    51    48    47   ar
    52    48    56    1
    53    47    51    1
    54    18    19   ar
    55    18    22    1
    56    19    26    1
    57    57    56    1
    58    56    58    1
    59    56    59    1
    60    28    26    1
    61    26    29    1
    62    26    27    1
