@<TRIPOS>MOLECULE
mol_data/opt/b3lyp/geoms/mol2/6hi6hi6hi6hi-.out
 58 61 0 0 0
SMALL
GASTEIGER

@<TRIPOS>ATOM
      1 C          -3.6267   -1.7204   -1.4754 C.ar    1  LIG1        0.1168
      2 C          -2.7387   -2.1386   -0.4675 C.ar    1  LIG1       -0.0218
      3 C          -2.7343   -1.4262    0.7178 C.ar    1  LIG1       -0.0536
      4 C          -3.5591   -0.3063    0.9124 C.ar    1  LIG1       -0.0242
      5 C          -4.3821    0.0601   -0.1734 C.ar    1  LIG1        0.0793
      6 N          -4.4169   -0.6547   -1.3214 N.ar    1  LIG1       -0.2321
      7 H          -2.0847   -1.7472    1.5287 H       1  LIG1        0.0622
      8 H          -2.1046   -3.0084   -0.6075 H       1  LIG1        0.0652
      9 N          -3.7643   -2.4257   -2.6602 N.pl3   1  LIG1       -0.3431
     10 H          -4.1941   -1.8938   -3.4044 H       1  LIG1        0.1437
     11 H          -2.9683   -2.9729   -2.9536 H       1  LIG1        0.1437
     12 C          -3.5511    0.3862    2.2565 C.3     1  LIG1       -0.0377
     13 H          -4.5263    0.8127    2.5013 H       1  LIG1        0.0278
     14 H          -2.8175    1.2002    2.3068 H       1  LIG1        0.0278
     15 H          -3.2871   -0.3271    3.0434 H       1  LIG1        0.0278
     16 C          -6.6108    1.2167   -0.6503 C.ar    1  LIG1        0.1261
     17 C          -5.2766    1.2507   -0.1486 C.ar    1  LIG1        0.0405
     18 C          -4.8529    2.4768    0.3554 C.ar    1  LIG1       -0.0443
     19 C          -5.6659    3.6173    0.3925 C.ar    1  LIG1       -0.0236
     20 C          -6.9696    3.4694   -0.1225 C.ar    1  LIG1        0.0793
     21 N          -7.4087    2.2893   -0.6095 N.ar    1  LIG1       -0.2314
     22 H          -3.8384    2.5604    0.7331 H       1  LIG1        0.0628
     23 N          -7.1674    0.0622   -1.1506 N.pl3   1  LIG1       -0.3426
     24 H          -8.0185    0.2205   -1.6714 H       1  LIG1        0.1437
     25 H          -6.4987   -0.5737   -1.5692 H       1  LIG1        0.1437
     26 C          -5.1219    4.8847    1.0126 C.3     1  LIG1       -0.0377
     27 H          -5.9067    5.4689    1.4985 H       1  LIG1        0.0278
     28 H          -4.6370    5.5399    0.2782 H       1  LIG1        0.0278
     29 H          -4.3668    4.6405    1.7664 H       1  LIG1        0.0278
     30 C          -9.3306    4.4000    0.1668 C.ar    1  LIG1        0.1261
     31 C          -7.9580    4.5819   -0.1776 C.ar    1  LIG1        0.0405
     32 C          -7.5982    5.8620   -0.5953 C.ar    1  LIG1       -0.0443
     33 C          -8.5072    6.9254   -0.6568 C.ar    1  LIG1       -0.0236
     34 C          -9.8321    6.6276   -0.2834 C.ar    1  LIG1        0.0793
     35 N         -10.2175    5.4036    0.1177 N.ar    1  LIG1       -0.2314
     36 H          -6.5708    6.0462   -0.8938 H       1  LIG1        0.0628
     37 N          -9.8101    3.1927    0.6182 N.pl3   1  LIG1       -0.3426
     38 H         -10.8191    3.1485    0.6391 H       1  LIG1        0.1437
     39 H          -9.3253    2.3834    0.2493 H       1  LIG1        0.1437
     40 C          -8.0495    8.3091   -1.0526 C.3     1  LIG1       -0.0377
     41 H          -8.3484    9.0543   -0.3074 H       1  LIG1        0.0278
     42 H          -8.4824    8.6268   -2.0068 H       1  LIG1        0.0278
     43 H          -6.9596    8.3418   -1.1403 H       1  LIG1        0.0278
     44 C         -11.3636    8.3301   -1.4337 C.ar    1  LIG1        0.1254
     45 C         -10.9115    7.6607   -0.2669 C.ar    1  LIG1        0.0404
     46 C         -11.5746    7.9519    0.9225 C.ar    1  LIG1       -0.0449
     47 C         -12.5938    8.9112    0.9751 C.ar    1  LIG1       -0.0316
     48 C         -12.9146    9.5282   -0.2341 C.ar    1  LIG1        0.0326
     49 N         -12.3398    9.2457   -1.4079 N.ar    1  LIG1       -0.2398
     50 H         -11.2785    7.4174    1.8215 H       1  LIG1        0.0628
     51 H         -13.6950   10.2888   -0.2637 H       1  LIG1        0.0833
     52 N         -10.8053    8.0805   -2.6810 N.pl3   1  LIG1       -0.3426
     53 H         -10.4321    7.1515   -2.8202 H       1  LIG1        0.1437
     54 H         -11.3876    8.4128   -3.4381 H       1  LIG1        0.1437
     55 C         -13.3041    9.2566    2.2600 C.3     1  LIG1       -0.0383
     56 H         -12.6140    9.6645    3.0081 H       1  LIG1        0.0278
     57 H         -13.7798    8.3764    2.7078 H       1  LIG1        0.0278
     58 H         -14.0848   10.0039    2.0896 H       1  LIG1        0.0278
@<TRIPOS>BOND
     1    54    52    1
     2    10     9    1
     3    11     9    1
     4    53    52    1
     5    52    44    1
     6     9     1    1
     7    42    40    1
     8    24    23    1
     9    25    23    1
    10     1     6   ar
    11     1     2   ar
    12    44    49   ar
    13    44    45   ar
    14    49    48   ar
    15     6     5   ar
    16    23    16    1
    17    43    40    1
    18    40    33    1
    19    40    41    1
    20    36    32    1
    21    33    32   ar
    22    33    34   ar
    23    16    21   ar
    24    16    17   ar
    25    21    20   ar
    26     8     2    1
    27    32    31   ar
    28     2     3   ar
    29    34    45    1
    30    34    35   ar
    31    45    46   ar
    32    51    48    1
    33    48    47   ar
    34    31    20    1
    35    31    30   ar
    36     5    17    1
    37     5     4   ar
    38    17    18   ar
    39    20    19   ar
    40    35    30   ar
    41    30    37    1
    42    39    37    1
    43    28    26    1
    44    18    19   ar
    45    18    22    1
    46    19    26    1
    47    37    38    1
    48     3     4   ar
    49     3     7    1
    50     4    12    1
    51    46    47   ar
    52    46    50    1
    53    47    55    1
    54    26    27    1
    55    26    29    1
    56    58    55    1
    57    12    14    1
    58    12    13    1
    59    12    15    1
    60    55    57    1
    61    55    56    1
