@<TRIPOS>MOLECULE
mol_data/opt/b3lyp/geoms/mol2/6hi6hi.out
 30 31 0 0 0
SMALL
GASTEIGER

@<TRIPOS>ATOM
      1 C          -4.4896   -2.0551   -0.6644 C.ar    1  LIG1        0.1168
      2 C          -3.1124   -2.1244   -0.3868 C.ar    1  LIG1       -0.0218
      3 C          -2.5001   -0.9848    0.1028 C.ar    1  LIG1       -0.0536
      4 C          -3.2089    0.2120    0.2941 C.ar    1  LIG1       -0.0242
      5 C          -4.5765    0.1924   -0.0525 C.ar    1  LIG1        0.0793
      6 N          -5.1873   -0.9283   -0.4992 N.ar    1  LIG1       -0.2321
      7 H          -1.4439   -1.0170    0.3599 H       1  LIG1        0.0622
      8 H          -2.5607   -3.0493   -0.5233 H       1  LIG1        0.0652
      9 N          -5.2051   -3.1696   -1.0740 N.pl3   1  LIG1       -0.3431
     10 H          -6.0898   -2.9471   -1.5093 H       1  LIG1        0.1437
     11 H          -4.6824   -3.8892   -1.5518 H       1  LIG1        0.1437
     12 C          -2.4937    1.4029    0.8913 C.3     1  LIG1       -0.0377
     13 H          -3.1660    2.0241    1.4872 H       1  LIG1        0.0278
     14 H          -2.0445    2.0503    0.1281 H       1  LIG1        0.0278
     15 H          -1.6797    1.0652    1.5405 H       1  LIG1        0.0278
     16 C          -6.7733    1.3298    0.5915 C.ar    1  LIG1        0.1254
     17 C          -5.4531    1.3938    0.0478 C.ar    1  LIG1        0.0404
     18 C          -5.0312    2.6372   -0.4197 C.ar    1  LIG1       -0.0449
     19 C          -5.8395    3.7777   -0.3263 C.ar    1  LIG1       -0.0316
     20 C          -7.0885    3.5886    0.2633 C.ar    1  LIG1        0.0326
     21 N          -7.5542    2.4153    0.7008 N.ar    1  LIG1       -0.2398
     22 H          -4.0531    2.7183   -0.8858 H       1  LIG1        0.0628
     23 H          -7.7659    4.4353    0.3782 H       1  LIG1        0.0833
     24 N          -7.2955    0.1566    1.0838 N.pl3   1  LIG1       -0.3426
     25 H          -8.2887    0.2083    1.2609 H       1  LIG1        0.1437
     26 H          -6.9564   -0.6822    0.6296 H       1  LIG1        0.1437
     27 C          -5.3910    5.1238   -0.8378 C.3     1  LIG1       -0.0383
     28 H          -6.1537    5.8864   -0.6543 H       1  LIG1        0.0278
     29 H          -5.1972    5.1055   -1.9170 H       1  LIG1        0.0278
     30 H          -4.4671    5.4578   -0.3508 H       1  LIG1        0.0278
@<TRIPOS>BOND
     1    29    27    1
     2    11     9    1
     3    10     9    1
     4     9     1    1
     5    22    18    1
     6    27    28    1
     7    27    30    1
     8    27    19    1
     9     1     6   ar
    10     1     2   ar
    11     8     2    1
    12     6     5   ar
    13    18    19   ar
    14    18    17   ar
    15     2     3   ar
    16    19    20   ar
    17     5    17    1
    18     5     4   ar
    19    17    16   ar
    20     3     4   ar
    21     3     7    1
    22    14    12    1
    23    20    23    1
    24    20    21   ar
    25     4    12    1
    26    16    21   ar
    27    16    24    1
    28    26    24    1
    29    12    13    1
    30    12    15    1
    31    24    25    1
