@<TRIPOS>MOLECULE
mol_data/opt/b3lyp/geoms/mol2/6hi6hi-6hi6hi-.out
 58 61 0 0 0
SMALL
GASTEIGER

@<TRIPOS>ATOM
      1 C          -4.3172   -2.1701   -0.8599 C.ar    1  LIG1        0.1168
      2 C          -3.0205   -2.3209   -0.3338 C.ar    1  LIG1       -0.0218
      3 C          -2.4491   -1.2317    0.3022 C.ar    1  LIG1       -0.0536
      4 C          -3.1305   -0.0096    0.4125 C.ar    1  LIG1       -0.0242
      5 C          -4.4083    0.0441   -0.1805 C.ar    1  LIG1        0.0793
      6 N          -4.9833   -1.0116   -0.7897 N.ar    1  LIG1       -0.2321
      7 H          -1.4593   -1.3272    0.7423 H       1  LIG1        0.0622
      8 H          -2.4972   -3.2696   -0.4062 H       1  LIG1        0.0652
      9 N          -4.9932   -3.2316   -1.4395 N.pl3   1  LIG1       -0.3431
     10 H          -5.7956   -2.9497   -1.9855 H       1  LIG1        0.1437
     11 H          -4.4308   -3.9533   -1.8655 H       1  LIG1        0.1437
     12 C          -2.5281    1.1444    1.1773 C.3     1  LIG1       -0.0377
     13 H          -3.2311    1.5385    1.9188 H       1  LIG1        0.0278
     14 H          -2.2626    1.9790    0.5199 H       1  LIG1        0.0278
     15 H          -1.6267    0.8232    1.7073 H       1  LIG1        0.0278
     16 C          -4.8882    2.4945   -0.7570 C.ar    1  LIG1        0.1261
     17 C          -5.2548    1.2742   -0.1400 C.ar    1  LIG1        0.0405
     18 C          -6.5028    1.2429    0.4774 C.ar    1  LIG1       -0.0443
     19 C          -7.3382    2.3643    0.5343 C.ar    1  LIG1       -0.0236
     20 C          -6.8651    3.5249   -0.1113 C.ar    1  LIG1        0.0793
     21 N          -5.6751    3.5760   -0.7366 N.ar    1  LIG1       -0.2314
     22 H          -6.8202    0.3158    0.9471 H       1  LIG1        0.0628
     23 N          -3.6761    2.6490   -1.4166 N.pl3   1  LIG1       -0.3426
     24 H          -3.2825    1.8129   -1.8253 H       1  LIG1        0.1437
     25 H          -3.6623    3.4580   -2.0230 H       1  LIG1        0.1437
     26 C          -8.6393    2.3202    1.2991 C.3     1  LIG1       -0.0377
     27 H          -8.7271    1.3802    1.8508 H       1  LIG1        0.0278
     28 H          -9.5063    2.4142    0.6370 H       1  LIG1        0.0278
     29 H          -8.7021    3.1415    2.0210 H       1  LIG1        0.0278
     30 C          -8.8954    4.9486   -0.7529 C.ar    1  LIG1        0.1261
     31 C          -7.6347    4.8048   -0.1249 C.ar    1  LIG1        0.0405
     32 C          -7.0936    5.9535    0.4470 C.ar    1  LIG1       -0.0443
     33 C          -7.7703    7.1787    0.4500 C.ar    1  LIG1       -0.0236
     34 C          -9.0207    7.1996   -0.2008 C.ar    1  LIG1        0.0793
     35 N          -9.5560    6.1112   -0.7827 N.ar    1  LIG1       -0.2314
     36 H          -6.1198    5.8805    0.9242 H       1  LIG1        0.0628
     37 N          -9.5338    3.8814   -1.3708 N.pl3   1  LIG1       -0.3426
     38 H         -10.2737    4.1773   -1.9931 H       1  LIG1        0.1437
     39 H          -8.9330    3.1613   -1.7474 H       1  LIG1        0.1437
     40 C          -7.1938    8.3775    1.1641 C.3     1  LIG1       -0.0377
     41 H          -7.9203    8.8121    1.8591 H       1  LIG1        0.0278
     42 H          -6.9117    9.1716    0.4652 H       1  LIG1        0.0278
     43 H          -6.3080    8.0917    1.7382 H       1  LIG1        0.0278
     44 C          -9.4735    9.6107   -0.9380 C.ar    1  LIG1        0.1254
     45 C          -9.8708    8.4267   -0.2641 C.ar    1  LIG1        0.0404
     46 C         -11.1472    8.4170    0.2927 C.ar    1  LIG1       -0.0449
     47 C         -11.9733    9.5471    0.2466 C.ar    1  LIG1       -0.0316
     48 C         -11.4481   10.6605   -0.4097 C.ar    1  LIG1        0.0326
     49 N         -10.2492   10.7000   -1.0000 N.ar    1  LIG1       -0.2398
     50 H         -11.4922    7.5059    0.7752 H       1  LIG1        0.0628
     51 H         -12.0359   11.5761   -0.4777 H       1  LIG1        0.0833
     52 N          -8.2393    9.7147   -1.5659 N.pl3   1  LIG1       -0.3426
     53 H          -7.8461    8.8535   -1.9197 H       1  LIG1        0.1437
     54 H          -8.1980   10.4901   -2.2136 H       1  LIG1        0.1437
     55 C         -13.3484    9.5617    0.8658 C.3     1  LIG1       -0.0383
     56 H         -13.3085    9.3821    1.9467 H       1  LIG1        0.0278
     57 H         -13.9941    8.7876    0.4349 H       1  LIG1        0.0278
     58 H         -13.8396   10.5266    0.7098 H       1  LIG1        0.0278
@<TRIPOS>BOND
     1    54    52    1
     2    25    23    1
     3    38    37    1
     4    10     9    1
     5    53    52    1
     6    11     9    1
     7    24    23    1
     8    39    37    1
     9    52    44    1
    10     9     1    1
    11    23    16    1
    12    37    30    1
    13    49    44   ar
    14    49    48   ar
    15    44    45   ar
    16     1     6   ar
    17     1     2   ar
    18     6     5   ar
    19    35    30   ar
    20    35    34   ar
    21    16    21   ar
    22    16    17   ar
    23    30    31   ar
    24    21    20   ar
    25    51    48    1
    26    48    47   ar
    27     8     2    1
    28     2     3   ar
    29    45    34    1
    30    45    46   ar
    31    34    33   ar
    32     5    17    1
    33     5     4   ar
    34    17    18   ar
    35    31    20    1
    36    31    32   ar
    37    20    19   ar
    38    47    46   ar
    39    47    55    1
    40    46    50    1
    41     3     4   ar
    42     3     7    1
    43     4    12    1
    44    57    55    1
    45    32    33   ar
    46    32    36    1
    47    33    40    1
    48    42    40    1
    49    18    19   ar
    50    18    22    1
    51    14    12    1
    52    19    26    1
    53    28    26    1
    54    58    55    1
    55    55    56    1
    56    40    43    1
    57    40    41    1
    58    12    15    1
    59    12    13    1
    60    26    27    1
    61    26    29    1
