@<TRIPOS>MOLECULE
mol_data/opt/b3lyp/geoms/mol2/6hi6hi-.out
 30 31 0 0 0
SMALL
GASTEIGER

@<TRIPOS>ATOM
      1 C          -4.4025   -2.0296   -0.6918 C.ar    1  LIG1        0.1168
      2 C          -3.1249   -2.1413   -0.1127 C.ar    1  LIG1       -0.0218
      3 C          -2.5784   -1.0110    0.4719 C.ar    1  LIG1       -0.0536
      4 C          -3.2659    0.2125    0.4805 C.ar    1  LIG1       -0.0242
      5 C          -4.5232    0.2227   -0.1574 C.ar    1  LIG1        0.0793
      6 N          -5.0736   -0.8724   -0.7177 N.ar    1  LIG1       -0.2321
      7 H          -1.6039   -1.0736    0.9505 H       1  LIG1        0.0622
      8 H          -2.5972   -3.0903   -0.1068 H       1  LIG1        0.0652
      9 N          -5.0558   -3.1288   -1.2275 N.pl3   1  LIG1       -0.3431
     10 H          -5.8373   -2.8820   -1.8192 H       1  LIG1        0.1437
     11 H          -4.4751   -3.8690   -1.5932 H       1  LIG1        0.1437
     12 C          -2.6916    1.4165    1.1873 C.3     1  LIG1       -0.0377
     13 H          -3.4195    1.8555    1.8777 H       1  LIG1        0.0278
     14 H          -2.4081    2.2064    0.4840 H       1  LIG1        0.0278
     15 H          -1.8070    1.1351    1.7660 H       1  LIG1        0.0278
     16 C          -4.9867    2.6336   -0.8942 C.ar    1  LIG1        0.1254
     17 C          -5.3760    1.4483   -0.2184 C.ar    1  LIG1        0.0404
     18 C          -6.6487    1.4349    0.3475 C.ar    1  LIG1       -0.0449
     19 C          -7.4775    2.5630    0.3089 C.ar    1  LIG1       -0.0316
     20 C          -6.9596    3.6786   -0.3497 C.ar    1  LIG1        0.0326
     21 N          -5.7654    3.7211   -0.9491 N.ar    1  LIG1       -0.2398
     22 H          -6.9875    0.5224    0.8314 H       1  LIG1        0.0628
     23 H          -7.5495    4.5932   -0.4117 H       1  LIG1        0.0833
     24 N          -3.7575    2.7425   -1.5321 N.pl3   1  LIG1       -0.3426
     25 H          -3.3681    1.8834   -1.8949 H       1  LIG1        0.1437
     26 H          -3.7256    3.5196   -2.1785 H       1  LIG1        0.1437
     27 C          -8.8480    2.5736    0.9385 C.3     1  LIG1       -0.0383
     28 H          -8.8003    2.3804    2.0166 H       1  LIG1        0.0278
     29 H          -9.4991    1.8067    0.5029 H       1  LIG1        0.0278
     30 H          -9.3377    3.5418    0.7981 H       1  LIG1        0.0278
@<TRIPOS>BOND
     1    26    24    1
     2    25    24    1
     3    10     9    1
     4    11     9    1
     5    24    16    1
     6     9     1    1
     7    21    16   ar
     8    21    20   ar
     9    16    17   ar
    10     6     1   ar
    11     6     5   ar
    12     1     2   ar
    13    23    20    1
    14    20    19   ar
    15    17     5    1
    16    17    18   ar
    17     5     4   ar
    18     2     8    1
    19     2     3   ar
    20    19    18   ar
    21    19    27    1
    22    18    22    1
    23     3     4   ar
    24     3     7    1
    25     4    12    1
    26    14    12    1
    27    29    27    1
    28    30    27    1
    29    27    28    1
    30    12    15    1
    31    12    13    1
