@<TRIPOS>MOLECULE
mol_data/opt/b3lyp/geoms/mol2/6hi6ai-12fa6fa.out
 46 49 0 0 0
SMALL
GASTEIGER

@<TRIPOS>ATOM
      1 C          -4.2812   -1.9722   -0.9506 C.ar    1  LIG1        0.1168
      2 C          -3.1150   -2.2164   -0.2002 C.ar    1  LIG1       -0.0218
      3 C          -2.6583   -1.2041    0.6244 C.ar    1  LIG1       -0.0536
      4 C          -3.3156    0.0340    0.7062 C.ar    1  LIG1       -0.0243
      5 C          -4.4558    0.1859   -0.1099 C.ar    1  LIG1        0.0774
      6 N          -4.9205   -0.8009   -0.9030 N.ar    1  LIG1       -0.2321
      7 H          -1.7762   -1.3730    1.2378 H       1  LIG1        0.0622
      8 H          -2.6089   -3.1756   -0.2504 H       1  LIG1        0.0652
      9 N          -4.8534   -2.9536   -1.7412 N.pl3   1  LIG1       -0.3431
     10 H          -5.5331   -2.5996   -2.3999 H       1  LIG1        0.1437
     11 H          -4.2363   -3.6599   -2.1136 H       1  LIG1        0.1437
     12 C          -2.8034    1.0790    1.6712 C.3     1  LIG1       -0.0377
     13 H          -3.6143    1.6687    2.1063 H       1  LIG1        0.0278
     14 H          -2.1062    1.7827    1.1988 H       1  LIG1        0.0278
     15 H          -2.2609    0.5994    2.4917 H       1  LIG1        0.0278
     16 C          -6.6798    1.3215   -0.2347 C.ar    1  LIG1        0.0376
     17 C          -5.2795    1.4246   -0.1580 C.ar    1  LIG1        0.0190
     18 C          -4.7553    2.7200   -0.1603 C.ar    1  LIG1       -0.0461
     19 C          -5.5804    3.8456   -0.2405 C.ar    1  LIG1       -0.0207
     20 C          -6.9693    3.6097   -0.3481 C.ar    1  LIG1        0.1125
     21 N          -7.4964    2.3641   -0.3216 N.ar    1  LIG1       -0.2508
     22 H          -3.6823    2.8719   -0.1035 H       1  LIG1        0.0628
     23 H          -7.1414    0.3381   -0.2272 H       1  LIG1        0.0836
     24 C          -4.9775    5.2254   -0.1604 C.3     1  LIG1       -0.0376
     25 H          -5.5471    5.8634    0.5232 H       1  LIG1        0.0278
     26 H          -4.9748    5.7311   -1.1293 H       1  LIG1        0.0278
     27 H          -3.9476    5.1699    0.2027 H       1  LIG1        0.0278
     28 C          -7.9701    4.6695   -0.4609 C.ar    1  LIG1        0.1951
     29 C          -8.0961    5.8953   -1.0831 C.ar    1  LIG1        0.1648
     30 C          -9.4353    6.3493   -0.8996 C.ar    1  LIG1        0.0267
     31 C         -10.0816    5.3719   -0.1829 C.ar    1  LIG1        0.1445
     32 O          -9.2041    4.3661    0.0833 O.2     1  LIG1       -0.4493
     33 O          -7.1211    6.5132   -1.8040 O.3     1  LIG1       -0.5031
     34 H          -7.4733    7.3388   -2.1584 H       1  LIG1        0.2923
     35 H          -9.8676    7.2589   -1.2924 H       1  LIG1        0.0692
     36 C         -11.9798    3.9476    0.7029 C.ar    1  LIG1        0.2232
     37 C         -11.4430    5.2090    0.2996 C.ar    1  LIG1        0.0787
     38 C         -12.3091    6.3101    0.3499 C.ar    1  LIG1       -0.0445
     39 C         -13.6248    6.1533    0.7662 C.ar    1  LIG1       -0.0427
     40 C         -14.0368    4.8715    1.1311 C.ar    1  LIG1        0.0314
     41 N         -13.2420    3.8005    1.1034 N.ar    1  LIG1       -0.2209
     42 H         -11.9351    7.2908    0.0706 H       1  LIG1        0.0627
     43 H         -15.0575    4.6948    1.4664 H       1  LIG1        0.0831
     44 O         -11.2720    2.8053    0.7068 O.3     1  LIG1       -0.4919
     45 H         -10.3480    2.9618    0.4441 H       1  LIG1        0.2937
     46 H         -14.3071    6.9946    0.8143 H       1  LIG1        0.0633
@<TRIPOS>BOND
     1    10     9    1
     2    34    33    1
     3    11     9    1
     4    33    29    1
     5     9     1    1
     6    35    30    1
     7    26    24    1
     8    29    30   ar
     9    29    28   ar
    10     1     6   ar
    11     1     2   ar
    12     6     5   ar
    13    30    31   ar
    14    28    20    1
    15    28    32   ar
    16    20    21   ar
    17    20    19   ar
    18    21    16   ar
    19     8     2    1
    20    19    24    1
    21    19    18   ar
    22    16    23    1
    23    16    17   ar
    24     2     3   ar
    25    31    32   ar
    26    31    37    1
    27    24    27    1
    28    24    25    1
    29    18    17   ar
    30    18    22    1
    31    17     5    1
    32     5     4   ar
    33    42    38    1
    34    37    38   ar
    35    37    36   ar
    36    38    39   ar
    37    45    44    1
    38     3     4   ar
    39     3     7    1
    40    36    44    1
    41    36    41   ar
    42     4    12    1
    43    39    46    1
    44    39    40   ar
    45    41    40   ar
    46    40    43    1
    47    14    12    1
    48    12    13    1
    49    12    15    1
