@<TRIPOS>MOLECULE
mol_data/opt/b3lyp/geoms/mol2/6hi6hd-4hf-4hi.out
 56 59 0 0 0
SMALL
GASTEIGER

@<TRIPOS>ATOM
      1 C          -3.6261   -1.7526   -1.4103 C.ar    1  LIG1        0.1168
      2 C          -2.8333   -2.2245   -0.3478 C.ar    1  LIG1       -0.0218
      3 C          -2.8821   -1.5298    0.8463 C.ar    1  LIG1       -0.0536
      4 C          -3.6659   -0.3740    1.0015 C.ar    1  LIG1       -0.0242
      5 C          -4.3890    0.0445   -0.1347 C.ar    1  LIG1        0.0793
      6 N          -4.3761   -0.6532   -1.2937 N.ar    1  LIG1       -0.2321
      7 H          -2.3079   -1.8915    1.6957 H       1  LIG1        0.0622
      8 H          -2.2302   -3.1203   -0.4567 H       1  LIG1        0.0652
      9 N          -3.7100   -2.4340   -2.6119 N.pl3   1  LIG1       -0.3431
     10 H          -4.0556   -1.8762   -3.3804 H       1  LIG1        0.1437
     11 H          -2.9299   -3.0281   -2.8513 H       1  LIG1        0.1437
     12 C          -3.7181    0.2967    2.3558 C.3     1  LIG1       -0.0377
     13 H          -4.6880    0.7616    2.5468 H       1  LIG1        0.0278
     14 H          -2.9547    1.0759    2.4707 H       1  LIG1        0.0278
     15 H          -3.5381   -0.4403    3.1441 H       1  LIG1        0.0278
     16 C          -6.5114    1.3269   -0.7935 C.ar    1  LIG1        0.1262
     17 C          -5.2282    1.2761   -0.1541 C.ar    1  LIG1        0.0414
     18 C          -4.8034    2.4572    0.4314 C.ar    1  LIG1       -0.0298
     19 C          -5.6009    3.6181    0.4265 C.ar    1  LIG1        0.0785
     20 C          -6.8632    3.5601   -0.2159 C.ar    1  LIG1        0.0923
     21 N          -7.2819    2.4288   -0.7924 N.ar    1  LIG1       -0.2304
     22 H          -3.8320    2.5042    0.9087 H       1  LIG1        0.0639
     23 N          -7.0403    0.2379   -1.4122 N.pl3   1  LIG1       -0.3426
     24 H          -7.8704    0.4195   -1.9568 H       1  LIG1        0.1437
     25 H          -6.3758   -0.4524   -1.7415 H       1  LIG1        0.1437
     26 N          -4.7088    5.6979    1.6910 N.1     1  LIG1       -0.1908
     27 C          -5.1312    4.7721    1.1230 C.1     1  LIG1        0.1013
     28 C          -7.5125    5.9908   -0.7201 C.ar    1  LIG1        0.0347
     29 C          -8.5242    6.9662   -0.6854 C.ar    1  LIG1       -0.0291
     30 C          -7.8231    4.6972   -0.2457 C.ar    1  LIG1        0.0258
     31 C          -9.8208    6.7206   -0.2249 C.ar    1  LIG1        0.0271
     32 H          -8.2890    7.9639   -1.0449 H       1  LIG1        0.0643
     33 C          -9.1347    4.4328    0.1831 C.ar    1  LIG1       -0.0086
     34 C         -10.1198    5.4103    0.2110 C.ar    1  LIG1        0.1253
     35 H          -9.3698    3.4214    0.5052 H       1  LIG1        0.0661
     36 N          -6.2911    6.3173   -1.3229 N.pl3   1  LIG1       -0.3574
     37 H          -5.5030    5.7506   -1.0463 H       1  LIG1        0.1423
     38 H          -6.0567    7.2987   -1.2468 H       1  LIG1        0.1423
     39 O         -11.3953    5.1407    0.6459 O.3     1  LIG1       -0.5061
     40 H         -11.4421    4.2074    0.8902 H       1  LIG1        0.2922
     41 C         -11.1242    8.5867   -1.3420 C.ar    1  LIG1        0.0325
     42 C         -12.0712    9.6188   -1.2368 C.ar    1  LIG1       -0.0402
     43 C         -10.8369    7.8109   -0.1932 C.ar    1  LIG1        0.0065
     44 C         -12.7217    9.8810   -0.0378 C.ar    1  LIG1       -0.0571
     45 H         -12.2884   10.2237   -2.1143 H       1  LIG1        0.0636
     46 C         -11.5188    8.0960    0.9990 C.ar    1  LIG1       -0.0492
     47 C         -12.4611    9.1197    1.1088 C.ar    1  LIG1       -0.0498
     48 H         -11.2969    7.4857    1.8692 H       1  LIG1        0.0627
     49 H         -13.4466   10.6907    0.0060 H       1  LIG1        0.0621
     50 N         -10.4617    8.3832   -2.5593 N.pl3   1  LIG1       -0.3575
     51 H         -10.0815    7.4535   -2.6815 H       1  LIG1        0.1423
     52 H         -10.9914    8.6806   -3.3680 H       1  LIG1        0.1423
     53 C         -13.1924    9.3774    2.4055 C.3     1  LIG1       -0.0397
     54 H         -12.6199    9.0165    3.2654 H       1  LIG1        0.0278
     55 H         -14.1662    8.8711    2.4290 H       1  LIG1        0.0278
     56 H         -13.3816   10.4457    2.5545 H       1  LIG1        0.0278
@<TRIPOS>BOND
     1    10     9    1
     2    52    50    1
     3    11     9    1
     4    51    50    1
     5     9     1    1
     6    50    41    1
     7    45    42    1
     8    24    23    1
     9    25    23    1
    10    23    16    1
    11     1     6   ar
    12     1     2   ar
    13    41    42   ar
    14    41    43   ar
    15    36    38    1
    16    36    37    1
    17    36    28    1
    18     6     5   ar
    19    42    44   ar
    20    32    29    1
    21    16    21   ar
    22    16    17   ar
    23    21    20   ar
    24    28    29   ar
    25    28    30   ar
    26    29    31   ar
    27     8     2    1
    28     2     3   ar
    29    30    20    1
    30    30    33   ar
    31    31    43    1
    32    31    34   ar
    33    20    19   ar
    34    43    46   ar
    35    17     5    1
    36    17    18   ar
    37     5     4   ar
    38    44    49    1
    39    44    47   ar
    40    33    34   ar
    41    33    35    1
    42    34    39    1
    43    19    18   ar
    44    19    27    1
    45    18    22    1
    46    39    40    1
    47     3     4   ar
    48     3     7    1
    49    46    47   ar
    50    46    48    1
    51     4    12    1
    52    47    53    1
    53    27    26    3
    54    12    14    1
    55    12    13    1
    56    12    15    1
    57    53    55    1
    58    53    56    1
    59    53    54    1
