@<TRIPOS>MOLECULE
mol_data/opt/b3lyp/geoms/mol2/6hi6hi-6hi.out
 44 46 0 0 0
SMALL
GASTEIGER

@<TRIPOS>ATOM
      1 C          -4.4366   -2.1420   -0.6116 C.ar    1  LIG1        0.1168
      2 C          -3.0874   -2.2409   -0.2238 C.ar    1  LIG1       -0.0218
      3 C          -2.4593   -1.0942    0.2323 C.ar    1  LIG1       -0.0536
      4 C          -3.1366    0.1334    0.2975 C.ar    1  LIG1       -0.0242
      5 C          -4.4736    0.1292   -0.1498 C.ar    1  LIG1        0.0793
      6 N          -5.1023   -0.9817   -0.5822 N.ar    1  LIG1       -0.2321
      7 H          -1.4251   -1.1461    0.5643 H       1  LIG1        0.0622
      8 H          -2.5655   -3.1924   -0.2610 H       1  LIG1        0.0652
      9 N          -5.1629   -3.2555   -1.0024 N.pl3   1  LIG1       -0.3431
     10 H          -6.0245   -3.0285   -1.4793 H       1  LIG1        0.1437
     11 H          -4.6447   -4.0167   -1.4157 H       1  LIG1        0.1437
     12 C          -2.4643    1.3568    0.8734 C.3     1  LIG1       -0.0377
     13 H          -3.0717    1.8064    1.6662 H       1  LIG1        0.0278
     14 H          -2.3072    2.1328    0.1172 H       1  LIG1        0.0278
     15 H          -1.4939    1.0930    1.3036 H       1  LIG1        0.0278
     16 C          -5.0410    2.5122   -0.9045 C.ar    1  LIG1        0.1261
     17 C          -5.3238    1.3572   -0.1364 C.ar    1  LIG1        0.0405
     18 C          -6.4985    1.3843    0.6117 C.ar    1  LIG1       -0.0443
     19 C          -7.3371    2.5038    0.6488 C.ar    1  LIG1       -0.0236
     20 C          -6.9501    3.5975   -0.1524 C.ar    1  LIG1        0.0793
     21 N          -5.8341    3.5892   -0.9035 N.ar    1  LIG1       -0.2314
     22 H          -6.7526    0.5066    1.1999 H       1  LIG1        0.0628
     23 N          -3.9089    2.6049   -1.7046 N.pl3   1  LIG1       -0.3426
     24 H          -3.5541    1.7334   -2.0732 H       1  LIG1        0.1437
     25 H          -3.9753    3.3495   -2.3855 H       1  LIG1        0.1437
     26 C          -8.5509    2.5294    1.5465 C.3     1  LIG1       -0.0377
     27 H          -8.5675    1.6473    2.1926 H       1  LIG1        0.0278
     28 H          -9.4821    2.5545    0.9713 H       1  LIG1        0.0278
     29 H          -8.5514    3.4172    2.1880 H       1  LIG1        0.0278
     30 C          -9.0588    4.9457   -0.6993 C.ar    1  LIG1        0.1254
     31 C          -7.7312    4.8702   -0.2035 C.ar    1  LIG1        0.0404
     32 C          -7.1331    6.0678    0.1803 C.ar    1  LIG1       -0.0449
     33 C          -7.8331    7.2802    0.1401 C.ar    1  LIG1       -0.0316
     34 C          -9.1451    7.2121   -0.3292 C.ar    1  LIG1        0.0326
     35 N          -9.7443    6.0944   -0.7527 N.ar    1  LIG1       -0.2398
     36 H          -6.1014    6.0426    0.5218 H       1  LIG1        0.0628
     37 H          -9.7492    8.1181   -0.3814 H       1  LIG1        0.0833
     38 N          -9.7361    3.8199   -1.1482 N.pl3   1  LIG1       -0.3426
     39 H         -10.5486    4.0514   -1.7039 H       1  LIG1        0.1437
     40 H          -9.1650    3.0795   -1.5313 H       1  LIG1        0.1437
     41 C          -7.2082    8.5824    0.5744 C.3     1  LIG1       -0.0383
     42 H          -7.9103    9.4133    0.4585 H       1  LIG1        0.0278
     43 H          -6.3150    8.8188   -0.0157 H       1  LIG1        0.0278
     44 H          -6.9005    8.5538    1.6263 H       1  LIG1        0.0278
@<TRIPOS>BOND
     1    25    23    1
     2    24    23    1
     3    23    16    1
     4    39    38    1
     5    40    38    1
     6    10     9    1
     7    11     9    1
     8    38    30    1
     9     9     1    1
    10    16    21   ar
    11    16    17   ar
    12    21    20   ar
    13    35    30   ar
    14    35    34   ar
    15    30    31   ar
    16     1     6   ar
    17     1     2   ar
    18     6     5   ar
    19    37    34    1
    20    34    33   ar
    21     8     2    1
    22     2     3   ar
    23    31    20    1
    24    31    32   ar
    25    20    19   ar
    26     5    17    1
    27     5     4   ar
    28    17    18   ar
    29    43    41    1
    30    14    12    1
    31    33    32   ar
    32    33    41    1
    33    32    36    1
    34     3     4   ar
    35     3     7    1
    36     4    12    1
    37    42    41    1
    38    41    44    1
    39    18    19   ar
    40    18    22    1
    41    19    26    1
    42    12    15    1
    43    12    13    1
    44    28    26    1
    45    26    29    1
    46    26    27    1
