@<TRIPOS>MOLECULE
mol_data/opt/b3lyp/geoms/mol2/6hi6hi6hi.out
 44 46 0 0 0
SMALL
GASTEIGER

@<TRIPOS>ATOM
      1 C          -4.2669   -1.9747   -1.1892 C.ar    1  LIG1        0.1168
      2 C          -3.0372   -2.1960   -0.5428 C.ar    1  LIG1       -0.0218
      3 C          -2.5927   -1.2259    0.3371 C.ar    1  LIG1       -0.0536
      4 C          -3.3172   -0.0447    0.5654 C.ar    1  LIG1       -0.0242
      5 C          -4.5160    0.1044   -0.1636 C.ar    1  LIG1        0.0793
      6 N          -4.9732   -0.8573   -0.9979 N.ar    1  LIG1       -0.2321
      7 H          -1.6634   -1.3849    0.8790 H       1  LIG1        0.0622
      8 H          -2.4762   -3.1107   -0.7074 H       1  LIG1        0.0652
      9 N          -4.8338   -2.9299   -2.0177 N.pl3   1  LIG1       -0.3431
     10 H          -5.5442   -2.5638   -2.6364 H       1  LIG1        0.1437
     11 H          -4.1976   -3.5768   -2.4604 H       1  LIG1        0.1437
     12 C          -2.8067    0.9425    1.5907 C.3     1  LIG1       -0.0377
     13 H          -3.6222    1.4745    2.0857 H       1  LIG1        0.0278
     14 H          -2.1428    1.6986    1.1535 H       1  LIG1        0.0278
     15 H          -2.2289    0.4192    2.3588 H       1  LIG1        0.0278
     16 C          -6.7953    1.2479    0.0096 C.ar    1  LIG1        0.1261
     17 C          -5.3738    1.3188   -0.0755 C.ar    1  LIG1        0.0405
     18 C          -4.8333    2.6012   -0.0870 C.ar    1  LIG1       -0.0443
     19 C          -5.6096    3.7648   -0.0086 C.ar    1  LIG1       -0.0236
     20 C          -7.0038    3.5785    0.0824 C.ar    1  LIG1        0.0793
     21 N          -7.5533    2.3459    0.1044 N.ar    1  LIG1       -0.2314
     22 H          -3.7561    2.7101   -0.1693 H       1  LIG1        0.0628
     23 N          -7.4593    0.0437    0.0562 N.pl3   1  LIG1       -0.3426
     24 H          -8.4519    0.1268   -0.1125 H       1  LIG1        0.1437
     25 H          -6.9850   -0.7106   -0.4262 H       1  LIG1        0.1437
     26 C          -4.9160    5.1083    0.0210 C.3     1  LIG1       -0.0377
     27 H          -5.4653    5.8362    0.6224 H       1  LIG1        0.0278
     28 H          -4.7924    5.5415   -0.9795 H       1  LIG1        0.0278
     29 H          -3.9133    5.0050    0.4478 H       1  LIG1        0.0278
     30 C          -9.0839    4.6982    1.0558 C.ar    1  LIG1        0.1254
     31 C          -7.9734    4.7075    0.1552 C.ar    1  LIG1        0.0404
     32 C          -7.8608    5.8155   -0.6831 C.ar    1  LIG1       -0.0449
     33 C          -8.7622    6.8863   -0.6217 C.ar    1  LIG1       -0.0316
     34 C          -9.7752    6.7725    0.3291 C.ar    1  LIG1        0.0326
     35 N          -9.9473    5.7220    1.1365 N.ar    1  LIG1       -0.2398
     36 H          -7.0612    5.8390   -1.4178 H       1  LIG1        0.0628
     37 H         -10.5064    7.5741    0.4388 H       1  LIG1        0.0833
     38 N          -9.2958    3.6566    1.9282 N.pl3   1  LIG1       -0.3426
     39 H         -10.2065    3.6842    2.3645 H       1  LIG1        0.1437
     40 H          -8.9764    2.7553    1.5940 H       1  LIG1        0.1437
     41 C          -8.6498    8.0835   -1.5321 C.3     1  LIG1       -0.0383
     42 H          -9.4399    8.8106   -1.3220 H       1  LIG1        0.0278
     43 H          -8.7349    7.8015   -2.5885 H       1  LIG1        0.0278
     44 H          -7.6887    8.5980   -1.4132 H       1  LIG1        0.0278
@<TRIPOS>BOND
     1    10     9    1
     2    43    41    1
     3    11     9    1
     4     9     1    1
     5    41    44    1
     6    41    42    1
     7    41    33    1
     8    36    32    1
     9     1     6   ar
    10     1     2   ar
    11     6     5   ar
    12    28    26    1
    13     8     2    1
    14    32    33   ar
    15    32    31   ar
    16    33    34   ar
    17     2     3   ar
    18    25    23    1
    19    22    18    1
    20     5    17    1
    21     5     4   ar
    22    24    23    1
    23    18    17   ar
    24    18    19   ar
    25    17    16   ar
    26    19    26    1
    27    19    20   ar
    28    16    23    1
    29    16    21   ar
    30    26    29    1
    31    26    27    1
    32    20    21   ar
    33    20    31    1
    34    31    30   ar
    35    34    37    1
    36    34    35   ar
    37     3     4   ar
    38     3     7    1
    39     4    12    1
    40    30    35   ar
    41    30    38    1
    42    14    12    1
    43    12    13    1
    44    12    15    1
    45    40    38    1
    46    38    39    1
