@<TRIPOS>MOLECULE
mol_data/opt/b3lyp/geoms/mol2/6hi6hi6hi6hi.out
 58 61 0 0 0
SMALL
GASTEIGER

@<TRIPOS>ATOM
      1 C          -3.9527   -1.8253   -1.6432 C.ar    1  LIG1        0.1168
      2 C          -2.9381   -2.2432   -0.7624 C.ar    1  LIG1       -0.0218
      3 C          -2.7389   -1.4972    0.3849 C.ar    1  LIG1       -0.0536
      4 C          -3.4940   -0.3455    0.6603 C.ar    1  LIG1       -0.0242
      5 C          -4.4576    0.0157   -0.3046 C.ar    1  LIG1        0.0793
      6 N          -4.6814   -0.7303   -1.4107 N.ar    1  LIG1       -0.2321
      7 H          -1.9863   -1.8154    1.1024 H       1  LIG1        0.0622
      8 H          -2.3564   -3.1371   -0.9644 H       1  LIG1        0.0652
      9 N          -4.2828   -2.5592   -2.7708 N.pl3   1  LIG1       -0.3431
     10 H          -4.8029   -2.0360   -3.4617 H       1  LIG1        0.1437
     11 H          -3.5558   -3.1425   -3.1583 H       1  LIG1        0.1437
     12 C          -3.2677    0.3855    1.9645 C.3     1  LIG1       -0.0377
     13 H          -4.1824    0.8549    2.3333 H       1  LIG1        0.0278
     14 H          -2.5088    1.1732    1.8795 H       1  LIG1        0.0278
     15 H          -2.9146   -0.3135    2.7290 H       1  LIG1        0.0278
     16 C          -6.7001    1.2282   -0.4858 C.ar    1  LIG1        0.1261
     17 C          -5.3056    1.2346   -0.1884 C.ar    1  LIG1        0.0405
     18 C          -4.7787    2.4606    0.2062 C.ar    1  LIG1       -0.0443
     19 C          -5.5456    3.6273    0.3245 C.ar    1  LIG1       -0.0236
     20 C          -6.9148    3.5061    0.0127 C.ar    1  LIG1        0.0793
     21 N          -7.4535    2.3265   -0.3630 N.ar    1  LIG1       -0.2314
     22 H          -3.7176    2.5228    0.4279 H       1  LIG1        0.0628
     23 N          -7.3559    0.0782   -0.8595 N.pl3   1  LIG1       -0.3426
     24 H          -8.2695    0.2477   -1.2558 H       1  LIG1        0.1437
     25 H          -6.7739   -0.5918   -1.3486 H       1  LIG1        0.1437
     26 C          -4.8806    4.8937    0.8155 C.3     1  LIG1       -0.0377
     27 H          -5.5649    5.5127    1.4002 H       1  LIG1        0.0278
     28 H          -4.4988    5.5155   -0.0039 H       1  LIG1        0.0278
     29 H          -4.0240    4.6464    1.4503 H       1  LIG1        0.0278
     30 C          -9.1826    4.5204    0.6078 C.ar    1  LIG1        0.1261
     31 C          -7.8700    4.6468    0.0642 C.ar    1  LIG1        0.0405
     32 C          -7.5421    5.9054   -0.4317 C.ar    1  LIG1       -0.0443
     33 C          -8.4188    6.9979   -0.4008 C.ar    1  LIG1       -0.0236
     34 C          -9.6870    6.7636    0.1676 C.ar    1  LIG1        0.0793
     35 N         -10.0278    5.5557    0.6636 N.ar    1  LIG1       -0.2314
     36 H          -6.5617    6.0504   -0.8748 H       1  LIG1        0.0628
     37 N          -9.6290    3.3399    1.1553 N.pl3   1  LIG1       -0.3426
     38 H         -10.6296    3.3159    1.2928 H       1  LIG1        0.1437
     39 H          -9.2126    2.5110    0.7464 H       1  LIG1        0.1437
     40 C          -7.9413    8.3351   -0.9217 C.3     1  LIG1       -0.0377
     41 H          -8.3856    9.1682   -0.3720 H       1  LIG1        0.0278
     42 H          -8.1780    8.4842   -1.9827 H       1  LIG1        0.0278
     43 H          -6.8534    8.4091   -0.8261 H       1  LIG1        0.0278
     44 C         -11.5383    7.9847    1.4373 C.ar    1  LIG1        0.1254
     45 C         -10.7438    7.8098    0.2613 C.ar    1  LIG1        0.0404
     46 C         -11.0332    8.6465   -0.8151 C.ar    1  LIG1       -0.0449
     47 C         -12.0213    9.6371   -0.7402 C.ar    1  LIG1       -0.0316
     48 C         -12.6949    9.7307    0.4766 C.ar    1  LIG1        0.0326
     49 N         -12.4792    8.9368    1.5294 N.ar    1  LIG1       -0.2398
     50 H         -10.4891    8.5118   -1.7455 H       1  LIG1        0.0628
     51 H         -13.4709   10.4856    0.6084 H       1  LIG1        0.0833
     52 N         -11.3423    7.2156    2.5603 N.pl3   1  LIG1       -0.3426
     53 H         -12.0857    7.3076    3.2381 H       1  LIG1        0.1437
     54 H         -11.0062    6.2781    2.3752 H       1  LIG1        0.1437
     55 C         -12.3424   10.5402   -1.9047 C.3     1  LIG1       -0.0383
     56 H         -13.1452   11.2382   -1.6493 H       1  LIG1        0.0278
     57 H         -12.6683    9.9708   -2.7834 H       1  LIG1        0.0278
     58 H         -11.4739   11.1354   -2.2113 H       1  LIG1        0.0278
@<TRIPOS>BOND
     1    10     9    1
     2    11     9    1
     3    57    55    1
     4     9     1    1
     5    58    55    1
     6    42    40    1
     7    55    56    1
     8    55    47    1
     9    50    46    1
    10     1     6   ar
    11     1     2   ar
    12     6     5   ar
    13    25    23    1
    14    24    23    1
    15     8     2    1
    16    40    43    1
    17    40    33    1
    18    40    41    1
    19    36    32    1
    20    23    16    1
    21    46    47   ar
    22    46    45   ar
    23     2     3   ar
    24    47    48   ar
    25    16    21   ar
    26    16    17   ar
    27    32    33   ar
    28    32    31   ar
    29    33    34   ar
    30    21    20   ar
    31     5    17    1
    32     5     4   ar
    33    17    18   ar
    34    28    26    1
    35    20    31    1
    36    20    19   ar
    37    31    30   ar
    38    34    45    1
    39    34    35   ar
    40    18    19   ar
    41    18    22    1
    42    45    44   ar
    43    19    26    1
    44     3     4   ar
    45     3     7    1
    46    48    51    1
    47    48    49   ar
    48    30    35   ar
    49    30    37    1
    50     4    12    1
    51    39    37    1
    52    26    27    1
    53    26    29    1
    54    37    38    1
    55    44    49   ar
    56    44    52    1
    57    14    12    1
    58    12    13    1
    59    12    15    1
    60    54    52    1
    61    52    53    1
