@<TRIPOS>MOLECULE
mol_data/opt/b3lyp/geoms/mol2/6hi6hi6hi-6hi.out
 58 61 0 0 0
SMALL
GASTEIGER

@<TRIPOS>ATOM
      1 C          -4.0859   -2.0277   -1.2370 C.ar    1  LIG1        0.1168
      2 C          -2.9640   -2.2925   -0.4308 C.ar    1  LIG1       -0.0218
      3 C          -2.6384   -1.3613    0.5388 C.ar    1  LIG1       -0.0536
      4 C          -3.3747   -0.1773    0.7053 C.ar    1  LIG1       -0.0242
      5 C          -4.4556    0.0174   -0.1806 C.ar    1  LIG1        0.0793
      6 N          -4.7992   -0.9059   -1.1075 N.ar    1  LIG1       -0.2321
      7 H          -1.7977   -1.5546    1.2009 H       1  LIG1        0.0622
      8 H          -2.3961   -3.2102   -0.5477 H       1  LIG1        0.0652
      9 N          -4.5397   -2.9437   -2.1729 N.pl3   1  LIG1       -0.3431
     10 H          -5.1507   -2.5440   -2.8718 H       1  LIG1        0.1437
     11 H          -3.8543   -3.5848   -2.5450 H       1  LIG1        0.1437
     12 C          -3.0051    0.7655    1.8282 C.3     1  LIG1       -0.0377
     13 H          -3.8777    1.2911    2.2224 H       1  LIG1        0.0278
     14 H          -2.2800    1.5279    1.5173 H       1  LIG1        0.0278
     15 H          -2.5461    0.2073    2.6501 H       1  LIG1        0.0278
     16 C          -6.7249    1.1876   -0.2837 C.ar    1  LIG1        0.1261
     17 C          -5.3043    1.2416   -0.1679 C.ar    1  LIG1        0.0405
     18 C          -4.7473    2.5148   -0.0658 C.ar    1  LIG1       -0.0443
     19 C          -5.5190    3.6831   -0.0507 C.ar    1  LIG1       -0.0236
     20 C          -6.9114    3.5041   -0.1623 C.ar    1  LIG1        0.0793
     21 N          -7.4838    2.2922   -0.2700 N.ar    1  LIG1       -0.2314
     22 H          -3.6677    2.6093    0.0010 H       1  LIG1        0.0628
     23 N          -7.4005   -0.0075   -0.3645 N.pl3   1  LIG1       -0.3426
     24 H          -8.3691    0.0992   -0.6303 H       1  LIG1        0.1437
     25 H          -6.8845   -0.7561   -0.8100 H       1  LIG1        0.1437
     26 C          -4.8697    5.0341    0.1338 C.3     1  LIG1       -0.0377
     27 H          -5.3279    5.5845    0.9627 H       1  LIG1        0.0278
     28 H          -4.9702    5.6637   -0.7564 H       1  LIG1        0.0278
     29 H          -3.8047    4.9204    0.3564 H       1  LIG1        0.0278
     30 C          -7.9047    5.6665   -1.1142 C.ar    1  LIG1        0.1261
     31 C          -7.8717    4.6476   -0.1320 C.ar    1  LIG1        0.0405
     32 C          -8.8400    4.7193    0.8664 C.ar    1  LIG1       -0.0443
     33 C          -9.7684    5.7643    0.9355 C.ar    1  LIG1       -0.0236
     34 C          -9.6990    6.7265   -0.0925 C.ar    1  LIG1        0.0793
     35 N          -8.7914    6.6675   -1.0838 N.ar    1  LIG1       -0.2314
     36 H          -8.8530    3.9422    1.6259 H       1  LIG1        0.0628
     37 N          -7.0052    5.6952   -2.1723 N.pl3   1  LIG1       -0.3426
     38 H          -6.6510    4.7987   -2.4760 H       1  LIG1        0.1437
     39 H          -7.3081    6.3006   -2.9235 H       1  LIG1        0.1437
     40 C         -10.7410    5.8571    2.0868 C.3     1  LIG1       -0.0377
     41 H         -10.4961    5.1181    2.8547 H       1  LIG1        0.0278
     42 H         -11.7736    5.6899    1.7632 H       1  LIG1        0.0278
     43 H         -10.7128    6.8486    2.5513 H       1  LIG1        0.0278
     44 C         -12.0128    7.8037   -0.3078 C.ar    1  LIG1        0.1254
     45 C         -10.6074    7.9117   -0.1431 C.ar    1  LIG1        0.0404
     46 C         -10.0752    9.1977   -0.0996 C.ar    1  LIG1       -0.0449
     47 C         -10.8969   10.3309   -0.1503 C.ar    1  LIG1       -0.0316
     48 C         -12.2651   10.0875   -0.2720 C.ar    1  LIG1        0.0326
     49 N         -12.8164    8.8730   -0.3650 N.ar    1  LIG1       -0.2398
     50 H          -8.9967    9.3069   -0.0183 H       1  LIG1        0.0628
     51 H         -12.9625   10.9245   -0.3114 H       1  LIG1        0.0833
     52 N         -12.6435    6.5708   -0.4052 N.pl3   1  LIG1       -0.3426
     53 H         -13.5811    6.6421   -0.7770 H       1  LIG1        0.1437
     54 H         -12.0938    5.8193   -0.7980 H       1  LIG1        0.1437
     55 C         -10.3390   11.7304   -0.0810 C.3     1  LIG1       -0.0383
     56 H         -11.1381   12.4755   -0.1388 H       1  LIG1        0.0278
     57 H          -9.6411   11.9290   -0.9029 H       1  LIG1        0.0278
     58 H          -9.7926   11.9034    0.8536 H       1  LIG1        0.0278
@<TRIPOS>BOND
     1    39    37    1
     2    10     9    1
     3    11     9    1
     4    38    37    1
     5     9     1    1
     6    37    30    1
     7     1     6   ar
     8     1     2   ar
     9    30    35   ar
    10    30    31   ar
    11     6     5   ar
    12    35    34   ar
    13    57    55    1
    14    25    23    1
    15    54    52    1
    16    53    52    1
    17    28    26    1
    18    24    23    1
    19     8     2    1
    20     2     3   ar
    21    52    44    1
    22    49    44   ar
    23    49    48   ar
    24    23    16    1
    25    51    48    1
    26    44    45   ar
    27    16    21   ar
    28    16    17   ar
    29    48    47   ar
    30    21    20   ar
    31     5    17    1
    32     5     4   ar
    33    17    18   ar
    34    20    31    1
    35    20    19   ar
    36    47    46   ar
    37    47    55    1
    38    45    46   ar
    39    45    34    1
    40    56    55    1
    41    31    32   ar
    42    46    50    1
    43    34    33   ar
    44    55    58    1
    45    18    19   ar
    46    18    22    1
    47    19    26    1
    48    26    29    1
    49    26    27    1
    50     3     4   ar
    51     3     7    1
    52     4    12    1
    53    32    33   ar
    54    32    36    1
    55    33    40    1
    56    14    12    1
    57    42    40    1
    58    12    13    1
    59    12    15    1
    60    40    43    1
    61    40    41    1
