@<TRIPOS>MOLECULE
mol_data/opt/b3lyp/geoms/mol2/6hi6ae-12eh12la-.out
 49 52 0 0 0
SMALL
GASTEIGER

@<TRIPOS>ATOM
      1 C          -3.9734   -1.8446   -1.0926 C.ar    1  LIG1        0.1168
      2 C          -2.9331   -2.1340   -0.1883 C.ar    1  LIG1       -0.0218
      3 C          -2.6702   -1.2105    0.8069 C.ar    1  LIG1       -0.0536
      4 C          -3.3968   -0.0132    0.9133 C.ar    1  LIG1       -0.0243
      5 C          -4.3954    0.1916   -0.0604 C.ar    1  LIG1        0.0775
      6 N          -4.6743   -0.7101   -1.0231 N.ar    1  LIG1       -0.2321
      7 H          -1.8909   -1.4195    1.5359 H       1  LIG1        0.0622
      8 H          -2.3748   -3.0625   -0.2583 H       1  LIG1        0.0652
      9 N          -4.3552   -2.7456   -2.0706 N.pl3   1  LIG1       -0.3431
     10 H          -4.9362   -2.3420   -2.7923 H       1  LIG1        0.1437
     11 H          -3.6495   -3.3835   -2.4073 H       1  LIG1        0.1437
     12 C          -3.1015    0.9316    2.0560 C.3     1  LIG1       -0.0377
     13 H          -4.0007    1.4403    2.4128 H       1  LIG1        0.0278
     14 H          -2.3755    1.7079    1.7830 H       1  LIG1        0.0278
     15 H          -2.6733    0.3802    2.8985 H       1  LIG1        0.0278
     16 C          -6.6283    1.2607   -0.4365 C.ar    1  LIG1        0.0376
     17 C          -5.2642    1.3998   -0.1103 C.ar    1  LIG1        0.0200
     18 C          -4.8105    2.6968    0.1169 C.ar    1  LIG1       -0.0335
     19 C          -5.6878    3.7923    0.0207 C.ar    1  LIG1        0.0543
     20 C          -7.0308    3.5283   -0.3474 C.ar    1  LIG1        0.1226
     21 N          -7.4784    2.2742   -0.5479 N.ar    1  LIG1       -0.2500
     22 H          -3.7745    2.8910    0.3663 H       1  LIG1        0.0637
     23 H          -7.0277    0.2670   -0.6196 H       1  LIG1        0.0836
     24 C          -5.2059    5.0923    0.3557 C.1     1  LIG1       -0.0674
     25 C          -4.7499    6.1643    0.6825 C.1     1  LIG1       -0.1138
     26 H          -4.3775    7.1263    0.9480 H       1  LIG1        0.1232
     27 C          -8.0326    4.5855   -0.5188 C.ar    1  LIG1        0.1723
     28 C          -8.0301    5.8083   -1.1732 C.ar    1  LIG1        0.0933
     29 C          -9.3702    6.3244   -1.0549 C.ar    1  LIG1        0.0905
     30 C         -10.0884    5.4025   -0.3326 C.ar    1  LIG1        0.1960
     31 O          -9.2624    4.3344   -0.0181 O.2     1  LIG1       -0.4468
     32 C          -7.0163    6.4238   -1.9451 C.1     1  LIG1       -0.0639
     33 C          -6.2180    7.0049   -2.6469 C.1     1  LIG1       -0.1137
     34 H          -5.4842    7.4866   -3.2502 H       1  LIG1        0.1232
     35 N          -9.7936    7.5558   -1.5434 N.pl3   1  LIG1       -0.3540
     36 H          -9.2216    7.8912   -2.3098 H       1  LIG1        0.1425
     37 H         -10.7809    7.5848   -1.7696 H       1  LIG1        0.1425
     38 C         -11.4681    5.3539    0.0868 C.ar    1  LIG1        0.2128
     39 C         -12.2944    6.1519    0.8569 C.ar    1  LIG1        0.1687
     40 C         -13.6030    5.5692    0.8225 C.ar    1  LIG1        0.0187
     41 C         -13.4903    4.4514    0.0576 C.ar    1  LIG1        0.0964
     42 O         -12.2288    4.2948   -0.4011 O.2     1  LIG1       -0.4560
     43 H         -14.1963    3.6875   -0.2312 H       1  LIG1        0.1031
     44 O         -12.0604    7.2730    1.5753 O.3     1  LIG1       -0.4912
     45 C         -10.7033    7.6360    1.8408 C.3     1  LIG1        0.0790
     46 H         -10.7539    8.4426    2.5742 H       1  LIG1        0.0660
     47 H         -10.1476    6.7913    2.2629 H       1  LIG1        0.0660
     48 H         -10.2016    7.9930    0.9363 H       1  LIG1        0.0660
     49 H         -14.4798    5.9440    1.3287 H       1  LIG1        0.0686
@<TRIPOS>BOND
     1    34    33    1
     2    10     9    1
     3    33    32    3
     4    11     9    1
     5    36    35    1
     6     9     1    1
     7    32    28    1
     8    37    35    1
     9    35    29    1
    10    28    29   ar
    11    28    27   ar
    12     1     6   ar
    13     1     2   ar
    14    29    30   ar
    15     6     5   ar
    16    23    16    1
    17    21    16   ar
    18    21    20   ar
    19    27    20    1
    20    27    31   ar
    21    16    17   ar
    22    42    41   ar
    23    42    38   ar
    24    20    19   ar
    25    30    31   ar
    26    30    38    1
    27     8     2    1
    28    43    41    1
    29     2     3   ar
    30    17     5    1
    31    17    18   ar
    32     5     4   ar
    33    19    18   ar
    34    19    24    1
    35    41    40   ar
    36    38    39   ar
    37    18    22    1
    38    24    25    3
    39    25    26    1
    40     3     4   ar
    41     3     7    1
    42    40    39   ar
    43    40    49    1
    44    39    44    1
    45     4    12    1
    46    48    45    1
    47    44    45    1
    48    14    12    1
    49    45    47    1
    50    45    46    1
    51    12    13    1
    52    12    15    1
