@<TRIPOS>MOLECULE
mol_data/opt/b3lyp/geoms/mol2/6hi6hi6hi-6hi-.out
 58 61 0 0 0
SMALL
GASTEIGER

@<TRIPOS>ATOM
      1 C          -4.1043   -2.0127   -1.2713 C.ar    1  LIG1        0.1168
      2 C          -3.0155   -2.3187   -0.4346 C.ar    1  LIG1       -0.0218
      3 C          -2.7038   -1.4167    0.5664 C.ar    1  LIG1       -0.0536
      4 C          -3.4214   -0.2215    0.7358 C.ar    1  LIG1       -0.0242
      5 C          -4.4691    0.0140   -0.1791 C.ar    1  LIG1        0.0793
      6 N          -4.8001   -0.8804   -1.1384 N.ar    1  LIG1       -0.2321
      7 H          -1.8894   -1.6419    1.2509 H       1  LIG1        0.0622
      8 H          -2.4623   -3.2451   -0.5541 H       1  LIG1        0.0652
      9 N          -4.5436   -2.8971   -2.2436 N.pl3   1  LIG1       -0.3431
     10 H          -5.1240   -2.4691   -2.9519 H       1  LIG1        0.1437
     11 H          -3.8585   -3.5424   -2.6087 H       1  LIG1        0.1437
     12 C          -3.0683    0.6903    1.8890 C.3     1  LIG1       -0.0377
     13 H          -3.9396    1.2338    2.2608 H       1  LIG1        0.0278
     14 H          -2.3106    1.4362    1.6188 H       1  LIG1        0.0278
     15 H          -2.6560    0.1050    2.7169 H       1  LIG1        0.0278
     16 C          -6.7135    1.2272   -0.3167 C.ar    1  LIG1        0.1261
     17 C          -5.2954    1.2537   -0.1643 C.ar    1  LIG1        0.0405
     18 C          -4.7189    2.5140   -0.0220 C.ar    1  LIG1       -0.0443
     19 C          -5.4707    3.6958   -0.0027 C.ar    1  LIG1       -0.0236
     20 C          -6.8624    3.5434   -0.1531 C.ar    1  LIG1        0.0793
     21 N          -7.4532    2.3445   -0.2991 N.ar    1  LIG1       -0.2314
     22 H          -3.6399    2.5879    0.0751 H       1  LIG1        0.0628
     23 N          -7.4067    0.0461   -0.4394 N.pl3   1  LIG1       -0.3426
     24 H          -8.3664    0.1745   -0.7272 H       1  LIG1        0.1437
     25 H          -6.8924   -0.7023   -0.8870 H       1  LIG1        0.1437
     26 C          -4.8024    5.0309    0.2259 C.3     1  LIG1       -0.0377
     27 H          -5.2949    5.5888    1.0294 H       1  LIG1        0.0278
     28 H          -4.8350    5.6673   -0.6646 H       1  LIG1        0.0278
     29 H          -3.7550    4.8914    0.5087 H       1  LIG1        0.0278
     30 C          -7.7926    5.7411   -1.0877 C.ar    1  LIG1        0.1261
     31 C          -7.8033    4.7028   -0.1267 C.ar    1  LIG1        0.0405
     32 C          -8.7929    4.7818    0.8475 C.ar    1  LIG1       -0.0443
     33 C          -9.7098    5.8383    0.9138 C.ar    1  LIG1       -0.0236
     34 C          -9.6060    6.8227   -0.0918 C.ar    1  LIG1        0.0793
     35 N          -8.6586    6.7567   -1.0514 N.ar    1  LIG1       -0.2314
     36 H          -8.8366    3.9942    1.5951 H       1  LIG1        0.0628
     37 N          -6.8664    5.7746   -2.1226 N.pl3   1  LIG1       -0.3426
     38 H          -6.5047    4.8766   -2.4138 H       1  LIG1        0.1437
     39 H          -7.1562    6.3679   -2.8885 H       1  LIG1        0.1437
     40 C         -10.6956    5.8826    2.0597 C.3     1  LIG1       -0.0377
     41 H         -10.2765    5.3763    2.9345 H       1  LIG1        0.0278
     42 H         -11.6390    5.3762    1.8211 H       1  LIG1        0.0278
     43 H         -10.9410    6.9078    2.3460 H       1  LIG1        0.0278
     44 C         -10.0481    9.3110   -0.4738 C.ar    1  LIG1        0.1254
     45 C         -10.5227    7.9941   -0.1837 C.ar    1  LIG1        0.0404
     46 C         -11.9002    7.8500   -0.0263 C.ar    1  LIG1       -0.0449
     47 C         -12.7741    8.9423   -0.1053 C.ar    1  LIG1       -0.0316
     48 C         -12.1792   10.1784   -0.3523 C.ar    1  LIG1        0.0326
     49 N         -10.8702   10.3689   -0.5408 N.ar    1  LIG1       -0.2398
     50 H         -12.3085    6.8578    0.1435 H       1  LIG1        0.0628
     51 H         -12.7988   11.0734   -0.4176 H       1  LIG1        0.0833
     52 N          -8.7089    9.5735   -0.6494 N.pl3   1  LIG1       -0.3426
     53 H          -8.1769    8.8068   -1.0424 H       1  LIG1        0.1437
     54 H          -8.5340   10.4912   -1.0341 H       1  LIG1        0.1437
     55 C         -14.2657    8.7902    0.0581 C.3     1  LIG1       -0.0383
     56 H         -14.5287    8.3759    1.0388 H       1  LIG1        0.0278
     57 H         -14.6919    8.1204   -0.6985 H       1  LIG1        0.0278
     58 H         -14.7706    9.7561   -0.0366 H       1  LIG1        0.0278
@<TRIPOS>BOND
     1    10     9    1
     2    39    37    1
     3    11     9    1
     4    38    37    1
     5     9     1    1
     6    37    30    1
     7     1     6   ar
     8     1     2   ar
     9     6     5   ar
    10    30    35   ar
    11    30    31   ar
    12    35    34   ar
    13    53    52    1
    14    54    52    1
    15    25    23    1
    16    24    23    1
    17    57    55    1
    18    28    26    1
    19    52    44    1
    20     8     2    1
    21    49    44   ar
    22    49    48   ar
    23    44    45   ar
    24    23    16    1
    25     2     3   ar
    26    51    48    1
    27    48    47   ar
    28    16    21   ar
    29    16    17   ar
    30    21    20   ar
    31    45    34    1
    32    45    46   ar
    33     5    17    1
    34     5     4   ar
    35    17    18   ar
    36    20    31    1
    37    20    19   ar
    38    31    32   ar
    39    47    46   ar
    40    47    55    1
    41    34    33   ar
    42    58    55    1
    43    46    50    1
    44    18    19   ar
    45    18    22    1
    46    19    26    1
    47    55    56    1
    48    26    29    1
    49    26    27    1
    50     3     4   ar
    51     3     7    1
    52     4    12    1
    53    32    33   ar
    54    32    36    1
    55    33    40    1
    56    14    12    1
    57    42    40    1
    58    12    13    1
    59    12    15    1
    60    40    43    1
    61    40    41    1
