@<TRIPOS>MOLECULE
mol_data/opt/b3lyp/geoms/mol2/6hl12aa4le4ai-.out
 53 56 0 0 0
SMALL
GASTEIGER

@<TRIPOS>ATOM
      1 C          -4.1665   -2.3313    0.3280 C.ar    1  LIG1        0.1172
      2 C          -2.7629   -2.3526    0.2738 C.ar    1  LIG1       -0.0186
      3 C          -2.0919   -1.1474    0.1027 C.ar    1  LIG1       -0.0145
      4 C          -2.8130    0.0437   -0.0007 C.ar    1  LIG1        0.1491
      5 C          -4.2259   -0.0251    0.0670 C.ar    1  LIG1        0.1495
      6 N          -4.8641   -1.1988    0.2206 N.ar    1  LIG1       -0.2257
      7 H          -1.0094   -1.1435    0.0556 H       1  LIG1        0.0656
      8 H          -2.2130   -3.2833    0.3716 H       1  LIG1        0.0653
      9 N          -4.9037   -3.4905    0.5515 N.pl3   1  LIG1       -0.3431
     10 H          -5.8845   -3.3730    0.3339 H       1  LIG1        0.1437
     11 H          -4.5094   -4.3427    0.1788 H       1  LIG1        0.1437
     12 O          -2.2427    1.2782   -0.1678 O.3     1  LIG1       -0.4929
     13 C          -0.8286    1.3588   -0.2305 C.3     1  LIG1        0.0789
     14 H          -0.5920    2.4159   -0.3593 H       1  LIG1        0.0660
     15 H          -0.3601    0.9954    0.6933 H       1  LIG1        0.0660
     16 H          -0.4271    0.7944   -1.0823 H       1  LIG1        0.0660
     17 C          -5.0665    1.1621   -0.0342 C.ar    1  LIG1        0.1575
     18 C          -4.8333    2.5095   -0.1999 C.ar    1  LIG1       -0.0136
     19 C          -6.1002    3.1491   -0.2188 C.ar    1  LIG1       -0.0151
     20 C          -7.0471    2.1608   -0.0635 C.ar    1  LIG1        0.1393
     21 O          -6.4160    0.9527    0.0480 O.2     1  LIG1       -0.4531
     22 H          -3.8656    2.9717   -0.2947 H       1  LIG1        0.0656
     23 H          -6.3006    4.2009   -0.3313 H       1  LIG1        0.0656
     24 C          -9.3088    3.2778   -0.0930 C.ar    1  LIG1        0.1314
     25 C         -10.6975    3.1728   -0.0225 C.ar    1  LIG1       -0.0104
     26 C          -8.5002    2.1176    0.0061 C.ar    1  LIG1        0.0600
     27 C         -11.3484    1.9414    0.1461 C.ar    1  LIG1        0.0010
     28 H         -11.3102    4.0590   -0.1258 H       1  LIG1        0.0661
     29 C          -9.1534    0.8920    0.1799 C.ar    1  LIG1       -0.0316
     30 C         -10.5508    0.7751    0.2523 C.ar    1  LIG1        0.0333
     31 H          -8.5504   -0.0029    0.2718 H       1  LIG1        0.0638
     32 O          -8.6571    4.4627   -0.2674 O.3     1  LIG1       -0.4944
     33 C          -9.4193    5.6571   -0.3677 C.3     1  LIG1        0.0788
     34 H          -8.6951    6.4637   -0.4891 H       1  LIG1        0.0660
     35 H         -10.0876    5.6374   -1.2370 H       1  LIG1        0.0660
     36 H         -10.0107    5.8350    0.5386 H       1  LIG1        0.0660
     37 C         -11.1012   -0.5259    0.4807 C.1     1  LIG1       -0.0690
     38 C         -11.5093   -1.6480    0.6813 C.1     1  LIG1       -0.1139
     39 H         -11.8845   -2.6271    0.8675 H       1  LIG1        0.1232
     40 C         -13.5115    2.8650    1.0075 C.ar    1  LIG1       -0.0540
     41 C         -14.9043    2.8769    1.0515 C.ar    1  LIG1       -0.0609
     42 C         -12.8334    1.9268    0.2124 C.ar    1  LIG1       -0.0164
     43 C         -15.6393    1.9603    0.3012 C.ar    1  LIG1       -0.0588
     44 H         -15.4182    3.5969    1.6822 H       1  LIG1        0.0618
     45 C         -13.5914    1.0119   -0.5351 C.ar    1  LIG1       -0.0511
     46 C         -14.9893    1.0170   -0.5057 C.ar    1  LIG1       -0.0499
     47 H         -13.0783    0.2870   -1.1583 H       1  LIG1        0.0626
     48 H         -16.7256    1.9732    0.3434 H       1  LIG1        0.0620
     49 H         -12.9426    3.5641    1.6129 H       1  LIG1        0.0624
     50 C         -15.7804    0.0451   -1.3504 C.3     1  LIG1       -0.0397
     51 H         -15.1939   -0.8471   -1.5868 H       1  LIG1        0.0278
     52 H         -16.0826    0.4997   -2.3022 H       1  LIG1        0.0278
     53 H         -16.6948   -0.2751   -0.8410 H       1  LIG1        0.0278
@<TRIPOS>BOND
     1    52    50    1
     2    51    50    1
     3    50    53    1
     4    50    46    1
     5    35    33    1
     6    47    45    1
     7    16    13    1
     8    45    46   ar
     9    45    42   ar
    10    46    43   ar
    11    34    33    1
    12    33    32    1
    13    33    36    1
    14    14    13    1
    15    23    19    1
    16    22    18    1
    17    32    24    1
    18    13    12    1
    19    13    15    1
    20    19    18   ar
    21    19    20   ar
    22    18    17   ar
    23    12     4    1
    24    28    25    1
    25    24    25   ar
    26    24    26   ar
    27    20    26    1
    28    20    21   ar
    29    17    21   ar
    30    17     5    1
    31    25    27   ar
    32     4     5   ar
    33     4     3   ar
    34    26    29   ar
    35     7     3    1
    36     5     6   ar
    37     3     2   ar
    38    27    42    1
    39    27    30   ar
    40    11     9    1
    41    29    30   ar
    42    29    31    1
    43    42    40   ar
    44     6     1   ar
    45    30    37    1
    46     2     1   ar
    47     2     8    1
    48    43    48    1
    49    43    41   ar
    50     1     9    1
    51    10     9    1
    52    37    38    3
    53    38    39    1
    54    40    41   ar
    55    40    49    1
    56    41    44    1
