@<TRIPOS>MOLECULE
mol_data/opt/b3lyp/geoms/mol2/6hl13la6ea-6ia4dd-4aa4af4ae-.out
 97 104 0 0 0
SMALL
GASTEIGER

@<TRIPOS>ATOM
      1 C          -3.7144   -1.4147   -1.9953 C.ar    1  LIG1        0.1171
      2 C          -2.3789   -1.6975   -1.6681 C.ar    1  LIG1       -0.0186
      3 C          -1.7575   -0.9124   -0.7042 C.ar    1  LIG1       -0.0145
      4 C          -2.4557    0.1314   -0.0895 C.ar    1  LIG1        0.1476
      5 C          -3.7872    0.3725   -0.4975 C.ar    1  LIG1        0.1342
      6 N          -4.3798   -0.4086   -1.4253 N.ar    1  LIG1       -0.2272
      7 H          -0.7327   -1.1260   -0.4245 H       1  LIG1        0.0656
      8 H          -1.8477   -2.5159   -2.1434 H       1  LIG1        0.0653
      9 N          -4.4316   -2.1980   -2.8975 N.pl3   1  LIG1       -0.3431
     10 H          -5.2372   -1.7157   -3.2741 H       1  LIG1        0.1437
     11 H          -3.8795   -2.6538   -3.6108 H       1  LIG1        0.1437
     12 O          -1.9471    0.9241    0.8963 O.3     1  LIG1       -0.4929
     13 C          -0.6516    0.6388    1.3945 C.3     1  LIG1        0.0789
     14 H          -0.4759    1.3601    2.1934 H       1  LIG1        0.0660
     15 H          -0.5904   -0.3779    1.8041 H       1  LIG1        0.0660
     16 H           0.1199    0.7607    0.6224 H       1  LIG1        0.0660
     17 C          -4.6632    1.4052    0.0628 C.ar    1  LIG1        0.1113
     18 C          -4.5317    2.6234    0.7639 C.ar    1  LIG1        0.1475
     19 C          -5.8222    3.1327    0.9907 C.ar    1  LIG1        0.0062
     20 C          -6.7453    2.2415    0.4292 C.ar    1  LIG1        0.0532
     21 N          -6.0120    1.2275   -0.1247 N.ar    1  LIG1       -0.3499
     22 H          -6.3713    0.4384   -0.6459 H       1  LIG1        0.1661
     23 O          -3.4038    3.2699    1.1835 O.3     1  LIG1       -0.4929
     24 C          -2.6274    3.8525    0.1399 C.3     1  LIG1        0.0789
     25 H          -1.8086    4.3884    0.6256 H       1  LIG1        0.0660
     26 H          -2.2102    3.0902   -0.5271 H       1  LIG1        0.0660
     27 H          -3.2253    4.5604   -0.4491 H       1  LIG1        0.0660
     28 H          -6.0311    4.0519    1.5171 H       1  LIG1        0.0676
     29 C          -9.0836    1.3314   -0.1066 C.ar    1  LIG1        0.1229
     30 C          -8.1976    2.3263    0.4011 C.ar    1  LIG1        0.0323
     31 C          -8.8255    3.4771    0.9216 C.ar    1  LIG1       -0.0479
     32 C         -10.1998    3.6094    0.9139 C.ar    1  LIG1       -0.0349
     33 C         -10.9878    2.5760    0.3693 C.ar    1  LIG1        0.0741
     34 N         -10.4225    1.4670   -0.1169 N.ar    1  LIG1       -0.2377
     35 H          -8.2163    4.2715    1.3376 H       1  LIG1        0.0626
     36 C          -8.6268    0.0813   -0.6482 C.1     1  LIG1       -0.0491
     37 C          -8.2780   -0.9836   -1.1069 C.1     1  LIG1       -0.1124
     38 H          -7.9623   -1.9259   -1.4926 H       1  LIG1        0.1232
     39 H         -10.6646    4.4921    1.3395 H       1  LIG1        0.0639
     40 C         -13.3522    1.6059    0.5206 C.ar    1  LIG1        0.0480
     41 C         -12.4661    2.6945    0.2952 C.ar    1  LIG1        0.0214
     42 C         -13.0431    3.9345    0.0019 C.ar    1  LIG1       -0.0488
     43 C         -14.4226    4.0791   -0.0889 C.ar    1  LIG1       -0.0350
     44 C         -15.2178    2.9471    0.1127 C.ar    1  LIG1        0.0726
     45 N         -14.6771    1.7559    0.4298 N.ar    1  LIG1       -0.2512
     46 H         -12.4060    4.7949   -0.1785 H       1  LIG1        0.0625
     47 C         -12.8848    0.2237    0.9001 C.3     1  LIG1       -0.0217
     48 H         -12.1365    0.2564    1.6973 H       1  LIG1        0.0293
     49 H         -12.4083   -0.2740    0.0519 H       1  LIG1        0.0293
     50 H         -13.7462   -0.3598    1.2284 H       1  LIG1        0.0293
     51 H         -14.8519    5.0472   -0.3096 H       1  LIG1        0.0639
     52 C         -17.4797    3.8456   -0.7416 C.ar    1  LIG1        0.0616
     53 C         -18.8827    3.7917   -0.7139 C.ar    1  LIG1       -0.0348
     54 C         -16.7059    2.9650    0.0531 C.ar    1  LIG1        0.0189
     55 C         -19.5837    2.8788    0.0771 C.ar    1  LIG1        0.0007
     56 H         -19.4378    4.4972   -1.3216 H       1  LIG1        0.0637
     57 C         -17.4074    2.0318    0.8249 C.ar    1  LIG1       -0.0333
     58 C         -18.8054    1.9785    0.8493 C.ar    1  LIG1        0.0602
     59 H         -16.8317    1.3220    1.4057 H       1  LIG1        0.0637
     60 N         -16.4966    5.6054   -2.3802 N.1     1  LIG1       -0.1908
     61 C         -16.9035    4.8087   -1.6360 C.1     1  LIG1        0.0998
     62 N         -19.8559    0.1130    2.3227 N.1     1  LIG1       -0.1908
     63 C         -19.4096    0.9560    1.6567 C.1     1  LIG1        0.0998
     64 C         -21.7641    3.0003   -1.1482 C.ar    1  LIG1       -0.0534
     65 C         -23.1538    3.0233   -1.1769 C.ar    1  LIG1       -0.0535
     66 C         -21.0668    2.8793    0.0658 C.ar    1  LIG1       -0.0166
     67 C         -23.9059    2.9323    0.0065 C.ar    1  LIG1       -0.0177
     68 H         -23.6654    3.0779   -2.1326 H       1  LIG1        0.0624
     69 C         -21.8153    2.7919    1.2507 C.ar    1  LIG1       -0.0534
     70 C         -23.2052    2.8196    1.2188 C.ar    1  LIG1       -0.0535
     71 H         -21.3099    2.7270    2.2079 H       1  LIG1        0.0624
     72 H         -21.2117    3.0393   -2.0824 H       1  LIG1        0.0624
     73 H         -23.7552    2.7851    2.1539 H       1  LIG1        0.0624
     74 C         -26.0855    3.7669   -0.9314 C.ar    1  LIG1       -0.0532
     75 C         -27.4765    3.7703   -0.9429 C.ar    1  LIG1       -0.0500
     76 C         -25.3881    2.9532   -0.0266 C.ar    1  LIG1       -0.0144
     77 C         -28.2407    2.9766   -0.0742 C.ar    1  LIG1        0.0236
     78 H         -27.9980    4.3985   -1.6584 H       1  LIG1        0.0625
     79 C         -26.1351    2.1522    0.8487 C.ar    1  LIG1       -0.0119
     80 C         -27.5308    2.1560    0.8297 C.ar    1  LIG1        0.1251
     81 H         -25.6207    1.4901    1.5416 H       1  LIG1        0.0660
     82 H         -25.5404    4.4143   -1.6101 H       1  LIG1        0.0624
     83 O         -28.2484    1.3716    1.6889 O.3     1  LIG1       -0.5061
     84 H         -27.6369    0.8889    2.2606 H       1  LIG1        0.2922
     85 C         -30.3725    4.2732   -0.2736 C.ar    1  LIG1       -0.0538
     86 C         -31.7616    4.3500   -0.3644 C.ar    1  LIG1       -0.0600
     87 C         -29.7257    3.0345   -0.1200 C.ar    1  LIG1       -0.0132
     88 C         -32.5366    3.1963   -0.3035 C.ar    1  LIG1       -0.0463
     89 H         -32.2415    5.3177   -0.4760 H       1  LIG1        0.0618
     90 C         -30.5128    1.8765   -0.0529 C.ar    1  LIG1       -0.0385
     91 C         -31.9129    1.9450   -0.1451 C.ar    1  LIG1        0.0253
     92 H         -30.0422    0.9095    0.0696 H       1  LIG1        0.0636
     93 H         -33.6180    3.2485   -0.3718 H       1  LIG1        0.0630
     94 H         -29.7810    5.1833   -0.3005 H       1  LIG1        0.0624
     95 C         -32.6961    0.7493   -0.0841 C.1     1  LIG1       -0.0696
     96 C         -33.3621   -0.2599   -0.0336 C.1     1  LIG1       -0.1139
     97 H         -33.9463   -1.1494    0.0111 H       1  LIG1        0.1232
@<TRIPOS>BOND
     1    11     9    1
     2    10     9    1
     3     9     1    1
     4    60    61    3
     5     8     2    1
     6    68    65    1
     7    72    64    1
     8     1     2   ar
     9     1     6   ar
    10     2     3   ar
    11    78    75    1
    12    61    52    1
    13    82    74    1
    14    38    37    1
    15     6     5   ar
    16    56    53    1
    17    65    64   ar
    18    65    67   ar
    19    64    66   ar
    20    37    36    3
    21    75    74   ar
    22    75    77   ar
    23    74    76   ar
    24    52    53   ar
    25    52    54   ar
    26    53    55   ar
    27     3     7    1
    28     3     4   ar
    29    36    29    1
    30    22    21    1
    31    26    24    1
    32     5     4   ar
    33     5    17    1
    34    89    86    1
    35    27    24    1
    36    93    88    1
    37    86    88   ar
    38    86    85   ar
    39    51    43    1
    40    88    91   ar
    41    94    85    1
    42    85    87   ar
    43    46    42    1
    44    91    95    1
    45    91    90   ar
    46    21    17   ar
    47    21    20   ar
    48    87    77    1
    49    87    90   ar
    50    34    29   ar
    51    34    33   ar
    52    29    30   ar
    53     4    12    1
    54    43    42   ar
    55    43    44   ar
    56    95    96    3
    57    77    80   ar
    58    90    92    1
    59    96    97    1
    60    76    67    1
    61    76    79   ar
    62    42    41   ar
    63    67    70   ar
    64    49    47    1
    65    54    44    1
    66    54    57   ar
    67    17    18   ar
    68    66    55    1
    69    66    69   ar
    70    55    58   ar
    71    44    45   ar
    72    24    25    1
    73    24    23    1
    74    41    33    1
    75    41    40   ar
    76    33    32   ar
    77    30    20    1
    78    30    31   ar
    79    20    19   ar
    80    45    40   ar
    81    40    47    1
    82    16    13    1
    83    18    19   ar
    84    18    23    1
    85    57    58   ar
    86    57    59    1
    87    80    79   ar
    88    80    83    1
    89    79    81    1
    90    58    63    1
    91    12    13    1
    92    47    50    1
    93    47    48    1
    94    32    31   ar
    95    32    39    1
    96    31    35    1
    97    19    28    1
    98    70    69   ar
    99    70    73    1
   100    69    71    1
   101    13    15    1
   102    13    14    1
   103    63    62    3
   104    83    84    1
