@<TRIPOS>MOLECULE
mol_data/opt/b3lyp/geoms/mol2/6hl6hl6hl6hl-.out
 62 65 0 0 0
SMALL
GASTEIGER

@<TRIPOS>ATOM
      1 C          -3.8629   -1.9760   -1.4477 C.ar    1  LIG1        0.1170
      2 C          -2.7533   -2.2289   -0.6295 C.ar    1  LIG1       -0.0186
      3 C          -2.4489   -1.3059    0.3620 C.ar    1  LIG1       -0.0146
      4 C          -3.2280   -0.1565    0.5213 C.ar    1  LIG1        0.1462
      5 C          -4.3220    0.0462   -0.3583 C.ar    1  LIG1        0.1179
      6 N          -4.6046   -0.8734   -1.3038 N.ar    1  LIG1       -0.2287
      7 H          -1.6038   -1.4909    1.0143 H       1  LIG1        0.0656
      8 H          -2.1577   -3.1275   -0.7540 H       1  LIG1        0.0653
      9 N          -4.2814   -2.8827   -2.4161 N.pl3   1  LIG1       -0.3431
     10 H          -4.8680   -2.4663   -3.1267 H       1  LIG1        0.1437
     11 H          -3.5624   -3.4812   -2.7970 H       1  LIG1        0.1437
     12 O          -2.9950    0.7802    1.4959 O.3     1  LIG1       -0.4930
     13 C          -2.0331    0.4848    2.4962 C.3     1  LIG1        0.0789
     14 H          -2.0841    1.3059    3.2127 H       1  LIG1        0.0660
     15 H          -2.2620   -0.4573    3.0102 H       1  LIG1        0.0660
     16 H          -1.0165    0.4322    2.0847 H       1  LIG1        0.0660
     17 C          -6.5886    1.1855   -0.6346 C.ar    1  LIG1        0.1264
     18 C          -5.2046    1.2375   -0.3007 C.ar    1  LIG1        0.0470
     19 C          -4.7126    2.4967    0.0664 C.ar    1  LIG1       -0.0052
     20 C          -5.5287    3.6227    0.1112 C.ar    1  LIG1        0.1468
     21 C          -6.8968    3.4830   -0.2260 C.ar    1  LIG1        0.1180
     22 N          -7.3684    2.2729   -0.5771 N.ar    1  LIG1       -0.2280
     23 H          -3.6686    2.5817    0.3268 H       1  LIG1        0.0662
     24 N          -7.2250    0.0131   -0.9778 N.pl3   1  LIG1       -0.3426
     25 H          -8.1252    0.1564   -1.4124 H       1  LIG1        0.1437
     26 H          -6.6192   -0.6802   -1.4002 H       1  LIG1        0.1437
     27 O          -5.0703    4.8647    0.4826 O.3     1  LIG1       -0.4929
     28 C          -3.7543    4.9672    0.9983 C.3     1  LIG1        0.0789
     29 H          -3.6384    6.0034    1.3205 H       1  LIG1        0.0660
     30 H          -3.6038    4.3012    1.8575 H       1  LIG1        0.0660
     31 H          -2.9955    4.7427    0.2367 H       1  LIG1        0.0660
     32 C          -9.2486    4.4189    0.0982 C.ar    1  LIG1        0.1264
     33 C          -7.8681    4.6046   -0.2188 C.ar    1  LIG1        0.0470
     34 C          -7.4771    5.9096   -0.5481 C.ar    1  LIG1       -0.0052
     35 C          -8.3946    6.9581   -0.5583 C.ar    1  LIG1        0.1468
     36 C          -9.7423    6.6705   -0.2642 C.ar    1  LIG1        0.1180
     37 N         -10.1284    5.4316    0.0671 N.ar    1  LIG1       -0.2280
     38 H          -6.4387    6.0962   -0.7778 H       1  LIG1        0.0662
     39 N          -9.7577    3.2070    0.5047 N.pl3   1  LIG1       -0.3426
     40 H         -10.7671    3.1795    0.5033 H       1  LIG1        0.1437
     41 H          -9.2659    2.3992    0.1426 H       1  LIG1        0.1437
     42 O          -8.0751    8.2668   -0.8034 O.3     1  LIG1       -0.4929
     43 C          -6.7603    8.5659   -1.2308 C.3     1  LIG1        0.0789
     44 H          -6.7430    9.6401   -1.4204 H       1  LIG1        0.0660
     45 H          -6.0142    8.3230   -0.4618 H       1  LIG1        0.0660
     46 H          -6.5000    8.0327   -2.1556 H       1  LIG1        0.0660
     47 C         -11.1105    8.5420   -1.3729 C.ar    1  LIG1        0.1257
     48 C         -10.8015    7.7178   -0.2530 C.ar    1  LIG1        0.0469
     49 C         -11.5997    7.8548    0.8760 C.ar    1  LIG1       -0.0059
     50 C         -12.6213    8.8095    0.9150 C.ar    1  LIG1        0.1389
     51 C         -12.8218    9.5882   -0.2236 C.ar    1  LIG1        0.0713
     52 N         -12.0954    9.4440   -1.3412 N.ar    1  LIG1       -0.2364
     53 H         -11.4294    7.2202    1.7390 H       1  LIG1        0.0662
     54 H         -13.5969   10.3485   -0.2624 H       1  LIG1        0.0868
     55 N         -10.4128    8.4598   -2.5690 N.pl3   1  LIG1       -0.3426
     56 H          -9.9586    7.5791   -2.7616 H       1  LIG1        0.1437
     57 H         -10.9310    8.8430   -3.3473 H       1  LIG1        0.1437
     58 O         -13.3431    8.8931    2.0791 O.3     1  LIG1       -0.4936
     59 C         -14.3783    9.8577    2.1355 C.3     1  LIG1        0.0789
     60 H         -14.8232    9.7694    3.1282 H       1  LIG1        0.0660
     61 H         -13.9928   10.8778    2.0034 H       1  LIG1        0.0660
     62 H         -15.1512    9.6716    1.3773 H       1  LIG1        0.0660
@<TRIPOS>BOND
     1    57    55    1
     2    10     9    1
     3    11     9    1
     4    56    55    1
     5    55    47    1
     6     9     1    1
     7    46    43    1
     8     1     6   ar
     9     1     2   ar
    10    44    43    1
    11    25    24    1
    12    26    24    1
    13    47    52   ar
    14    47    48   ar
    15    52    51   ar
    16     6     5   ar
    17    43    42    1
    18    43    45    1
    19    24    17    1
    20    42    35    1
    21    38    34    1
    22     8     2    1
    23    17    22   ar
    24    17    18   ar
    25     2     3   ar
    26    22    21   ar
    27    35    34   ar
    28    35    36   ar
    29    34    33   ar
    30     5    18    1
    31     5     4   ar
    32    18    19   ar
    33    36    48    1
    34    36    37   ar
    35    54    51    1
    36    48    49   ar
    37    21    33    1
    38    21    20   ar
    39    51    50   ar
    40    33    32   ar
    41    19    20   ar
    42    19    23    1
    43    37    32   ar
    44    32    39    1
    45    20    27    1
    46    41    39    1
    47    31    28    1
    48     3     4   ar
    49     3     7    1
    50    27    28    1
    51    40    39    1
    52     4    12    1
    53    49    50   ar
    54    49    53    1
    55    50    58    1
    56    28    29    1
    57    28    30    1
    58    62    59    1
    59    12    13    1
    60    61    59    1
    61    58    59    1
    62    16    13    1
    63    59    60    1
    64    13    15    1
    65    13    14    1
