@<TRIPOS>MOLECULE
mol_data/opt/b3lyp/geoms/mol2/6hl6hl6hl.out
 47 49 0 0 0
SMALL
GASTEIGER

@<TRIPOS>ATOM
      1 C          -4.3221   -2.1045   -1.1646 C.ar    1  LIG1        0.1170
      2 C          -3.0136   -2.2683   -0.6903 C.ar    1  LIG1       -0.0186
      3 C          -2.4410   -1.2223    0.0214 C.ar    1  LIG1       -0.0146
      4 C          -3.1564   -0.0421    0.2413 C.ar    1  LIG1        0.1462
      5 C          -4.4684    0.0624   -0.2874 C.ar    1  LIG1        0.1179
      6 N          -5.0062   -0.9740   -0.9627 N.ar    1  LIG1       -0.2287
      7 H          -1.4357   -1.3353    0.4094 H       1  LIG1        0.0656
      8 H          -2.4673   -3.1909   -0.8581 H       1  LIG1        0.0653
      9 N          -4.9965   -3.1277   -1.8234 N.pl3   1  LIG1       -0.3431
     10 H          -5.7781   -2.8002   -2.3750 H       1  LIG1        0.1437
     11 H          -4.4147   -3.7906   -2.3157 H       1  LIG1        0.1437
     12 O          -2.6575    1.0175    0.9553 O.3     1  LIG1       -0.4930
     13 C          -1.4329    0.8429    1.6502 C.3     1  LIG1        0.0789
     14 H          -1.2785    1.7603    2.2200 H       1  LIG1        0.0660
     15 H          -1.4791   -0.0078    2.3417 H       1  LIG1        0.0660
     16 H          -0.5878    0.7022    0.9634 H       1  LIG1        0.0660
     17 C          -6.7321    1.2087   -0.0218 C.ar    1  LIG1        0.1264
     18 C          -5.3139    1.2721   -0.1358 C.ar    1  LIG1        0.0470
     19 C          -4.7572    2.5578   -0.1209 C.ar    1  LIG1       -0.0052
     20 C          -5.5425    3.6988    0.0071 C.ar    1  LIG1        0.1468
     21 C          -6.9456    3.5478    0.1252 C.ar    1  LIG1        0.1180
     22 N          -7.4785    2.3129    0.1127 N.ar    1  LIG1       -0.2280
     23 H          -3.6853    2.6520   -0.2056 H       1  LIG1        0.0662
     24 N          -7.4207    0.0157    0.0179 N.pl3   1  LIG1       -0.3426
     25 H          -8.4124    0.1201   -0.1413 H       1  LIG1        0.1437
     26 H          -6.9598   -0.7455   -0.4660 H       1  LIG1        0.1437
     27 O          -5.0179    4.9698    0.0387 O.3     1  LIG1       -0.4929
     28 C          -3.6103    5.1115    0.1124 C.3     1  LIG1        0.0789
     29 H          -3.4219    6.1799    0.2317 H       1  LIG1        0.0660
     30 H          -3.1937    4.5716    0.9725 H       1  LIG1        0.0660
     31 H          -3.1127    4.7612   -0.8020 H       1  LIG1        0.0660
     32 C          -9.0929    4.5882    1.0219 C.ar    1  LIG1        0.1257
     33 C          -7.8870    4.6867    0.2644 C.ar    1  LIG1        0.0469
     34 C          -7.6392    5.9103   -0.3797 C.ar    1  LIG1       -0.0059
     35 C          -8.5329    6.9697   -0.2527 C.ar    1  LIG1        0.1389
     36 C          -9.6728    6.7702    0.5309 C.ar    1  LIG1        0.0713
     37 N          -9.9472    5.6223    1.1415 N.ar    1  LIG1       -0.2364
     38 H          -6.7419    6.0119   -0.9719 H       1  LIG1        0.0662
     39 H         -10.3871    7.5833    0.6483 H       1  LIG1        0.0868
     40 N          -9.4356    3.4576    1.7280 N.pl3   1  LIG1       -0.3426
     41 H         -10.3926    3.4666    2.0499 H       1  LIG1        0.1437
     42 H          -9.0774    2.5925    1.3428 H       1  LIG1        0.1437
     43 O          -8.3984    8.2048   -0.8387 O.3     1  LIG1       -0.4936
     44 C          -7.2488    8.4284   -1.6327 C.3     1  LIG1        0.0789
     45 H          -7.3220    9.4563   -1.9925 H       1  LIG1        0.0660
     46 H          -6.3230    8.3150   -1.0522 H       1  LIG1        0.0660
     47 H          -7.2088    7.7487   -2.4951 H       1  LIG1        0.0660
@<TRIPOS>BOND
     1    47    44    1
     2    10     9    1
     3    11     9    1
     4    45    44    1
     5     9     1    1
     6    44    46    1
     7    44    43    1
     8     1     6   ar
     9     1     2   ar
    10    38    34    1
    11     6     5   ar
    12     8     2    1
    13    43    35    1
    14    31    28    1
    15     2     3   ar
    16    26    24    1
    17    34    35   ar
    18    34    33   ar
    19     5    18    1
    20     5     4   ar
    21    35    36   ar
    22    23    19    1
    23    25    24    1
    24    18    19   ar
    25    18    17   ar
    26    19    20   ar
    27    17    24    1
    28    17    22   ar
    29    20    27    1
    30    20    21   ar
    31     3     4   ar
    32     3     7    1
    33    27    28    1
    34    28    29    1
    35    28    30    1
    36    22    21   ar
    37    21    33    1
    38     4    12    1
    39    33    32   ar
    40    36    39    1
    41    36    37   ar
    42    12    13    1
    43    16    13    1
    44    32    37   ar
    45    32    40    1
    46    42    40    1
    47    13    14    1
    48    13    15    1
    49    40    41    1
