@<TRIPOS>MOLECULE
mol_data/opt/b3lyp/geoms/mol2/6hl6hl-.out
 32 33 0 0 0
SMALL
GASTEIGER

@<TRIPOS>ATOM
      1 C          -4.4806   -2.0615   -0.6554 C.ar    1  LIG1        0.1170
      2 C          -3.1531   -2.1723   -0.2115 C.ar    1  LIG1       -0.0186
      3 C          -2.5127   -1.0328    0.2590 C.ar    1  LIG1       -0.0146
      4 C          -3.1967    0.1883    0.2759 C.ar    1  LIG1        0.1462
      5 C          -4.5122    0.2221   -0.2350 C.ar    1  LIG1        0.1179
      6 N          -5.1265   -0.8891   -0.6725 N.ar    1  LIG1       -0.2287
      7 H          -1.4965   -1.1048    0.6291 H       1  LIG1        0.0656
      8 H          -2.6418   -3.1302   -0.2175 H       1  LIG1        0.0653
      9 N          -5.2124   -3.1738   -1.0601 N.pl3   1  LIG1       -0.3431
     10 H          -6.0428   -2.9252   -1.5812 H       1  LIG1        0.1437
     11 H          -4.6832   -3.9240   -1.4813 H       1  LIG1        0.1437
     12 O          -2.6981    1.3533    0.7830 O.3     1  LIG1       -0.4930
     13 C          -1.3447    1.3810    1.1985 C.3     1  LIG1        0.0789
     14 H          -1.1484    2.4067    1.5126 H       1  LIG1        0.0660
     15 H          -1.1639    0.7044    2.0448 H       1  LIG1        0.0660
     16 H          -0.6613    1.1183    0.3797 H       1  LIG1        0.0660
     17 C          -4.9064    2.6551   -0.9560 C.ar    1  LIG1        0.1257
     18 C          -5.3151    1.4768   -0.2696 C.ar    1  LIG1        0.0469
     19 C          -6.5694    1.4908    0.3280 C.ar    1  LIG1       -0.0059
     20 C          -7.3603    2.6442    0.2967 C.ar    1  LIG1        0.1389
     21 C          -6.8537    3.7563   -0.3745 C.ar    1  LIG1        0.0713
     22 N          -5.6663    3.7525   -0.9970 N.ar    1  LIG1       -0.2364
     23 H          -6.9409    0.6038    0.8298 H       1  LIG1        0.0662
     24 H          -7.4131    4.6854   -0.4365 H       1  LIG1        0.0868
     25 N          -3.6931    2.7400   -1.6248 N.pl3   1  LIG1       -0.3426
     26 H          -3.3064    1.8691   -1.9583 H       1  LIG1        0.1437
     27 H          -3.6792    3.4879   -2.3045 H       1  LIG1        0.1437
     28 O          -8.5735    2.5765    0.9318 O.3     1  LIG1       -0.4936
     29 C          -9.3858    3.7373    0.9134 C.3     1  LIG1        0.0789
     30 H         -10.2923    3.4827    1.4651 H       1  LIG1        0.0660
     31 H          -8.8927    4.5873    1.4041 H       1  LIG1        0.0660
     32 H          -9.6574    4.0285   -0.1102 H       1  LIG1        0.0660
@<TRIPOS>BOND
     1    27    25    1
     2    26    25    1
     3    25    17    1
     4    10     9    1
     5    11     9    1
     6     9     1    1
     7    22    17   ar
     8    22    21   ar
     9    17    18   ar
    10     6     1   ar
    11     6     5   ar
    12     1     2   ar
    13    24    21    1
    14    21    20   ar
    15    18     5    1
    16    18    19   ar
    17     5     4   ar
    18     8     2    1
    19     2     3   ar
    20    32    29    1
    21     3     4   ar
    22     3     7    1
    23     4    12    1
    24    20    19   ar
    25    20    28    1
    26    19    23    1
    27    16    13    1
    28    12    13    1
    29    29    28    1
    30    29    31    1
    31    29    30    1
    32    13    14    1
    33    13    15    1
