@<TRIPOS>MOLECULE
mol_data/opt/b3lyp/geoms/mol2/6hl6hl6hl6hl.out
 62 65 0 0 0
SMALL
GASTEIGER

@<TRIPOS>ATOM
      1 C          -4.0749   -2.0243   -1.6270 C.ar    1  LIG1        0.1170
      2 C          -2.8874   -2.3067   -0.9380 C.ar    1  LIG1       -0.0186
      3 C          -2.4577   -1.4002    0.0218 C.ar    1  LIG1       -0.0146
      4 C          -3.1918   -0.2382    0.2761 C.ar    1  LIG1        0.1462
      5 C          -4.3727   -0.0066   -0.4745 C.ar    1  LIG1        0.1179
      6 N          -4.7751   -0.9104   -1.3915 N.ar    1  LIG1       -0.2287
      7 H          -1.5497   -1.6080    0.5751 H       1  LIG1        0.0656
      8 H          -2.3269   -3.2148   -1.1351 H       1  LIG1        0.0653
      9 N          -4.6142   -2.9115   -2.5526 N.pl3   1  LIG1       -0.3431
     10 H          -5.2675   -2.4767   -3.1900 H       1  LIG1        0.1437
     11 H          -3.9530   -3.5186   -3.0158 H       1  LIG1        0.1437
     12 O          -2.8333    0.6840    1.2261 O.3     1  LIG1       -0.4930
     13 C          -1.7672    0.3634    2.1059 C.3     1  LIG1        0.0789
     14 H          -1.7157    1.1821    2.8250 H       1  LIG1        0.0660
     15 H          -1.9546   -0.5757    2.6414 H       1  LIG1        0.0660
     16 H          -0.8075    0.2908    1.5773 H       1  LIG1        0.0660
     17 C          -6.6349    1.1744   -0.4932 C.ar    1  LIG1        0.1264
     18 C          -5.2222    1.1985   -0.3084 C.ar    1  LIG1        0.0470
     19 C          -4.6720    2.4445    0.0184 C.ar    1  LIG1       -0.0052
     20 C          -5.4578    3.5836    0.1624 C.ar    1  LIG1        0.1468
     21 C          -6.8566    3.4731   -0.0304 C.ar    1  LIG1        0.1180
     22 N          -7.3837    2.2744   -0.3423 N.ar    1  LIG1       -0.2280
     23 H          -3.6050    2.5095    0.1675 H       1  LIG1        0.0662
     24 N          -7.3256    0.0175   -0.7778 N.pl3   1  LIG1       -0.3426
     25 H          -8.2632    0.1803   -1.1155 H       1  LIG1        0.1437
     26 H          -6.7800   -0.6827   -1.2661 H       1  LIG1        0.1437
     27 O          -4.9380    4.8121    0.4980 O.3     1  LIG1       -0.4929
     28 C          -3.5747    4.8815    0.8799 C.3     1  LIG1        0.0789
     29 H          -3.4053    5.9106    1.2015 H       1  LIG1        0.0660
     30 H          -3.3529    4.2009    1.7117 H       1  LIG1        0.0660
     31 H          -2.9011    4.6531    0.0432 H       1  LIG1        0.0660
     32 C          -9.1511    4.4479    0.5157 C.ar    1  LIG1        0.1264
     33 C          -7.8000    4.6100    0.0899 C.ar    1  LIG1        0.0470
     34 C          -7.4187    5.9187   -0.2367 C.ar    1  LIG1       -0.0052
     35 C          -8.3017    6.9894   -0.1434 C.ar    1  LIG1        0.1468
     36 C          -9.6258    6.7429    0.2934 C.ar    1  LIG1        0.1180
     37 N          -9.9905    5.4877    0.6104 N.ar    1  LIG1       -0.2280
     38 H          -6.4045    6.0876   -0.5643 H       1  LIG1        0.0662
     39 N          -9.6624    3.2327    0.9110 N.pl3   1  LIG1       -0.3426
     40 H         -10.6711    3.2123    0.9503 H       1  LIG1        0.1437
     41 H          -9.1991    2.4334    0.4933 H       1  LIG1        0.1437
     42 O          -7.9429    8.2833   -0.4449 O.3     1  LIG1       -0.4929
     43 C          -6.5772    8.5544   -0.7057 C.3     1  LIG1        0.0789
     44 H          -6.5025    9.6372   -0.8203 H       1  LIG1        0.0660
     45 H          -5.9348    8.2320    0.1238 H       1  LIG1        0.0660
     46 H          -6.2313    8.0724   -1.6301 H       1  LIG1        0.0660
     47 C         -11.6882    7.7373    1.4162 C.ar    1  LIG1        0.1257
     48 C         -10.6614    7.7983    0.4256 C.ar    1  LIG1        0.0469
     49 C         -10.6916    8.8938   -0.4532 C.ar    1  LIG1       -0.0059
     50 C         -11.6749    9.8713   -0.3317 C.ar    1  LIG1        0.1389
     51 C         -12.6206    9.7216    0.6861 C.ar    1  LIG1        0.0713
     52 N         -12.6320    8.6919    1.5261 N.ar    1  LIG1       -0.2364
     53 H          -9.9362    8.9625   -1.2217 H       1  LIG1        0.0662
     54 H         -13.3999   10.4726    0.8037 H       1  LIG1        0.0868
     55 N         -11.7504    6.7375    2.3595 N.pl3   1  LIG1       -0.3426
     56 H         -12.6273    6.7179    2.8597 H       1  LIG1        0.1437
     57 H         -11.3562    5.8526    2.0640 H       1  LIG1        0.1437
     58 O         -11.8051   10.9790   -1.1342 O.3     1  LIG1       -0.4936
     59 C         -10.8488   11.1550   -2.1619 C.3     1  LIG1        0.0789
     60 H         -11.1115   12.0866   -2.6666 H       1  LIG1        0.0660
     61 H          -9.8292   11.2372   -1.7612 H       1  LIG1        0.0660
     62 H         -10.8750   10.3330   -2.8907 H       1  LIG1        0.0660
@<TRIPOS>BOND
     1    10     9    1
     2    11     9    1
     3    62    59    1
     4    60    59    1
     5     9     1    1
     6    59    61    1
     7    59    58    1
     8    46    43    1
     9     1     6   ar
    10     1     2   ar
    11     6     5   ar
    12    26    24    1
    13    53    49    1
    14     8     2    1
    15    58    50    1
    16    25    24    1
    17     2     3   ar
    18    44    43    1
    19    24    17    1
    20    43    42    1
    21    43    45    1
    22    38    34    1
    23    17    22   ar
    24    17    18   ar
    25     5    18    1
    26     5     4   ar
    27    49    50   ar
    28    49    48   ar
    29    42    35    1
    30    22    21   ar
    31    50    51   ar
    32    18    19   ar
    33    34    35   ar
    34    34    33   ar
    35    35    36   ar
    36    21    33    1
    37    21    20   ar
    38    19    20   ar
    39    19    23    1
    40     3     4   ar
    41     3     7    1
    42    31    28    1
    43    33    32   ar
    44    20    27    1
    45     4    12    1
    46    36    48    1
    47    36    37   ar
    48    48    47   ar
    49    41    39    1
    50    27    28    1
    51    32    37   ar
    52    32    39    1
    53    51    54    1
    54    51    52   ar
    55    28    29    1
    56    28    30    1
    57    39    40    1
    58    12    13    1
    59    47    52   ar
    60    47    55    1
    61    16    13    1
    62    57    55    1
    63    13    15    1
    64    13    14    1
    65    55    56    1
