@<TRIPOS>MOLECULE
mol_data/opt/b3lyp/geoms/mol2/6hl6hl.out
 32 33 0 0 0
SMALL
GASTEIGER

@<TRIPOS>ATOM
      1 C          -4.5018   -2.1281   -0.6308 C.ar    1  LIG1        0.1170
      2 C          -3.1194   -2.2097   -0.4176 C.ar    1  LIG1       -0.0186
      3 C          -2.4528   -1.0631   -0.0050 C.ar    1  LIG1       -0.0146
      4 C          -3.1521    0.1329    0.1772 C.ar    1  LIG1        0.1462
      5 C          -4.5471    0.1462   -0.0775 C.ar    1  LIG1        0.1179
      6 N          -5.1725   -0.9836   -0.4636 N.ar    1  LIG1       -0.2287
      7 H          -1.3860   -1.1101    0.1790 H       1  LIG1        0.0656
      8 H          -2.5848   -3.1444   -0.5538 H       1  LIG1        0.0653
      9 N          -5.2586   -3.2444   -0.9759 N.pl3   1  LIG1       -0.3431
     10 H          -6.1466   -3.0064   -1.3972 H       1  LIG1        0.1437
     11 H          -4.7647   -3.9681   -1.4790 H       1  LIG1        0.1437
     12 O          -2.5598    1.2947    0.6030 O.3     1  LIG1       -0.4930
     13 C          -1.2081    1.2424    1.0282 C.3     1  LIG1        0.0789
     14 H          -0.9725    2.2404    1.4007 H       1  LIG1        0.0660
     15 H          -1.0659    0.5130    1.8358 H       1  LIG1        0.0660
     16 H          -0.5268    0.9995    0.2018 H       1  LIG1        0.0660
     17 C          -6.7405    1.3030    0.5101 C.ar    1  LIG1        0.1257
     18 C          -5.3879    1.3632    0.0621 C.ar    1  LIG1        0.0469
     19 C          -4.8844    2.6292   -0.2782 C.ar    1  LIG1       -0.0059
     20 C          -5.6820    3.7631   -0.1534 C.ar    1  LIG1        0.1389
     21 C          -6.9867    3.5921    0.3183 C.ar    1  LIG1        0.0713
     22 N          -7.5003    2.4077    0.6329 N.ar    1  LIG1       -0.2364
     23 H          -3.8676    2.7054   -0.6347 H       1  LIG1        0.0662
     24 H          -7.6308    4.4628    0.4288 H       1  LIG1        0.0868
     25 N          -7.3419    0.1276    0.9035 N.pl3   1  LIG1       -0.3426
     26 H          -8.3424    0.2147    1.0104 H       1  LIG1        0.1437
     27 H          -6.9968   -0.7017    0.4378 H       1  LIG1        0.1437
     28 O          -5.3028    5.0466   -0.4596 O.3     1  LIG1       -0.4936
     29 C          -3.9828    5.2437   -0.9300 C.3     1  LIG1        0.0789
     30 H          -3.8767    6.3166   -1.0996 H       1  LIG1        0.0660
     31 H          -3.2342    4.9197   -0.1940 H       1  LIG1        0.0660
     32 H          -3.8017    4.7120   -1.8744 H       1  LIG1        0.0660
@<TRIPOS>BOND
     1    32    29    1
     2    11     9    1
     3    10     9    1
     4    30    29    1
     5     9     1    1
     6    29    28    1
     7    29    31    1
     8    23    19    1
     9     1     6   ar
    10     1     2   ar
    11     8     2    1
    12     6     5   ar
    13    28    20    1
    14     2     3   ar
    15    19    20   ar
    16    19    18   ar
    17    20    21   ar
    18     5    18    1
    19     5     4   ar
    20     3     4   ar
    21     3     7    1
    22    18    17   ar
    23     4    12    1
    24    16    13    1
    25    21    24    1
    26    21    22   ar
    27    27    25    1
    28    17    22   ar
    29    17    25    1
    30    12    13    1
    31    25    26    1
    32    13    14    1
    33    13    15    1
