@<TRIPOS>MOLECULE
mol_data/opt/b3lyp/geoms/mol2/6ia12ha4fd-6fi.out
 48 51 0 0 0
SMALL
GASTEIGER

@<TRIPOS>ATOM
      1 C          -4.2585   -2.0467   -0.6785 C.ar    1  LIG1        0.0390
      2 C          -2.8921   -2.0723   -0.3658 C.ar    1  LIG1       -0.0406
      3 C          -2.3072   -0.9268    0.1711 C.ar    1  LIG1       -0.0580
      4 C          -3.0841    0.2085    0.3656 C.ar    1  LIG1       -0.0326
      5 C          -4.4438    0.1591   -0.0042 C.ar    1  LIG1        0.1081
      6 N          -5.0137   -0.9540   -0.5066 N.ar    1  LIG1       -0.2487
      7 H          -1.2571   -0.9240    0.4497 H       1  LIG1        0.0619
      8 H          -2.3098   -2.9733   -0.5290 H       1  LIG1        0.0635
      9 C          -4.9644   -3.2591   -1.2330 C.3     1  LIG1       -0.0223
     10 H          -4.2786   -4.0971   -1.3806 H       1  LIG1        0.0292
     11 H          -5.4380   -3.0187   -2.1898 H       1  LIG1        0.0292
     12 H          -5.7626   -3.5762   -0.5540 H       1  LIG1        0.0292
     13 H          -2.6703    1.0922    0.8380 H       1  LIG1        0.0640
     14 C          -5.3014    1.3226    0.1522 C.ar    1  LIG1        0.1743
     15 C          -5.0553    2.6771    0.3149 C.ar    1  LIG1        0.0731
     16 C          -6.3270    3.3119    0.4167 C.ar    1  LIG1        0.0057
     17 C          -7.2737    2.3207    0.2993 C.ar    1  LIG1        0.1411
     18 O          -6.6595    1.1191    0.1306 O.2     1  LIG1       -0.4513
     19 N          -3.8163    3.3184    0.3977 N.pl3   1  LIG1       -0.3550
     20 H          -3.1067    2.9090   -0.1985 H       1  LIG1        0.1424
     21 H          -3.8797    4.3145    0.2291 H       1  LIG1        0.1424
     22 H          -6.5197    4.3638    0.5514 H       1  LIG1        0.0674
     23 C          -9.5174    3.4444    0.5080 C.ar    1  LIG1        0.1281
     24 C         -10.9102    3.3627    0.5213 C.ar    1  LIG1       -0.0104
     25 C          -8.7268    2.2878    0.3093 C.ar    1  LIG1        0.0599
     26 C         -11.5861    2.1531    0.3343 C.ar    1  LIG1        0.0080
     27 H         -11.4925    4.2641    0.6969 H       1  LIG1        0.0661
     28 C          -9.4013    1.0754    0.1131 C.ar    1  LIG1       -0.0296
     29 C         -10.8006    0.9928    0.1189 C.ar    1  LIG1        0.0605
     30 H          -8.8169    0.1798   -0.0601 H       1  LIG1        0.0639
     31 O          -8.8776    4.6310    0.6950 O.3     1  LIG1       -0.5060
     32 H          -9.5316    5.3294    0.8339 H       1  LIG1        0.2922
     33 N         -11.8876   -1.3144   -0.3758 N.1     1  LIG1       -0.1908
     34 C         -11.4136   -0.2760   -0.1502 C.1     1  LIG1        0.0998
     35 C         -13.8129    1.4369    1.3387 C.ar    1  LIG1        0.2202
     36 C         -13.0737    2.1303    0.3465 C.ar    1  LIG1        0.0451
     37 C         -13.8073    2.8492   -0.5983 C.ar    1  LIG1       -0.0446
     38 C         -15.2062    2.8585   -0.5741 C.ar    1  LIG1       -0.0315
     39 C         -15.8041    2.1238    0.4522 C.ar    1  LIG1        0.0343
     40 N         -15.1377    1.4393    1.3865 N.ar    1  LIG1       -0.2207
     41 H         -13.2719    3.3935   -1.3730 H       1  LIG1        0.0628
     42 H         -16.8904    2.0876    0.5283 H       1  LIG1        0.0833
     43 O         -13.2184    0.7423    2.3386 O.3     1  LIG1       -0.4920
     44 H         -12.2576    0.7800    2.2334 H       1  LIG1        0.2937
     45 C         -16.0221    3.6056   -1.5989 C.3     1  LIG1       -0.0383
     46 H         -17.0909    3.5280   -1.3811 H       1  LIG1        0.0278
     47 H         -15.8607    3.2100   -2.6082 H       1  LIG1        0.0278
     48 H         -15.7647    4.6707   -1.6235 H       1  LIG1        0.0278
@<TRIPOS>BOND
     1    47    45    1
     2    11     9    1
     3    48    45    1
     4    45    46    1
     5    45    38    1
     6    10     9    1
     7    41    37    1
     8     9     1    1
     9     9    12    1
    10     1     6   ar
    11     1     2   ar
    12    37    38   ar
    13    37    36   ar
    14    38    39   ar
    15     8     2    1
    16     6     5   ar
    17    33    34    3
    18     2     3   ar
    19    20    19    1
    20    34    29    1
    21    30    28    1
    22     5    14    1
    23     5     4   ar
    24    28    29   ar
    25    28    25   ar
    26    29    26   ar
    27    18    14   ar
    28    18    17   ar
    29    14    15   ar
    30     3     4   ar
    31     3     7    1
    32    21    19    1
    33    17    25    1
    34    17    16   ar
    35    25    23   ar
    36    15    19    1
    37    15    16   ar
    38    26    36    1
    39    26    24   ar
    40    36    35   ar
    41     4    13    1
    42    16    22    1
    43    39    42    1
    44    39    40   ar
    45    23    24   ar
    46    23    31    1
    47    24    27    1
    48    31    32    1
    49    35    40   ar
    50    35    43    1
    51    44    43    1
