@<TRIPOS>MOLECULE
mol_data/opt/b3lyp/geoms/mol2/6ia6ia6ia6ia-.out
 50 53 0 0 0
SMALL
GASTEIGER

@<TRIPOS>ATOM
      1 C          -4.0398   -2.1222   -0.6876 C.ar    1  LIG1        0.0389
      2 C          -2.8826   -2.2061    0.0965 C.ar    1  LIG1       -0.0406
      3 C          -2.5796   -1.1562    0.9604 C.ar    1  LIG1       -0.0581
      4 C          -3.4278   -0.0555    1.0111 C.ar    1  LIG1       -0.0356
      5 C          -4.5631   -0.0393    0.1832 C.ar    1  LIG1        0.0730
      6 N          -4.8579   -1.0593   -0.6402 N.ar    1  LIG1       -0.2518
      7 H          -1.6968   -1.1994    1.5920 H       1  LIG1        0.0619
      8 H          -2.2417   -3.0796    0.0333 H       1  LIG1        0.0635
      9 C          -4.4349   -3.2242   -1.6387 C.3     1  LIG1       -0.0223
     10 H          -3.7232   -4.0532   -1.6172 H       1  LIG1        0.0292
     11 H          -4.4938   -2.8405   -2.6622 H       1  LIG1        0.0292
     12 H          -5.4277   -3.6092   -1.3844 H       1  LIG1        0.0292
     13 H          -3.2318    0.7677    1.6896 H       1  LIG1        0.0639
     14 C          -6.8871    1.0335    0.1459 C.ar    1  LIG1        0.0480
     15 C          -5.4734    1.1386    0.1737 C.ar    1  LIG1        0.0214
     16 C          -4.9288    2.4275    0.2031 C.ar    1  LIG1       -0.0488
     17 C          -5.7540    3.5442    0.1815 C.ar    1  LIG1       -0.0350
     18 C          -7.1407    3.3499    0.1279 C.ar    1  LIG1        0.0730
     19 N          -7.6757    2.1163    0.1264 N.ar    1  LIG1       -0.2512
     20 H          -3.8500    2.5525    0.2253 H       1  LIG1        0.0625
     21 C          -7.6126   -0.2893    0.1572 C.3     1  LIG1       -0.0217
     22 H          -7.2042   -0.9678    0.9120 H       1  LIG1        0.0293
     23 H          -7.5094   -0.7975   -0.8049 H       1  LIG1        0.0293
     24 H          -8.6693   -0.1087    0.3602 H       1  LIG1        0.0293
     25 H          -5.3349    4.5439    0.2167 H       1  LIG1        0.0639
     26 C          -9.2945    4.5891    0.7534 C.ar    1  LIG1        0.0480
     27 C          -8.0677    4.5098    0.0453 C.ar    1  LIG1        0.0214
     28 C          -7.7361    5.5943   -0.7746 C.ar    1  LIG1       -0.0488
     29 C          -8.5780    6.6950   -0.8741 C.ar    1  LIG1       -0.0350
     30 C          -9.7637    6.6992   -0.1299 C.ar    1  LIG1        0.0730
     31 N         -10.0970    5.6556    0.6537 N.ar    1  LIG1       -0.2512
     32 H          -6.8255    5.5587   -1.3657 H       1  LIG1        0.0625
     33 C          -9.7796    3.5071    1.6861 C.3     1  LIG1       -0.0217
     34 H          -8.9889    3.1758    2.3658 H       1  LIG1        0.0293
     35 H         -10.0953    2.6233    1.1262 H       1  LIG1        0.0293
     36 H         -10.6203    3.8948    2.2633 H       1  LIG1        0.0293
     37 H          -8.3332    7.5112   -1.5421 H       1  LIG1        0.0639
     38 C         -10.4437    9.1781   -0.2781 C.ar    1  LIG1        0.0473
     39 C         -10.7636    7.8018   -0.1931 C.ar    1  LIG1        0.0214
     40 C         -12.1219    7.4535   -0.1408 C.ar    1  LIG1       -0.0494
     41 C         -13.0986    8.4364   -0.2234 C.ar    1  LIG1       -0.0430
     42 C         -12.6798    9.7602   -0.3436 C.ar    1  LIG1        0.0279
     43 N         -11.3957   10.1251   -0.3546 N.ar    1  LIG1       -0.2595
     44 H         -12.3820    6.4062   -0.0337 H       1  LIG1        0.0625
     45 H         -13.4063   10.5677   -0.4218 H       1  LIG1        0.0829
     46 C          -9.0330    9.7208   -0.2451 C.3     1  LIG1       -0.0217
     47 H          -9.0648   10.7390    0.1464 H       1  LIG1        0.0293
     48 H          -8.5995    9.7756   -1.2515 H       1  LIG1        0.0293
     49 H          -8.3656    9.1129    0.3704 H       1  LIG1        0.0293
     50 H         -14.1546    8.1872   -0.1954 H       1  LIG1        0.0633
@<TRIPOS>BOND
     1    11     9    1
     2     9    10    1
     3     9    12    1
     4     9     1    1
     5    37    29    1
     6    32    28    1
     7    48    46    1
     8    29    28   ar
     9    29    30   ar
    10    23    21    1
    11    28    27   ar
    12     1     6   ar
    13     1     2   ar
    14     6     5   ar
    15    45    42    1
    16    43    42   ar
    17    43    38   ar
    18    42    41   ar
    19    38    46    1
    20    38    39   ar
    21    46    47    1
    22    46    49    1
    23    41    50    1
    24    41    40   ar
    25    39    40   ar
    26    39    30    1
    27    40    44    1
    28    30    31   ar
    29     8     2    1
    30    27    18    1
    31    27    26   ar
    32     2     3   ar
    33    19    18   ar
    34    19    14   ar
    35    18    17   ar
    36    14    21    1
    37    14    15   ar
    38    21    24    1
    39    21    22    1
    40    15     5    1
    41    15    16   ar
    42    17    16   ar
    43    17    25    1
    44     5     4   ar
    45    16    20    1
    46    31    26   ar
    47    26    33    1
    48     3     4   ar
    49     3     7    1
    50     4    13    1
    51    35    33    1
    52    33    36    1
    53    33    34    1
