@<TRIPOS>MOLECULE
mol_data/opt/b3lyp/geoms/mol2/6ia6ia6ia-6ia.out
 50 53 0 0 0
SMALL
GASTEIGER

@<TRIPOS>ATOM
      1 C          -4.2783   -2.2582   -0.4498 C.ar    1  LIG1        0.0389
      2 C          -2.9442   -2.2646   -0.0248 C.ar    1  LIG1       -0.0406
      3 C          -2.3881   -1.0828    0.4595 C.ar    1  LIG1       -0.0581
      4 C          -3.1698    0.0665    0.4975 C.ar    1  LIG1       -0.0356
      5 C          -4.4971   -0.0039    0.0408 C.ar    1  LIG1        0.0730
      6 N          -5.0327   -1.1488   -0.4148 N.ar    1  LIG1       -0.2518
      7 H          -1.3602   -1.0604    0.8102 H       1  LIG1        0.0619
      8 H          -2.3614   -3.1792   -0.0676 H       1  LIG1        0.0635
      9 C          -4.9480   -3.5016   -0.9795 C.3     1  LIG1       -0.0223
     10 H          -4.2745   -4.3621   -0.9672 H       1  LIG1        0.0292
     11 H          -5.2909   -3.3408   -2.0066 H       1  LIG1        0.0292
     12 H          -5.8330   -3.7418   -0.3815 H       1  LIG1        0.0292
     13 H          -2.7740    0.9967    0.8903 H       1  LIG1        0.0639
     14 C          -6.7197    1.2188    0.4016 C.ar    1  LIG1        0.0480
     15 C          -5.3523    1.2143    0.0245 C.ar    1  LIG1        0.0214
     16 C          -4.8032    2.4329   -0.3884 C.ar    1  LIG1       -0.0488
     17 C          -5.5739    3.5888   -0.4145 C.ar    1  LIG1       -0.0350
     18 C          -6.9120    3.5098   -0.0099 C.ar    1  LIG1        0.0730
     19 N          -7.4526    2.3382    0.3780 N.ar    1  LIG1       -0.2512
     20 H          -3.7708    2.4680   -0.7241 H       1  LIG1        0.0625
     21 C          -7.4467   -0.0137    0.8797 C.3     1  LIG1       -0.0217
     22 H          -6.8692   -0.5547    1.6354 H       1  LIG1        0.0293
     23 H          -7.6103   -0.7135    0.0563 H       1  LIG1        0.0293
     24 H          -8.4068    0.2882    1.3007 H       1  LIG1        0.0293
     25 H          -5.1511    4.5176   -0.7756 H       1  LIG1        0.0639
     26 C          -7.4991    6.0041    0.2771 C.ar    1  LIG1        0.0480
     27 C          -7.8461    4.6681   -0.0364 C.ar    1  LIG1        0.0214
     28 C          -9.1826    4.4247   -0.3838 C.ar    1  LIG1       -0.0488
     29 C         -10.0990    5.4629   -0.4463 C.ar    1  LIG1       -0.0350
     30 C          -9.6673    6.7608   -0.1370 C.ar    1  LIG1        0.0730
     31 N          -8.3927    7.0016    0.2165 N.ar    1  LIG1       -0.2512
     32 H          -9.4798    3.4066   -0.6096 H       1  LIG1        0.0625
     33 C          -6.1274    6.4326    0.7478 C.3     1  LIG1       -0.0217
     34 H          -6.2345    7.3403    1.3440 H       1  LIG1        0.0293
     35 H          -5.4707    6.6753   -0.0970 H       1  LIG1        0.0293
     36 H          -5.6314    5.6618    1.3422 H       1  LIG1        0.0293
     37 H         -11.1193    5.2725   -0.7546 H       1  LIG1        0.0639
     38 C         -11.9139    7.9856    0.1501 C.ar    1  LIG1        0.0473
     39 C         -10.5495    7.9580   -0.2263 C.ar    1  LIG1        0.0214
     40 C          -9.9821    9.1524   -0.6958 C.ar    1  LIG1       -0.0494
     41 C         -10.7627   10.2927   -0.8277 C.ar    1  LIG1       -0.0430
     42 C         -12.1060   10.2053   -0.4668 C.ar    1  LIG1        0.0279
     43 N         -12.6634    9.0951    0.0217 N.ar    1  LIG1       -0.2595
     44 H          -8.9275    9.1585   -0.9488 H       1  LIG1        0.0625
     45 H         -12.7636   11.0682   -0.5612 H       1  LIG1        0.0829
     46 C         -12.6436    6.8140    0.7664 C.3     1  LIG1       -0.0217
     47 H         -11.9903    6.1900    1.3808 H       1  LIG1        0.0293
     48 H         -13.0921    6.1710   -0.0010 H       1  LIG1        0.0293
     49 H         -13.4606    7.2005    1.3783 H       1  LIG1        0.0293
     50 H         -10.3456   11.2234   -1.1987 H       1  LIG1        0.0633
@<TRIPOS>BOND
     1    11     9    1
     2    50    41    1
     3     9    10    1
     4     9     1    1
     5     9    12    1
     6    44    40    1
     7    41    40   ar
     8    41    42   ar
     9    25    17    1
    10    37    29    1
    11    20    16    1
    12    40    39   ar
    13    32    28    1
    14    45    42    1
    15    42    43   ar
    16     1     6   ar
    17     1     2   ar
    18    29    28   ar
    19    29    30   ar
    20     6     5   ar
    21    17    16   ar
    22    17    18   ar
    23    16    15   ar
    24    28    27   ar
    25    39    30    1
    26    39    38   ar
    27    30    31   ar
    28    35    33    1
    29     8     2    1
    30    27    18    1
    31    27    26   ar
    32     2     3   ar
    33    18    19   ar
    34    48    46    1
    35    43    38   ar
    36    15     5    1
    37    15    14   ar
    38     5     4   ar
    39    23    21    1
    40    38    46    1
    41    31    26   ar
    42    26    33    1
    43    19    14   ar
    44    14    21    1
    45     3     4   ar
    46     3     7    1
    47     4    13    1
    48    33    36    1
    49    33    34    1
    50    46    49    1
    51    46    47    1
    52    21    24    1
    53    21    22    1
