@<TRIPOS>MOLECULE
mol_data/opt/b3lyp/geoms/mol2/6ia6df6di-4ae13ia13ai13ei-12ie-.out
 97 104 0 0 0
SMALL
GASTEIGER

@<TRIPOS>ATOM
      1 C          -4.0555   -2.4461    0.2135 C.ar    1  LIG1        0.0389
      2 C          -2.6787   -2.4243   -0.0513 C.ar    1  LIG1       -0.0406
      3 C          -2.0696   -1.2132   -0.3696 C.ar    1  LIG1       -0.0581
      4 C          -2.8426   -0.0566   -0.4172 C.ar    1  LIG1       -0.0356
      5 C          -4.2145   -0.1672   -0.1477 C.ar    1  LIG1        0.0741
      6 N          -4.8000   -1.3331    0.1563 N.ar    1  LIG1       -0.2518
      7 H          -1.0025   -1.1684   -0.5662 H       1  LIG1        0.0619
      8 H          -2.1000   -3.3410    0.0003 H       1  LIG1        0.0635
      9 C          -4.7843   -3.7144    0.5730 C.3     1  LIG1       -0.0223
     10 H          -4.0951   -4.5465    0.7364 H       1  LIG1        0.0292
     11 H          -5.4810   -3.9921   -0.2253 H       1  LIG1        0.0292
     12 H          -5.3798   -3.5565    1.4766 H       1  LIG1        0.0292
     13 H          -2.3929    0.9070   -0.6303 H       1  LIG1        0.0639
     14 C          -6.1836    1.1986    0.7179 C.ar    1  LIG1        0.1501
     15 C          -5.1049    1.0221   -0.1844 C.ar    1  LIG1        0.0397
     16 C          -4.9138    2.0225   -1.1375 C.ar    1  LIG1       -0.0061
     17 C          -5.7567    3.1311   -1.1760 C.ar    1  LIG1        0.1435
     18 C          -6.7999    3.2188   -0.2283 C.ar    1  LIG1        0.1165
     19 N          -6.9936    2.2640    0.6834 N.ar    1  LIG1       -0.2319
     20 H          -4.1342    1.9371   -1.8864 H       1  LIG1        0.0662
     21 N          -6.6923   -0.3887    2.7188 N.1     1  LIG1       -0.1893
     22 C          -6.4527    0.2799    1.7989 C.1     1  LIG1        0.1198
     23 O          -5.5364    4.0608   -2.1406 O.3     1  LIG1       -0.5046
     24 H          -6.2670    4.6970   -2.1456 H       1  LIG1        0.2922
     25 C          -9.1272    4.2466   -0.2138 C.ar    1  LIG1        0.1500
     26 C          -7.7237    4.3843   -0.2013 C.ar    1  LIG1        0.0401
     27 C          -7.2421    5.6950   -0.1044 C.ar    1  LIG1       -0.0448
     28 C          -8.0951    6.7993   -0.0378 C.ar    1  LIG1       -0.0238
     29 C          -9.4898    6.5400   -0.0954 C.ar    1  LIG1        0.0754
     30 N          -9.9656    5.2840   -0.1626 N.ar    1  LIG1       -0.2354
     31 H          -6.1696    5.8570   -0.0265 H       1  LIG1        0.0628
     32 N         -10.2910    1.9294   -0.4729 N.1     1  LIG1       -0.1893
     33 C          -9.7561    2.9512   -0.3336 C.1     1  LIG1        0.1198
     34 C          -7.4959    8.1714    0.1579 C.3     1  LIG1       -0.0377
     35 H          -8.1323    8.8040    0.7804 H       1  LIG1        0.0278
     36 H          -7.3475    8.6946   -0.7940 H       1  LIG1        0.0278
     37 H          -6.5161    8.0910    0.6366 H       1  LIG1        0.0278
     38 C         -10.4175    8.8332   -0.6992 C.ar    1  LIG1       -0.0519
     39 C         -11.4472    9.7617   -0.6613 C.ar    1  LIG1       -0.0508
     40 C         -10.5363    7.5932   -0.0493 C.ar    1  LIG1        0.0018
     41 C         -12.6483    9.5360    0.0429 C.ar    1  LIG1        0.0140
     42 H         -11.3383   10.6768   -1.2280 H       1  LIG1        0.0625
     43 C         -11.7368    7.3282    0.6182 C.ar    1  LIG1       -0.0365
     44 C         -12.7768    8.2663    0.6898 C.ar    1  LIG1        0.0344
     45 H         -11.8668    6.3671    1.1014 H       1  LIG1        0.0636
     46 H          -9.5380    9.0599   -1.2909 H       1  LIG1        0.0624
     47 C         -13.9236    7.8840    1.4572 C.1     1  LIG1       -0.0690
     48 C         -14.8686    7.5024    2.1137 C.1     1  LIG1       -0.1139
     49 H         -15.6727    7.1714    2.7298 H       1  LIG1        0.1232
     50 C         -13.6760   10.5683    0.0565 C.ar    1  LIG1        0.0511
     51 C         -13.5836   11.9639   -0.0930 C.ar    1  LIG1       -0.0245
     52 C         -14.8946   12.4808    0.0043 C.ar    1  LIG1       -0.0315
     53 C         -15.7740   11.4222    0.2088 C.ar    1  LIG1        0.0636
     54 N         -15.0207   10.2757    0.2278 N.ar    1  LIG1       -0.3528
     55 H         -15.3500    9.3754    0.5463 H       1  LIG1        0.1660
     56 C         -12.3578   12.8107   -0.2880 C.3     1  LIG1       -0.0377
     57 H         -12.5586   13.8372    0.0321 H       1  LIG1        0.0278
     58 H         -12.0426   12.8603   -1.3384 H       1  LIG1        0.0278
     59 H         -11.5059   12.4423    0.2918 H       1  LIG1        0.0278
     60 H         -15.1778   13.5198   -0.0916 H       1  LIG1        0.0642
     61 C         -17.2100   11.4071    0.3566 C.ar    1  LIG1        0.0636
     62 C         -18.0881   12.3870    0.7910 C.ar    1  LIG1       -0.0314
     63 C         -19.4125   11.8735    0.7323 C.ar    1  LIG1       -0.0231
     64 C         -19.3187   10.5714    0.2483 C.ar    1  LIG1        0.0675
     65 N         -17.9672   10.2850    0.0653 N.ar    1  LIG1       -0.3516
     66 H         -17.6515    9.5576   -0.5599 H       1  LIG1        0.1660
     67 H         -17.7995   13.3573    1.1713 H       1  LIG1        0.0642
     68 C         -20.6530   12.5832    1.1865 C.3     1  LIG1       -0.0376
     69 H         -21.4244   11.8751    1.4996 H       1  LIG1        0.0278
     70 H         -21.0888   13.1925    0.3871 H       1  LIG1        0.0278
     71 H         -20.4326   13.2456    2.0297 H       1  LIG1        0.0278
     72 C         -20.3143    9.5503    0.0040 C.ar    1  LIG1        0.0795
     73 C         -21.5887    9.5950   -0.5798 C.ar    1  LIG1        0.0549
     74 C         -22.1295    8.2640   -0.5670 C.ar    1  LIG1       -0.0061
     75 C         -21.1620    7.4407   -0.0093 C.ar    1  LIG1        0.0870
     76 N         -20.0725    8.2345    0.3169 N.ar    1  LIG1       -0.3494
     77 H         -19.3005    7.9168    0.8824 H       1  LIG1        0.1661
     78 C         -22.2278   10.7258   -1.1469 C.1     1  LIG1       -0.0672
     79 C         -22.8052   11.6644   -1.6510 C.1     1  LIG1       -0.1138
     80 H         -23.3000   12.4928   -2.1017 H       1  LIG1        0.1232
     81 C         -23.5014    7.8882   -1.0363 C.3     1  LIG1       -0.0364
     82 H         -23.8427    6.9658   -0.5594 H       1  LIG1        0.0279
     83 H         -23.5448    7.7397   -2.1220 H       1  LIG1        0.0279
     84 H         -24.2133    8.6836   -0.7970 H       1  LIG1        0.0279
     85 C         -21.1370    6.0235    0.2838 C.ar    1  LIG1        0.1552
     86 C         -21.5741    4.8954   -0.3601 C.ar    1  LIG1        0.0121
     87 C         -21.2107    3.7848    0.4985 C.ar    1  LIG1        0.0659
     88 C         -20.5622    4.3257    1.5756 C.ar    1  LIG1        0.1082
     89 O         -20.5066    5.6753    1.4689 O.2     1  LIG1       -0.4599
     90 H         -20.1058    3.8883    2.4495 H       1  LIG1        0.1042
     91 C         -22.2191    4.7750   -1.7053 C.3     1  LIG1       -0.0349
     92 H         -21.8184    3.9083   -2.2398 H       1  LIG1        0.0279
     93 H         -22.0386    5.6675   -2.3086 H       1  LIG1        0.0279
     94 H         -23.3034    4.6320   -1.6310 H       1  LIG1        0.0279
     95 C         -21.4515    2.4090    0.2486 C.1     1  LIG1       -0.0662
     96 C         -21.6654    1.2413    0.0138 C.1     1  LIG1       -0.1138
     97 H         -21.8477    0.2104   -0.1832 H       1  LIG1        0.1232
@<TRIPOS>BOND
     1    93    91    1
     2    92    91    1
     3    24    23    1
     4    23    17    1
     5    83    81    1
     6    80    79    1
     7    20    16    1
     8    91    94    1
     9    91    86    1
    10    79    78    3
    11    58    56    1
    12    46    38    1
    13    42    39    1
    14    17    16   ar
    15    17    18   ar
    16    78    73    1
    17    16    15   ar
    18    81    84    1
    19    81    74    1
    20    81    82    1
    21    36    34    1
    22    38    39   ar
    23    38    40   ar
    24    39    41   ar
    25    13     4    1
    26    73    74   ar
    27    73    72   ar
    28    74    75   ar
    29     7     3    1
    30    66    65    1
    31    32    33    3
    32     4     3   ar
    33     4     5   ar
    34     3     2   ar
    35    86    85   ar
    36    86    87   ar
    37    33    25    1
    38    56    51    1
    39    56    57    1
    40    56    59    1
    41    18    26    1
    42    18    19   ar
    43    11     9    1
    44    25    26   ar
    45    25    30   ar
    46    26    27   ar
    47    15     5    1
    48    15    14   ar
    49    97    96    1
    50    30    29   ar
    51     5     6   ar
    52    27    28   ar
    53    27    31    1
    54    29    40    1
    55    29    28   ar
    56    51    52   ar
    57    51    50   ar
    58    60    52    1
    59     2     8    1
    60     2     1   ar
    61    40    43   ar
    62    28    34    1
    63    75    85    1
    64    75    76   ar
    65    72    64    1
    66    72    76   ar
    67    52    53   ar
    68    96    95    3
    69    41    50    1
    70    41    44   ar
    71    50    54   ar
    72    65    64   ar
    73    65    61   ar
    74     6     1   ar
    75    34    37    1
    76    34    35    1
    77    53    54   ar
    78    53    61    1
    79     1     9    1
    80    54    55    1
    81    64    63   ar
    82    95    87    1
    83    85    89   ar
    84    76    77    1
    85    61    62   ar
    86    70    68    1
    87    87    88   ar
    88     9    10    1
    89     9    12    1
    90    43    44   ar
    91    43    45    1
    92    19    14   ar
    93    44    47    1
    94    14    22    1
    95    63    62   ar
    96    63    68    1
    97    62    67    1
    98    68    69    1
    99    68    71    1
   100    47    48    3
   101    89    88   ar
   102    88    90    1
   103    22    21    3
   104    48    49    1
