@<TRIPOS>MOLECULE
mol_data/opt/b3lyp/geoms/mol2/6ia6ia-.out
 26 27 0 0 0
SMALL
GASTEIGER

@<TRIPOS>ATOM
      1 C          -4.4924   -2.0621    0.1689 C.ar    1  LIG1        0.0389
      2 C          -3.1561   -2.1375   -0.2432 C.ar    1  LIG1       -0.0406
      3 C          -2.5176   -0.9710   -0.6555 C.ar    1  LIG1       -0.0581
      4 C          -3.2154    0.2324   -0.6292 C.ar    1  LIG1       -0.0356
      5 C          -4.5459    0.2321   -0.1808 C.ar    1  LIG1        0.0730
      6 N          -5.1652   -0.9026    0.1935 N.ar    1  LIG1       -0.2518
      7 H          -1.4889   -0.9995   -1.0036 H       1  LIG1        0.0619
      8 H          -2.6377   -3.0910   -0.2491 H       1  LIG1        0.0635
      9 C          -5.2547   -3.2842    0.6176 C.3     1  LIG1       -0.0223
     10 H          -4.6693   -4.1980    0.4883 H       1  LIG1        0.0292
     11 H          -6.1867   -3.3793    0.0522 H       1  LIG1        0.0292
     12 H          -5.5300   -3.1951    1.6739 H       1  LIG1        0.0292
     13 H          -2.7486    1.1466   -0.9736 H       1  LIG1        0.0639
     14 C          -4.9262    2.7442    0.2386 C.ar    1  LIG1        0.0473
     15 C          -5.3862    1.4636   -0.1506 C.ar    1  LIG1        0.0214
     16 C          -6.7371    1.3405   -0.5088 C.ar    1  LIG1       -0.0494
     17 C          -7.5606    2.4579   -0.5232 C.ar    1  LIG1       -0.0430
     18 C          -7.0014    3.6817   -0.1597 C.ar    1  LIG1        0.0279
     19 N          -5.7308    3.8220    0.2247 N.ar    1  LIG1       -0.2595
     20 H          -7.1148    0.3579   -0.7693 H       1  LIG1        0.0625
     21 H          -7.6021    4.5899   -0.1642 H       1  LIG1        0.0829
     22 C          -3.5288    3.0223    0.7445 C.3     1  LIG1       -0.0217
     23 H          -3.5682    3.8902    1.4051 H       1  LIG1        0.0293
     24 H          -2.8466    3.2740   -0.0770 H       1  LIG1        0.0293
     25 H          -3.1010    2.1730    1.2822 H       1  LIG1        0.0293
     26 H          -8.6057    2.3860   -0.8070 H       1  LIG1        0.0633
@<TRIPOS>BOND
     1     7     3    1
     2    13     4    1
     3    26    17    1
     4    20    16    1
     5     3     4   ar
     6     3     2   ar
     7     4     5   ar
     8    17    16   ar
     9    17    18   ar
    10    16    15   ar
    11     8     2    1
    12     2     1   ar
    13     5    15    1
    14     5     6   ar
    15    21    18    1
    16    18    19   ar
    17    15    14   ar
    18    24    22    1
    19    11     9    1
    20     1     6   ar
    21     1     9    1
    22    19    14   ar
    23    14    22    1
    24    10     9    1
    25     9    12    1
    26    22    25    1
    27    22    23    1
