@<TRIPOS>MOLECULE
mol_data/opt/b3lyp/geoms/mol2/6ia6ia6ia-6ia-.out
 50 53 0 0 0
SMALL
GASTEIGER

@<TRIPOS>ATOM
      1 C          -4.4905   -2.3661   -0.2044 C.ar    1  LIG1        0.0389
      2 C          -3.0905   -2.3723   -0.1850 C.ar    1  LIG1       -0.0406
      3 C          -2.4146   -1.1563   -0.1139 C.ar    1  LIG1       -0.0581
      4 C          -3.1486    0.0241   -0.0738 C.ar    1  LIG1       -0.0356
      5 C          -4.5515   -0.0513   -0.1105 C.ar    1  LIG1        0.0730
      6 N          -5.1993   -1.2271   -0.1677 N.ar    1  LIG1       -0.2518
      7 H          -1.3291   -1.1300   -0.0824 H       1  LIG1        0.0619
      8 H          -2.5477   -3.3115   -0.2174 H       1  LIG1        0.0635
      9 C          -5.2884   -3.6443   -0.2708 C.3     1  LIG1       -0.0223
     10 H          -4.6422   -4.5243   -0.3192 H       1  LIG1        0.0292
     11 H          -5.9411   -3.6400   -1.1495 H       1  LIG1        0.0292
     12 H          -5.9360   -3.7353    0.6074 H       1  LIG1        0.0292
     13 H          -2.6532    0.9856    0.0052 H       1  LIG1        0.0639
     14 C          -6.5693    1.3417    0.6325 C.ar    1  LIG1        0.0480
     15 C          -5.3717    1.1908   -0.1127 C.ar    1  LIG1        0.0214
     16 C          -4.9646    2.2811   -0.8889 C.ar    1  LIG1       -0.0488
     17 C          -5.7074    3.4553   -0.9123 C.ar    1  LIG1       -0.0350
     18 C          -6.8693    3.5269   -0.1345 C.ar    1  LIG1        0.0730
     19 N          -7.2753    2.4782    0.6074 N.ar    1  LIG1       -0.2512
     20 H          -4.0747    2.1959   -1.5058 H       1  LIG1        0.0625
     21 C          -7.1271    0.2594    1.5235 C.3     1  LIG1       -0.0217
     22 H          -6.3538   -0.1716    2.1665 H       1  LIG1        0.0293
     23 H          -7.5297   -0.5648    0.9293 H       1  LIG1        0.0293
     24 H          -7.9187    0.6876    2.1401 H       1  LIG1        0.0293
     25 H          -5.4065    4.2784   -1.5479 H       1  LIG1        0.0639
     26 C          -7.3370    6.0608   -0.1631 C.ar    1  LIG1        0.0480
     27 C          -7.7676    4.7136   -0.1148 C.ar    1  LIG1        0.0214
     28 C          -9.1484    4.4893   -0.0080 C.ar    1  LIG1       -0.0488
     29 C         -10.0369    5.5520   -0.0192 C.ar    1  LIG1       -0.0350
     30 C          -9.5262    6.8548   -0.1296 C.ar    1  LIG1        0.0730
     31 N          -8.2049    7.0842   -0.1735 N.ar    1  LIG1       -0.2512
     32 H          -9.4983    3.4676    0.0907 H       1  LIG1        0.0625
     33 C          -5.8849    6.4822   -0.1660 C.3     1  LIG1       -0.0217
     34 H          -5.8124    7.4811    0.2676 H       1  LIG1        0.0293
     35 H          -5.4872    6.5448   -1.1865 H       1  LIG1        0.0293
     36 H          -5.2499    5.7937    0.3962 H       1  LIG1        0.0293
     37 H         -11.1044    5.3834    0.0742 H       1  LIG1        0.0639
     38 C         -10.2126    9.2489    0.4655 C.ar    1  LIG1        0.0473
     39 C         -10.4406    8.0259   -0.2162 C.ar    1  LIG1        0.0214
     40 C         -11.5944    7.9271   -1.0043 C.ar    1  LIG1       -0.0494
     41 C         -12.4655    9.0062   -1.1118 C.ar    1  LIG1       -0.0430
     42 C         -12.1464   10.1659   -0.4123 C.ar    1  LIG1        0.0279
     43 N         -11.0600   10.2853    0.3583 N.ar    1  LIG1       -0.2595
     44 H         -11.7911    7.0089   -1.5504 H       1  LIG1        0.0625
     45 H         -12.7907   11.0420   -0.4673 H       1  LIG1        0.0829
     46 C          -9.0326    9.4789    1.3766 C.3     1  LIG1       -0.0217
     47 H          -9.2162   10.3817    1.9612 H       1  LIG1        0.0293
     48 H          -8.1126    9.6027    0.7990 H       1  LIG1        0.0293
     49 H          -8.8657    8.6316    2.0480 H       1  LIG1        0.0293
     50 H         -13.3590    8.9522   -1.7254 H       1  LIG1        0.0633
@<TRIPOS>BOND
     1    50    41    1
     2    44    40    1
     3    25    17    1
     4    20    16    1
     5    35    33    1
     6    11     9    1
     7    41    40   ar
     8    41    42   ar
     9    40    39   ar
    10    17    16   ar
    11    17    18   ar
    12    16    15   ar
    13    45    42    1
    14    42    43   ar
    15    10     9    1
    16     9     1    1
    17     9    12    1
    18     8     2    1
    19    39    30    1
    20    39    38   ar
    21     1     2   ar
    22     1     6   ar
    23     2     3   ar
    24    31    26   ar
    25    31    30   ar
    26     6     5   ar
    27    33    26    1
    28    33    34    1
    29    33    36    1
    30    26    27   ar
    31    18    27    1
    32    18    19   ar
    33    30    29   ar
    34    27    28   ar
    35     3     7    1
    36     3     4   ar
    37    15     5    1
    38    15    14   ar
    39     5     4   ar
    40     4    13    1
    41    29    28   ar
    42    29    37    1
    43    28    32    1
    44    43    38   ar
    45    38    46    1
    46    19    14   ar
    47    14    21    1
    48    48    46    1
    49    23    21    1
    50    46    47    1
    51    46    49    1
    52    21    24    1
    53    21    22    1
