@<TRIPOS>MOLECULE
mol_data/opt/b3lyp/geoms/mol2/6ia6ia-6ia6ia-.out
 50 53 0 0 0
SMALL
GASTEIGER

@<TRIPOS>ATOM
      1 C          -4.3661   -2.2547    0.0984 C.ar    1  LIG1        0.0389
      2 C          -3.0312   -2.3298   -0.3190 C.ar    1  LIG1       -0.0406
      3 C          -2.3886   -1.1604   -0.7156 C.ar    1  LIG1       -0.0581
      4 C          -3.0803    0.0461   -0.6683 C.ar    1  LIG1       -0.0356
      5 C          -4.4092    0.0453   -0.2149 C.ar    1  LIG1        0.0730
      6 N          -5.0329   -1.0925    0.1434 N.ar    1  LIG1       -0.2518
      7 H          -1.3613   -1.1883   -1.0676 H       1  LIG1        0.0619
      8 H          -2.5172   -3.2855   -0.3410 H       1  LIG1        0.0635
      9 C          -5.1330   -3.4806    0.5281 C.3     1  LIG1       -0.0223
     10 H          -4.5445   -4.3926    0.4008 H       1  LIG1        0.0292
     11 H          -6.0566   -3.5738   -0.0514 H       1  LIG1        0.0292
     12 H          -5.4234   -3.3985    1.5807 H       1  LIG1        0.0292
     13 H          -2.6094    0.9620   -1.0020 H       1  LIG1        0.0639
     14 C          -4.7847    2.5580    0.2274 C.ar    1  LIG1        0.0480
     15 C          -5.2454    1.2771   -0.1598 C.ar    1  LIG1        0.0214
     16 C          -6.6010    1.1656   -0.4981 C.ar    1  LIG1       -0.0488
     17 C          -7.4298    2.2769   -0.4812 C.ar    1  LIG1       -0.0350
     18 C          -6.8889    3.5133   -0.0996 C.ar    1  LIG1        0.0730
     19 N          -5.5939    3.6265    0.2446 N.ar    1  LIG1       -0.2512
     20 H          -6.9846    0.1913   -0.7804 H       1  LIG1        0.0625
     21 C          -3.3755    2.8422    0.6964 C.3     1  LIG1       -0.0217
     22 H          -3.3983    3.7137    1.3527 H       1  LIG1        0.0293
     23 H          -2.7145    3.0867   -0.1444 H       1  LIG1        0.0293
     24 H          -2.9349    1.9960    1.2285 H       1  LIG1        0.0293
     25 H          -8.4653    2.1891   -0.7844 H       1  LIG1        0.0639
     26 C          -9.0251    4.9058    0.2842 C.ar    1  LIG1        0.0480
     27 C          -7.6668    4.7824   -0.0945 C.ar    1  LIG1        0.0214
     28 C          -7.0059    5.9579   -0.4780 C.ar    1  LIG1       -0.0488
     29 C          -7.6768    7.1705   -0.5104 C.ar    1  LIG1       -0.0350
     30 C          -9.0271    7.2019   -0.1335 C.ar    1  LIG1        0.0730
     31 N          -9.6652    6.0834    0.2529 N.ar    1  LIG1       -0.2512
     32 H          -5.9594    5.8951   -0.7555 H       1  LIG1        0.0625
     33 C          -9.8662    3.7591    0.7976 C.3     1  LIG1       -0.0217
     34 H          -9.2805    3.0365    1.3707 H       1  LIG1        0.0293
     35 H         -10.3505    3.2168   -0.0239 H       1  LIG1        0.0293
     36 H         -10.6591    4.1667    1.4270 H       1  LIG1        0.0293
     37 H          -7.1699    8.0664   -0.8460 H       1  LIG1        0.0639
     38 C          -9.4069    9.7302    0.1720 C.ar    1  LIG1        0.0473
     39 C          -9.8599    8.4363   -0.1814 C.ar    1  LIG1        0.0214
     40 C         -11.1978    8.3050   -0.5835 C.ar    1  LIG1       -0.0494
     41 C         -12.0133    9.4246   -0.6748 C.ar    1  LIG1       -0.0430
     42 C         -11.4599   10.6599   -0.3429 C.ar    1  LIG1        0.0279
     43 N         -10.2036   10.8102    0.0826 N.ar    1  LIG1       -0.2595
     44 H         -11.5717    7.3140   -0.8169 H       1  LIG1        0.0625
     45 H         -12.0541   11.5702   -0.4083 H       1  LIG1        0.0829
     46 C          -8.0285   10.0216    0.7202 C.3     1  LIG1       -0.0217
     47 H          -8.0867   10.9186    1.3392 H       1  LIG1        0.0293
     48 H          -7.3125   10.2310   -0.0842 H       1  LIG1        0.0293
     49 H          -7.6301    9.1942    1.3119 H       1  LIG1        0.0293
     50 H         -13.0478    9.3459   -0.9936 H       1  LIG1        0.0633
@<TRIPOS>BOND
     1     7     3    1
     2    13     4    1
     3    50    41    1
     4    37    29    1
     5    44    40    1
     6    25    17    1
     7    20    16    1
     8    32    28    1
     9     3     4   ar
    10     3     2   ar
    11    41    40   ar
    12    41    42   ar
    13     4     5   ar
    14    40    39   ar
    15    29    28   ar
    16    29    30   ar
    17    16    17   ar
    18    16    15   ar
    19    17    18   ar
    20    28    27   ar
    21    45    42    1
    22    42    43   ar
    23     8     2    1
    24     2     1   ar
    25     5    15    1
    26     5     6   ar
    27    39    30    1
    28    39    38   ar
    29    15    14   ar
    30    23    21    1
    31    30    31   ar
    32    18    27    1
    33    18    19   ar
    34    27    26   ar
    35    48    46    1
    36    11     9    1
    37    35    33    1
    38    43    38   ar
    39     1     6   ar
    40     1     9    1
    41    38    46    1
    42    14    19   ar
    43    14    21    1
    44    31    26   ar
    45    26    33    1
    46    10     9    1
    47     9    12    1
    48    21    24    1
    49    21    22    1
    50    46    49    1
    51    46    47    1
    52    33    34    1
    53    33    36    1
