@<TRIPOS>MOLECULE
mol_data/opt/b3lyp/geoms/mol2/6ia6ia-6ia-6ia.out
 50 53 0 0 0
SMALL
GASTEIGER

@<TRIPOS>ATOM
      1 C          -4.3729   -2.1996    0.3803 C.ar    1  LIG1        0.0389
      2 C          -3.2406   -2.4414   -0.4081 C.ar    1  LIG1       -0.0406
      3 C          -2.7283   -1.4012   -1.1786 C.ar    1  LIG1       -0.0581
      4 C          -3.3412   -0.1529   -1.1303 C.ar    1  LIG1       -0.0356
      5 C          -4.4592    0.0185   -0.2986 C.ar    1  LIG1        0.0730
      6 N          -4.9645   -0.9974    0.4255 N.ar    1  LIG1       -0.2518
      7 H          -1.8655   -1.5626   -1.8185 H       1  LIG1        0.0619
      8 H          -2.7828   -3.4253   -0.4216 H       1  LIG1        0.0635
      9 C          -4.9910   -3.2793    1.2331 C.3     1  LIG1       -0.0223
     10 H          -4.5105   -4.2478    1.0733 H       1  LIG1        0.0292
     11 H          -6.0584   -3.3741    1.0117 H       1  LIG1        0.0292
     12 H          -4.9067   -3.0215    2.2942 H       1  LIG1        0.0292
     13 H          -2.9781    0.6619   -1.7442 H       1  LIG1        0.0639
     14 C          -4.6127    2.5886   -0.1935 C.ar    1  LIG1        0.0480
     15 C          -5.2062    1.3044   -0.2081 C.ar    1  LIG1        0.0214
     16 C          -6.6027    1.2457   -0.0924 C.ar    1  LIG1       -0.0488
     17 C          -7.3535    2.4085   -0.0345 C.ar    1  LIG1       -0.0350
     18 C          -6.6864    3.6429   -0.0835 C.ar    1  LIG1        0.0730
     19 N          -5.3473    3.7103   -0.1364 N.ar    1  LIG1       -0.2512
     20 H          -7.0763    0.2713   -0.0411 H       1  LIG1        0.0625
     21 C          -3.1194    2.8257   -0.1991 C.3     1  LIG1       -0.0217
     22 H          -2.9157    3.7751    0.2992 H       1  LIG1        0.0293
     23 H          -2.7309    2.9093   -1.2215 H       1  LIG1        0.0293
     24 H          -2.5685    2.0261    0.3011 H       1  LIG1        0.0293
     25 H          -8.4326    2.3672    0.0672 H       1  LIG1        0.0639
     26 C          -7.0639    6.0753    0.6336 C.ar    1  LIG1        0.0480
     27 C          -7.4510    4.9182   -0.0902 C.ar    1  LIG1        0.0214
     28 C          -8.6236    5.0066   -0.8493 C.ar    1  LIG1       -0.0488
     29 C          -9.3682    6.1790   -0.8751 C.ar    1  LIG1       -0.0350
     30 C          -8.9249    7.2695   -0.1173 C.ar    1  LIG1        0.0730
     31 N          -7.7910    7.1988    0.6061 N.ar    1  LIG1       -0.2512
     32 H          -8.9363    4.1575   -1.4500 H       1  LIG1        0.0625
     33 C          -5.8341    6.1306    1.5058 C.3     1  LIG1       -0.0217
     34 H          -5.8840    7.0293    2.1224 H       1  LIG1        0.0293
     35 H          -4.9261    6.1551    0.8978 H       1  LIG1        0.0293
     36 H          -5.7532    5.2480    2.1468 H       1  LIG1        0.0293
     37 H         -10.2522    6.2513   -1.4961 H       1  LIG1        0.0639
     38 C         -11.0245    8.7590   -0.1060 C.ar    1  LIG1        0.0473
     39 C          -9.6193    8.5873   -0.0998 C.ar    1  LIG1        0.0214
     40 C          -8.8249    9.7430   -0.0484 C.ar    1  LIG1       -0.0494
     41 C          -9.4169   10.9984   -0.0569 C.ar    1  LIG1       -0.0430
     42 C         -10.8085   11.0604   -0.1032 C.ar    1  LIG1        0.0279
     43 N         -11.5909    9.9788   -0.1112 N.ar    1  LIG1       -0.2595
     44 H          -7.7476    9.6269   -0.0010 H       1  LIG1        0.0625
     45 H         -11.3213   12.0209   -0.1217 H       1  LIG1        0.0829
     46 C         -12.0152    7.6178   -0.0606 C.3     1  LIG1       -0.0217
     47 H         -11.6396    6.7598    0.5018 H       1  LIG1        0.0293
     48 H         -12.2725    7.2687   -1.0683 H       1  LIG1        0.0293
     49 H         -12.9369    7.9802    0.3981 H       1  LIG1        0.0293
     50 H          -8.8203   11.9046   -0.0282 H       1  LIG1        0.0633
@<TRIPOS>BOND
     1     7     3    1
     2    13     4    1
     3    37    29    1
     4    32    28    1
     5    23    21    1
     6     3     4   ar
     7     3     2   ar
     8     4     5   ar
     9    48    46    1
    10    29    28   ar
    11    29    30   ar
    12    28    27   ar
    13     8     2    1
    14     2     1   ar
    15     5    15    1
    16     5     6   ar
    17    15    14   ar
    18    15    16   ar
    19    21    14    1
    20    21    22    1
    21    21    24    1
    22    14    19   ar
    23    19    18   ar
    24    45    42    1
    25    30    39    1
    26    30    31   ar
    27    43    38   ar
    28    43    42   ar
    29    38    39   ar
    30    38    46    1
    31    42    41   ar
    32    39    40   ar
    33    16    20    1
    34    16    17   ar
    35    27    18    1
    36    27    26   ar
    37    18    17   ar
    38    46    49    1
    39    46    47    1
    40    41    40   ar
    41    41    50    1
    42    40    44    1
    43    17    25    1
    44     1     6   ar
    45     1     9    1
    46    31    26   ar
    47    26    33    1
    48    35    33    1
    49    11     9    1
    50    10     9    1
    51     9    12    1
    52    33    34    1
    53    33    36    1
