@<TRIPOS>MOLECULE
mol_data/opt/b3lyp/geoms/mol2/6ia6ia.out
 26 27 0 0 0
SMALL
GASTEIGER

@<TRIPOS>ATOM
      1 C          -4.3820   -2.0649   -0.3042 C.ar    1  LIG1        0.0389
      2 C          -3.0708   -2.0488    0.1865 C.ar    1  LIG1       -0.0406
      3 C          -2.5393   -0.8443    0.6416 C.ar    1  LIG1       -0.0581
      4 C          -3.3219    0.3039    0.5863 C.ar    1  LIG1       -0.0356
      5 C          -4.6245    0.2095    0.0676 C.ar    1  LIG1        0.0730
      6 N          -5.1367   -0.9565   -0.3601 N.ar    1  LIG1       -0.2518
      7 H          -1.5300   -0.8031    1.0413 H       1  LIG1        0.0619
      8 H          -2.4869   -2.9633    0.2157 H       1  LIG1        0.0635
      9 C          -5.0267   -3.3344   -0.8024 C.3     1  LIG1       -0.0223
     10 H          -4.3377   -4.1818   -0.7640 H       1  LIG1        0.0292
     11 H          -5.3699   -3.2070   -1.8338 H       1  LIG1        0.0292
     12 H          -5.9087   -3.5757   -0.1999 H       1  LIG1        0.0292
     13 H          -2.9461    1.2528    0.9531 H       1  LIG1        0.0639
     14 C          -6.8561    1.4409    0.2914 C.ar    1  LIG1        0.0473
     15 C          -5.4793    1.4243   -0.0485 C.ar    1  LIG1        0.0214
     16 C          -4.9088    2.6172   -0.5088 C.ar    1  LIG1       -0.0494
     17 C          -5.6862    3.7645   -0.6320 C.ar    1  LIG1       -0.0430
     18 C          -7.0297    3.6750   -0.2813 C.ar    1  LIG1        0.0279
     19 N          -7.5991    2.5531    0.1725 N.ar    1  LIG1       -0.2595
     20 H          -3.8602    2.6339   -0.7919 H       1  LIG1        0.0625
     21 H          -7.6836    4.5416   -0.3645 H       1  LIG1        0.0829
     22 C          -7.5856    0.2358    0.8316 C.3     1  LIG1       -0.0217
     23 H          -7.0230   -0.2524    1.6335 H       1  LIG1        0.0293
     24 H          -7.7288   -0.5157    0.0511 H       1  LIG1        0.0293
     25 H          -8.5567    0.5582    1.2101 H       1  LIG1        0.0293
     26 H          -5.2652    4.6961   -0.9961 H       1  LIG1        0.0633
@<TRIPOS>BOND
     1    11     9    1
     2    26    17    1
     3     9    10    1
     4     9     1    1
     5     9    12    1
     6    20    16    1
     7    17    16   ar
     8    17    18   ar
     9    16    15   ar
    10    21    18    1
    11     6     1   ar
    12     6     5   ar
    13     1     2   ar
    14    18    19   ar
    15    15     5    1
    16    15    14   ar
    17    24    22    1
    18     5     4   ar
    19    19    14   ar
    20     2     8    1
    21     2     3   ar
    22    14    22    1
    23     4     3   ar
    24     4    13    1
    25     3     7    1
    26    22    25    1
    27    22    23    1
