@<TRIPOS>MOLECULE
mol_data/opt/b3lyp/geoms/mol2/6ia6ia6ia6ia.out
 50 53 0 0 0
SMALL
GASTEIGER

@<TRIPOS>ATOM
      1 C          -3.7041   -1.9198   -0.7260 C.ar    1  LIG1        0.0389
      2 C          -2.8266   -2.1603    0.3384 C.ar    1  LIG1       -0.0406
      3 C          -2.8586   -1.3088    1.4404 C.ar    1  LIG1       -0.0581
      4 C          -3.7521   -0.2432    1.4461 C.ar    1  LIG1       -0.0356
      5 C          -4.5917   -0.0602    0.3342 C.ar    1  LIG1        0.0730
      6 N          -4.5654   -0.8907   -0.7217 N.ar    1  LIG1       -0.2518
      7 H          -2.2005   -1.4789    2.2877 H       1  LIG1        0.0619
      8 H          -2.1418   -3.0014    0.3027 H       1  LIG1        0.0635
      9 C          -3.7300   -2.8041   -1.9477 C.3     1  LIG1       -0.0223
     10 H          -3.0100   -3.6227   -1.8717 H       1  LIG1        0.0292
     11 H          -3.5017   -2.2201   -2.8450 H       1  LIG1        0.0292
     12 H          -4.7290   -3.2290   -2.0891 H       1  LIG1        0.0292
     13 H          -3.8178    0.4237    2.2989 H       1  LIG1        0.0639
     14 C          -6.8667    0.9905   -0.1889 C.ar    1  LIG1        0.0480
     15 C          -5.5327    1.0924    0.2810 C.ar    1  LIG1        0.0214
     16 C          -5.1044    2.3496    0.7221 C.ar    1  LIG1       -0.0488
     17 C          -5.9579    3.4440    0.6735 C.ar    1  LIG1       -0.0350
     18 C          -7.2533    3.2596    0.1725 C.ar    1  LIG1        0.0730
     19 N          -7.6838    2.0513   -0.2306 N.ar    1  LIG1       -0.2512
     20 H          -4.0893    2.4712    1.0891 H       1  LIG1        0.0625
     21 C          -7.4762   -0.3088   -0.6543 C.3     1  LIG1       -0.0217
     22 H          -7.2775   -1.1224    0.0500 H       1  LIG1        0.0293
     23 H          -7.0501   -0.6171   -1.6122 H       1  LIG1        0.0293
     24 H          -8.5533   -0.1730   -0.7618 H       1  LIG1        0.0293
     25 H          -5.6327    4.4168    1.0261 H       1  LIG1        0.0639
     26 C          -9.5687    4.3329    0.3792 C.ar    1  LIG1        0.0480
     27 C          -8.1917    4.4068    0.0476 C.ar    1  LIG1        0.0214
     28 C          -7.7092    5.6399   -0.4068 C.ar    1  LIG1       -0.0488
     29 C          -8.5630    6.7268   -0.5414 C.ar    1  LIG1       -0.0350
     30 C          -9.9147    6.5597   -0.2135 C.ar    1  LIG1        0.0730
     31 N         -10.3845    5.3876    0.2476 N.ar    1  LIG1       -0.2512
     32 H          -6.6609    5.7392   -0.6732 H       1  LIG1        0.0625
     33 C         -10.2178    3.0837    0.9213 C.3     1  LIG1       -0.0217
     34 H          -9.6152    2.6236    1.7099 H       1  LIG1        0.0293
     35 H         -10.3267    2.3308    0.1365 H       1  LIG1        0.0293
     36 H         -11.2023    3.3421    1.3142 H       1  LIG1        0.0293
     37 H          -8.1901    7.6864   -0.8827 H       1  LIG1        0.0639
     38 C         -11.8892    7.9916    0.5602 C.ar    1  LIG1        0.0473
     39 C         -10.8838    7.6760   -0.3894 C.ar    1  LIG1        0.0214
     40 C         -10.8063    8.4679   -1.5418 C.ar    1  LIG1       -0.0494
     41 C         -11.7020    9.5149   -1.7346 C.ar    1  LIG1       -0.0430
     42 C         -12.6581    9.7368   -0.7484 C.ar    1  LIG1        0.0279
     43 N         -12.7479    9.0059    0.3681 N.ar    1  LIG1       -0.2595
     44 H         -10.0571    8.2424   -2.2954 H       1  LIG1        0.0625
     45 H         -13.3869   10.5390   -0.8531 H       1  LIG1        0.0829
     46 C         -12.0599    7.2430    1.8586 C.3     1  LIG1       -0.0217
     47 H         -11.1035    7.0879    2.3667 H       1  LIG1        0.0293
     48 H         -12.4816    6.2499    1.6828 H       1  LIG1        0.0293
     49 H         -12.7303    7.8132    2.5035 H       1  LIG1        0.0293
     50 H         -11.6651   10.1333   -2.6256 H       1  LIG1        0.0633
@<TRIPOS>BOND
     1    11     9    1
     2    50    41    1
     3    44    40    1
     4    12     9    1
     5     9    10    1
     6     9     1    1
     7    41    40   ar
     8    41    42   ar
     9    23    21    1
    10    40    39   ar
    11    37    29    1
    12    45    42    1
    13    24    21    1
    14    42    43   ar
    15     1     6   ar
    16     1     2   ar
    17     6     5   ar
    18    32    28    1
    19    21    14    1
    20    21    22    1
    21    29    28   ar
    22    29    30   ar
    23    28    27   ar
    24    39    30    1
    25    39    38   ar
    26    19    14   ar
    27    19    18   ar
    28    30    31   ar
    29    14    15   ar
    30    27    18    1
    31    27    26   ar
    32    35    33    1
    33    18    17   ar
    34    31    26   ar
    35    15     5    1
    36    15    16   ar
    37     8     2    1
    38     5     4   ar
    39     2     3   ar
    40    43    38   ar
    41    26    33    1
    42    38    46    1
    43    17    16   ar
    44    17    25    1
    45    16    20    1
    46    33    36    1
    47    33    34    1
    48     3     4   ar
    49     3     7    1
    50     4    13    1
    51    48    46    1
    52    46    47    1
    53    46    49    1
