@<TRIPOS>MOLECULE
mol_data/opt/b3lyp/geoms/mol2/6ia6ia6ia.out
 38 40 0 0 0
SMALL
GASTEIGER

@<TRIPOS>ATOM
      1 C          -4.0968   -2.0532   -0.5432 C.ar    1  LIG1        0.0389
      2 C          -2.9768   -2.1232    0.2942 C.ar    1  LIG1       -0.0406
      3 C          -2.6974   -1.0466    1.1328 C.ar    1  LIG1       -0.0581
      4 C          -3.5315    0.0658    1.1063 C.ar    1  LIG1       -0.0356
      5 C          -4.6290    0.0661    0.2287 C.ar    1  LIG1        0.0730
      6 N          -4.9012   -0.9792   -0.5704 N.ar    1  LIG1       -0.2518
      7 H          -1.8441   -1.0777    1.8044 H       1  LIG1        0.0619
      8 H          -2.3461   -3.0065    0.2907 H       1  LIG1        0.0635
      9 C          -4.4651   -3.1839   -1.4712 C.3     1  LIG1       -0.0223
     10 H          -3.7625   -4.0173   -1.3946 H       1  LIG1        0.0292
     11 H          -4.4819   -2.8345   -2.5085 H       1  LIG1        0.0292
     12 H          -5.4703   -3.5524   -1.2424 H       1  LIG1        0.0292
     13 H          -3.3544    0.9106    1.7629 H       1  LIG1        0.0639
     14 C          -6.9348    1.1649    0.0573 C.ar    1  LIG1        0.0480
     15 C          -5.5220    1.2539    0.1379 C.ar    1  LIG1        0.0214
     16 C          -4.9614    2.5363    0.1421 C.ar    1  LIG1       -0.0488
     17 C          -5.7703    3.6612    0.0474 C.ar    1  LIG1       -0.0350
     18 C          -7.1560    3.4817   -0.0526 C.ar    1  LIG1        0.0730
     19 N          -7.7075    2.2557   -0.0317 N.ar    1  LIG1       -0.2512
     20 H          -3.8827    2.6490    0.2025 H       1  LIG1        0.0625
     21 C          -7.6777   -0.1479    0.0865 C.3     1  LIG1       -0.0217
     22 H          -7.3186   -0.7972    0.8909 H       1  LIG1        0.0293
     23 H          -7.5306   -0.6989   -0.8458 H       1  LIG1        0.0293
     24 H          -8.7407    0.0536    0.2260 H       1  LIG1        0.0293
     25 H          -5.3402    4.6568    0.0618 H       1  LIG1        0.0639
     26 C          -9.2963    4.7764    0.4838 C.ar    1  LIG1        0.0473
     27 C          -8.0656    4.6494   -0.2100 C.ar    1  LIG1        0.0214
     28 C          -7.6980    5.6858   -1.0772 C.ar    1  LIG1       -0.0494
     29 C          -8.5320    6.7862   -1.2478 C.ar    1  LIG1       -0.0430
     30 C          -9.7235    6.8111   -0.5294 C.ar    1  LIG1        0.0279
     31 N         -10.0942    5.8433    0.3158 N.ar    1  LIG1       -0.2595
     32 H          -6.7684    5.6118   -1.6342 H       1  LIG1        0.0625
     33 H         -10.4151    7.6459   -0.6315 H       1  LIG1        0.0829
     34 C          -9.7933    3.7528    1.4740 C.3     1  LIG1       -0.0217
     35 H          -9.0013    3.4278    2.1550 H       1  LIG1        0.0293
     36 H         -10.1488    2.8552    0.9610 H       1  LIG1        0.0293
     37 H         -10.6132    4.1910    2.0453 H       1  LIG1        0.0293
     38 H          -8.2702    7.5944   -1.9229 H       1  LIG1        0.0633
@<TRIPOS>BOND
     1    11     9    1
     2    38    29    1
     3    32    28    1
     4     9    10    1
     5     9    12    1
     6     9     1    1
     7    29    28   ar
     8    29    30   ar
     9    28    27   ar
    10    23    21    1
    11    33    30    1
    12     6     1   ar
    13     6     5   ar
    14     1     2   ar
    15    30    31   ar
    16    27    18    1
    17    27    26   ar
    18    18    19   ar
    19    18    17   ar
    20    19    14   ar
    21    17    25    1
    22    17    16   ar
    23    14    21    1
    24    14    15   ar
    25    21    24    1
    26    21    22    1
    27    15    16   ar
    28    15     5    1
    29    16    20    1
    30     5     4   ar
    31     8     2    1
    32     2     3   ar
    33    31    26   ar
    34    26    34    1
    35    36    34    1
    36     4     3   ar
    37     4    13    1
    38     3     7    1
    39    34    37    1
    40    34    35    1
