@<TRIPOS>MOLECULE
mol_data/opt/b3lyp/geoms/mol2/6ia6ia-6ia-6ia-.out
 50 53 0 0 0
SMALL
GASTEIGER

@<TRIPOS>ATOM
      1 C          -4.3246   -2.1444    0.6735 C.ar    1  LIG1        0.0389
      2 C          -3.4778   -2.5759   -0.3555 C.ar    1  LIG1       -0.0406
      3 C          -3.2121   -1.7073   -1.4103 C.ar    1  LIG1       -0.0581
      4 C          -3.7768   -0.4355   -1.4037 C.ar    1  LIG1       -0.0356
      5 C          -4.5960   -0.0660   -0.3249 C.ar    1  LIG1        0.0730
      6 N          -4.8690   -0.9193    0.6797 N.ar    1  LIG1       -0.2518
      7 H          -2.5793   -2.0203   -2.2359 H       1  LIG1        0.0619
      8 H          -3.0497   -3.5729   -0.3306 H       1  LIG1        0.0635
      9 C          -4.6689   -3.0332    1.8426 C.3     1  LIG1       -0.0223
     10 H          -4.2675   -4.0419    1.7172 H       1  LIG1        0.0292
     11 H          -5.7544   -3.0977    1.9641 H       1  LIG1        0.0292
     12 H          -4.2679   -2.6138    2.7714 H       1  LIG1        0.0292
     13 H          -3.6089    0.2440   -2.2297 H       1  LIG1        0.0639
     14 C          -4.7031    2.4898   -0.6397 C.ar    1  LIG1        0.0480
     15 C          -5.2752    1.2576   -0.2445 C.ar    1  LIG1        0.0214
     16 C          -6.5689    1.2994    0.2960 C.ar    1  LIG1       -0.0488
     17 C          -7.2634    2.4959    0.3683 C.ar    1  LIG1       -0.0350
     18 C          -6.6415    3.6635   -0.1014 C.ar    1  LIG1        0.0730
     19 N          -5.3830    3.6444   -0.5666 N.ar    1  LIG1       -0.2512
     20 H          -7.0052    0.3763    0.6617 H       1  LIG1        0.0625
     21 C          -3.2826    2.6388   -1.1359 C.3     1  LIG1       -0.0217
     22 H          -2.9378    3.6484   -0.9053 H       1  LIG1        0.0293
     23 H          -3.2235    2.5196   -2.2248 H       1  LIG1        0.0293
     24 H          -2.6048    1.9105   -0.6851 H       1  LIG1        0.0293
     25 H          -8.2591    2.5337    0.7969 H       1  LIG1        0.0639
     26 C          -6.7726    6.1979    0.2496 C.ar    1  LIG1        0.0480
     27 C          -7.3670    4.9617   -0.1112 C.ar    1  LIG1        0.0214
     28 C          -8.7166    4.9866   -0.4833 C.ar    1  LIG1       -0.0488
     29 C          -9.4196    6.1835   -0.5148 C.ar    1  LIG1       -0.0350
     30 C          -8.7477    7.3626   -0.1666 C.ar    1  LIG1        0.0730
     31 N          -7.4597    7.3478    0.2180 N.ar    1  LIG1       -0.2512
     32 H          -9.2106    4.0616   -0.7666 H       1  LIG1        0.0625
     33 C          -5.3428    6.3199    0.7152 C.3     1  LIG1       -0.0217
     34 H          -5.2004    7.3094    1.1522 H       1  LIG1        0.0293
     35 H          -4.6498    6.1898   -0.1199 H       1  LIG1        0.0293
     36 H          -5.0891    5.5516    1.4513 H       1  LIG1        0.0293
     37 H         -10.4679    6.2045   -0.7923 H       1  LIG1        0.0639
     38 C          -9.3042    9.6819    0.7602 C.ar    1  LIG1        0.0473
     39 C          -9.4374    8.6800   -0.2351 C.ar    1  LIG1        0.0214
     40 C         -10.2690    8.9556   -1.3277 C.ar    1  LIG1       -0.0494
     41 C         -10.9223   10.1803   -1.4204 C.ar    1  LIG1       -0.0430
     42 C         -10.7182   11.1003   -0.3967 C.ar    1  LIG1        0.0279
     43 N          -9.9408   10.8604    0.6648 N.ar    1  LIG1       -0.2595
     44 H         -10.3799    8.2148   -2.1145 H       1  LIG1        0.0625
     45 H         -11.2006   12.0761   -0.4238 H       1  LIG1        0.0829
     46 C          -8.4703    9.5017    2.0042 C.3     1  LIG1       -0.0217
     47 H          -8.7165   10.2996    2.7066 H       1  LIG1        0.0293
     48 H          -7.4039    9.5419    1.7676 H       1  LIG1        0.0293
     49 H          -8.6470    8.5297    2.4744 H       1  LIG1        0.0293
     50 H         -11.5625   10.4168   -2.2642 H       1  LIG1        0.0633
@<TRIPOS>BOND
     1    50    41    1
     2     7     3    1
     3    13     4    1
     4    23    21    1
     5    44    40    1
     6    41    40   ar
     7    41    42   ar
     8     3     4   ar
     9     3     2   ar
    10     4     5   ar
    11    40    39   ar
    12    21    22    1
    13    21    24    1
    14    21    14    1
    15    37    29    1
    16    32    28    1
    17    14    19   ar
    18    14    15   ar
    19    19    18   ar
    20    29    28   ar
    21    29    30   ar
    22    28    27   ar
    23    45    42    1
    24    42    43   ar
    25     2     8    1
    26     2     1   ar
    27     5    15    1
    28     5     6   ar
    29    15    16   ar
    30    39    30    1
    31    39    38   ar
    32    30    31   ar
    33    35    33    1
    34    27    18    1
    35    27    26   ar
    36    18    17   ar
    37    31    26   ar
    38    26    33    1
    39    16    17   ar
    40    16    20    1
    41    17    25    1
    42    43    38   ar
    43     1     6   ar
    44     1     9    1
    45    33    34    1
    46    33    36    1
    47    38    46    1
    48    10     9    1
    49    48    46    1
    50     9    11    1
    51     9    12    1
    52    46    49    1
    53    46    47    1
