@<TRIPOS>MOLECULE
mol_data/opt/b3lyp/geoms/mol2/6ia6ia-4ia6ia.out
 51 54 0 0 0
SMALL
GASTEIGER

@<TRIPOS>ATOM
      1 C          -4.3427   -2.1981    0.3097 C.ar    1  LIG1        0.0389
      2 C          -3.1948   -2.4109   -0.4639 C.ar    1  LIG1       -0.0406
      3 C          -2.6820   -1.3490   -1.2041 C.ar    1  LIG1       -0.0581
      4 C          -3.3098   -0.1090   -1.1401 C.ar    1  LIG1       -0.0356
      5 C          -4.4429    0.0333   -0.3228 C.ar    1  LIG1        0.0730
      6 N          -4.9481   -1.0035    0.3713 N.ar    1  LIG1       -0.2518
      7 H          -1.8071   -1.4874   -1.8330 H       1  LIG1        0.0619
      8 H          -2.7258   -3.3893   -0.4902 H       1  LIG1        0.0635
      9 C          -4.9647   -3.3032    1.1268 C.3     1  LIG1       -0.0223
     10 H          -4.4577   -4.2586    0.9701 H       1  LIG1        0.0292
     11 H          -6.0216   -3.4188    0.8676 H       1  LIG1        0.0292
     12 H          -4.9226   -3.0585    2.1934 H       1  LIG1        0.0292
     13 H          -2.9467    0.7222   -1.7314 H       1  LIG1        0.0639
     14 C          -4.6249    2.5986   -0.1681 C.ar    1  LIG1        0.0480
     15 C          -5.2042    1.3093   -0.2165 C.ar    1  LIG1        0.0214
     16 C          -6.6018    1.2347   -0.1212 C.ar    1  LIG1       -0.0488
     17 C          -7.3648    2.3887   -0.0513 C.ar    1  LIG1       -0.0350
     18 C          -6.7110    3.6314   -0.0669 C.ar    1  LIG1        0.0716
     19 N          -5.3715    3.7117   -0.0983 N.ar    1  LIG1       -0.2512
     20 H          -7.0661    0.2548   -0.0960 H       1  LIG1        0.0625
     21 C          -3.1340    2.8512   -0.1487 C.3     1  LIG1       -0.0217
     22 H          -2.9469    3.7916    0.3729 H       1  LIG1        0.0293
     23 H          -2.7331    2.9615   -1.1639 H       1  LIG1        0.0293
     24 H          -2.5805    2.0469    0.3409 H       1  LIG1        0.0293
     25 H          -8.4447    2.3358    0.0331 H       1  LIG1        0.0639
     26 C          -7.1208    6.0298    0.7110 C.ar    1  LIG1       -0.0407
     27 C          -7.9257    7.1714    0.6415 C.ar    1  LIG1       -0.0504
     28 C          -7.4883    4.9018   -0.0614 C.ar    1  LIG1        0.0033
     29 C          -9.0756    7.2516   -0.1588 C.ar    1  LIG1       -0.0159
     30 H          -7.6592    8.0288    1.2542 H       1  LIG1        0.0626
     31 C          -8.6408    4.9777   -0.8600 C.ar    1  LIG1       -0.0517
     32 C          -9.4231    6.1256   -0.9164 C.ar    1  LIG1       -0.0533
     33 H          -8.9091    4.1249   -1.4764 H       1  LIG1        0.0624
     34 C          -5.9199    6.0439    1.6284 C.3     1  LIG1       -0.0391
     35 H          -5.9613    6.9095    2.2957 H       1  LIG1        0.0278
     36 H          -4.9881    6.0825    1.0589 H       1  LIG1        0.0278
     37 H          -5.8687    5.1393    2.2412 H       1  LIG1        0.0278
     38 H         -10.2872    6.1556   -1.5719 H       1  LIG1        0.0624
     39 C         -11.2575    8.5821   -0.0232 C.ar    1  LIG1        0.0459
     40 C          -9.8560    8.5174   -0.2191 C.ar    1  LIG1        0.0032
     41 C          -9.1835    9.7228   -0.4659 C.ar    1  LIG1       -0.0509
     42 C          -9.8897   10.9187   -0.5349 C.ar    1  LIG1       -0.0430
     43 C         -11.2690   10.8695   -0.3490 C.ar    1  LIG1        0.0279
     44 N         -11.9352    9.7401   -0.0921 N.ar    1  LIG1       -0.2596
     45 H          -8.1084    9.7074   -0.6207 H       1  LIG1        0.0625
     46 H         -11.8685   11.7769   -0.4007 H       1  LIG1        0.0829
     47 C         -12.0992    7.3711    0.3062 C.3     1  LIG1       -0.0218
     48 H         -11.5502    6.6353    0.8983 H       1  LIG1        0.0293
     49 H         -12.4457    6.8671   -0.6040 H       1  LIG1        0.0293
     50 H         -12.9854    7.6982    0.8531 H       1  LIG1        0.0293
     51 H          -9.3877   11.8604   -0.7326 H       1  LIG1        0.0633
@<TRIPOS>BOND
     1     7     3    1
     2    13     4    1
     3    38    32    1
     4    33    31    1
     5     3     4   ar
     6     3     2   ar
     7    23    21    1
     8     4     5   ar
     9    32    31   ar
    10    32    29   ar
    11    31    28   ar
    12    51    42    1
    13    45    41    1
    14    49    47    1
    15    42    41   ar
    16    42    43   ar
    17     8     2    1
    18    41    40   ar
    19     2     1   ar
    20    46    43    1
    21    43    44   ar
    22     5    15    1
    23     5     6   ar
    24    40    29    1
    25    40    39   ar
    26    15    14   ar
    27    15    16   ar
    28    14    21    1
    29    14    19   ar
    30    29    27   ar
    31    21    24    1
    32    21    22    1
    33    16    20    1
    34    16    17   ar
    35    19    18   ar
    36    44    39   ar
    37    18    28    1
    38    18    17   ar
    39    28    26   ar
    40    17    25    1
    41    39    47    1
    42    47    50    1
    43    47    48    1
    44     1     6   ar
    45     1     9    1
    46    27    26   ar
    47    27    30    1
    48    26    34    1
    49    11     9    1
    50    10     9    1
    51    36    34    1
    52     9    12    1
    53    34    37    1
    54    34    35    1
