@<TRIPOS>MOLECULE
mol_data/opt/b3lyp/geoms/mol2/6ia6ia-6ia.out
 38 40 0 0 0
SMALL
GASTEIGER

@<TRIPOS>ATOM
      1 C          -4.4142   -2.1473    0.0402 C.ar    1  LIG1        0.0389
      2 C          -3.0413   -2.2040   -0.2312 C.ar    1  LIG1       -0.0406
      3 C          -2.3631   -1.0171   -0.4942 C.ar    1  LIG1       -0.0581
      4 C          -3.0598    0.1869   -0.4611 C.ar    1  LIG1       -0.0356
      5 C          -4.4303    0.1662   -0.1559 C.ar    1  LIG1        0.0730
      6 N          -5.0855   -0.9874    0.0728 N.ar    1  LIG1       -0.2518
      7 H          -1.3032   -1.0291   -0.7319 H       1  LIG1        0.0619
      8 H          -2.5248   -3.1584   -0.2456 H       1  LIG1        0.0635
      9 C          -5.2207   -3.3925    0.3132 C.3     1  LIG1       -0.0223
     10 H          -4.6056   -4.2942    0.2591 H       1  LIG1        0.0292
     11 H          -6.0378   -3.4827   -0.4098 H       1  LIG1        0.0292
     12 H          -5.6779   -3.3400    1.3065 H       1  LIG1        0.0292
     13 H          -2.5580    1.1177   -0.6929 H       1  LIG1        0.0639
     14 C          -4.8590    2.6543    0.3698 C.ar    1  LIG1        0.0480
     15 C          -5.2718    1.3954   -0.1273 C.ar    1  LIG1        0.0214
     16 C          -6.5841    1.3035   -0.6117 C.ar    1  LIG1       -0.0488
     17 C          -7.4136    2.4142   -0.6261 C.ar    1  LIG1       -0.0350
     18 C          -6.9199    3.6287   -0.1283 C.ar    1  LIG1        0.0730
     19 N          -5.6691    3.7224    0.3552 N.ar    1  LIG1       -0.2512
     20 H          -6.9327    0.3455   -0.9814 H       1  LIG1        0.0625
     21 C          -3.5081    2.9127    0.9987 C.3     1  LIG1       -0.0217
     22 H          -3.6051    3.7471    1.6954 H       1  LIG1        0.0293
     23 H          -2.7644    3.2039    0.2465 H       1  LIG1        0.0293
     24 H          -3.1200    2.0392    1.5274 H       1  LIG1        0.0293
     25 H          -8.4123    2.3448   -1.0385 H       1  LIG1        0.0639
     26 C          -9.0902    4.9931    0.1170 C.ar    1  LIG1        0.0473
     27 C          -7.7021    4.8967   -0.1444 C.ar    1  LIG1        0.0214
     28 C          -7.0091    6.0862   -0.4156 C.ar    1  LIG1       -0.0494
     29 C          -7.6898    7.2945   -0.4722 C.ar    1  LIG1       -0.0430
     30 C          -9.0637    7.2773   -0.2386 C.ar    1  LIG1        0.0279
     31 N          -9.7426    6.1680    0.0625 N.ar    1  LIG1       -0.2595
     32 H          -5.9377    6.0341   -0.5764 H       1  LIG1        0.0625
     33 H          -9.6459    8.1965   -0.2818 H       1  LIG1        0.0829
     34 C          -9.9567    3.8226    0.5225 C.3     1  LIG1       -0.0217
     35 H          -9.4099    3.0800    1.1081 H       1  LIG1        0.0293
     36 H         -10.3778    3.3121   -0.3526 H       1  LIG1        0.0293
     37 H         -10.7966    4.2024    1.1070 H       1  LIG1        0.0293
     38 H          -7.1741    8.2242   -0.6906 H       1  LIG1        0.0633
@<TRIPOS>BOND
     1    25    17    1
     2    20    16    1
     3     7     3    1
     4    13     4    1
     5    38    29    1
     6    17    16   ar
     7    17    18   ar
     8    16    15   ar
     9    32    28    1
    10     3     4   ar
    11     3     2   ar
    12    29    28   ar
    13    29    30   ar
    14     4     5   ar
    15    28    27   ar
    16    11     9    1
    17    36    34    1
    18    33    30    1
    19     8     2    1
    20    30    31   ar
    21     2     1   ar
    22     5    15    1
    23     5     6   ar
    24    27    18    1
    25    27    26   ar
    26    18    19   ar
    27    15    14   ar
    28     1     6   ar
    29     1     9    1
    30    31    26   ar
    31    26    34    1
    32    23    21    1
    33    10     9    1
    34     9    12    1
    35    19    14   ar
    36    14    21    1
    37    34    37    1
    38    34    35    1
    39    21    24    1
    40    21    22    1
