@<TRIPOS>MOLECULE
mol_data/opt/b3lyp/geoms/mol2/6id13el-13ah-4dd.out
 51 54 0 0 0
SMALL
GASTEIGER

@<TRIPOS>ATOM
      1 C          -4.6357   -2.1100    0.4517 C.ar    1  LIG1        0.0390
      2 C          -3.2653   -2.3089    0.2233 C.ar    1  LIG1       -0.0394
      3 C          -2.4963   -1.2276   -0.1765 C.ar    1  LIG1       -0.0405
      4 C          -3.0789    0.0446   -0.2959 C.ar    1  LIG1        0.0792
      5 C          -4.4459    0.1845    0.0640 C.ar    1  LIG1        0.1060
      6 N          -5.1912   -0.8964    0.3811 N.ar    1  LIG1       -0.2491
      7 H          -1.4490   -1.3532   -0.4308 H       1  LIG1        0.0632
      8 H          -2.8279   -3.2963    0.3204 H       1  LIG1        0.0636
      9 C          -5.5571   -3.2531    0.7888 C.3     1  LIG1       -0.0223
     10 H          -5.0110   -4.1916    0.9067 H       1  LIG1        0.0292
     11 H          -6.3033   -3.3851   -0.0021 H       1  LIG1        0.0292
     12 H          -6.1020   -3.0426    1.7139 H       1  LIG1        0.0292
     13 N          -1.6159    1.8432   -1.4515 N.1     1  LIG1       -0.1908
     14 C          -2.2969    1.0790   -0.8976 C.1     1  LIG1        0.1014
     15 C          -5.1893    1.4376    0.0800 C.ar    1  LIG1        0.0859
     16 C          -4.8602    2.7937    0.2897 C.ar    1  LIG1        0.0937
     17 C          -6.0854    3.5238    0.1921 C.ar    1  LIG1        0.1626
     18 C          -7.1241    2.6182   -0.0358 C.ar    1  LIG1        0.1069
     19 N          -6.5483    1.3707   -0.0791 N.ar    1  LIG1       -0.3479
     20 H          -7.0038    0.4881   -0.2577 H       1  LIG1        0.1661
     21 C          -3.6232    3.3251    0.7276 C.1     1  LIG1       -0.0638
     22 C          -2.5880    3.7979    1.1404 C.1     1  LIG1       -0.1137
     23 H          -1.6603    4.1929    1.4840 H       1  LIG1        0.1232
     24 O          -6.2948    4.8532    0.3729 O.3     1  LIG1       -0.4917
     25 C          -5.4735    5.7370   -0.4049 C.3     1  LIG1        0.0789
     26 H          -5.8170    6.7456   -0.1701 H       1  LIG1        0.0660
     27 H          -4.4179    5.6377   -0.1416 H       1  LIG1        0.0660
     28 H          -5.6028    5.5431   -1.4762 H       1  LIG1        0.0660
     29 C          -8.5405    2.8377   -0.1697 C.ar    1  LIG1        0.0688
     30 C          -9.2494    3.9990   -0.4224 C.ar    1  LIG1       -0.0135
     31 C         -10.6369    3.6896   -0.4076 C.ar    1  LIG1        0.0509
     32 C         -10.7591    2.3102   -0.1413 C.ar    1  LIG1        0.0692
     33 N          -9.4486    1.8063   -0.0490 N.ar    1  LIG1       -0.3514
     34 H          -9.2535    1.0013    0.5302 H       1  LIG1        0.1660
     35 H          -8.8135    4.9667   -0.6192 H       1  LIG1        0.0658
     36 N         -11.6286    4.5870   -0.7732 N.pl3   1  LIG1       -0.3563
     37 H         -11.2823    5.5309   -0.8813 H       1  LIG1        0.1424
     38 H         -12.4724    4.5752   -0.2133 H       1  LIG1        0.1424
     39 C         -13.1769    1.6567    0.3252 C.ar    1  LIG1        0.0610
     40 C         -14.2063    0.6992    0.2417 C.ar    1  LIG1       -0.0425
     41 C         -11.8627    1.3741   -0.1519 C.ar    1  LIG1        0.0187
     42 C         -13.9669   -0.5672   -0.2609 C.ar    1  LIG1       -0.0431
     43 H         -15.1932    0.9631    0.6063 H       1  LIG1        0.0631
     44 C         -11.6452    0.0677   -0.6465 C.ar    1  LIG1       -0.0339
     45 C         -12.6639   -0.8836   -0.6955 C.ar    1  LIG1        0.0525
     46 H         -10.6690   -0.1876   -1.0409 H       1  LIG1        0.0637
     47 H         -14.7566   -1.3069   -0.3137 H       1  LIG1        0.0631
     48 N         -13.7330    3.8941    1.5108 N.1     1  LIG1       -0.1908
     49 C         -13.4800    2.8897    0.9759 C.1     1  LIG1        0.0998
     50 N         -12.1404   -3.2529   -1.6249 N.1     1  LIG1       -0.1909
     51 C         -12.3777   -2.1913   -1.2132 C.1     1  LIG1        0.0992
@<TRIPOS>BOND
     1    50    51    3
     2    28    25    1
     3    13    14    3
     4    51    45    1
     5    46    44    1
     6    14     4    1
     7    37    36    1
     8    36    31    1
     9    36    38    1
    10    45    44   ar
    11    45    42   ar
    12    44    41   ar
    13    35    30    1
    14     7     3    1
    15    30    31   ar
    16    30    29   ar
    17    31    32   ar
    18    25    26    1
    19    25    27    1
    20    25    24    1
    21    47    42    1
    22     4     3   ar
    23     4     5   ar
    24    42    40   ar
    25    20    19    1
    26     3     2   ar
    27    29    33   ar
    28    29    18    1
    29    41    32    1
    30    41    39   ar
    31    32    33   ar
    32    19    18   ar
    33    19    15   ar
    34    33    34    1
    35    18    17   ar
    36    11     9    1
    37     5    15    1
    38     5     6   ar
    39    15    16   ar
    40    17    16   ar
    41    17    24    1
    42     2     8    1
    43     2     1   ar
    44    40    39   ar
    45    40    43    1
    46    16    21    1
    47    39    49    1
    48     6     1   ar
    49     1     9    1
    50    21    22    3
    51     9    10    1
    52     9    12    1
    53    49    48    3
    54    22    23    1
