@<TRIPOS>MOLECULE
mol_data/opt/b3lyp/geoms/mol2/6id6id6id.out
 41 43 0 0 0
SMALL
GASTEIGER

@<TRIPOS>ATOM
      1 C          -4.0983   -1.9244   -0.9878 C.ar    1  LIG1        0.0390
      2 C          -3.0203   -2.1705   -0.1259 C.ar    1  LIG1       -0.0394
      3 C          -2.7448   -1.2618    0.8846 C.ar    1  LIG1       -0.0406
      4 C          -3.5413   -0.1136    1.0098 C.ar    1  LIG1        0.0777
      5 C          -4.5976    0.0735    0.0848 C.ar    1  LIG1        0.0903
      6 N          -4.8590   -0.8239   -0.8718 N.ar    1  LIG1       -0.2505
      7 H          -1.9300   -1.4283    1.5813 H       1  LIG1        0.0632
      8 H          -2.4171   -3.0642   -0.2438 H       1  LIG1        0.0636
      9 C          -4.4671   -2.8767   -2.0933 C.3     1  LIG1       -0.0223
     10 H          -3.7820   -3.7257   -2.1438 H       1  LIG1        0.0292
     11 H          -4.4595   -2.3577   -3.0567 H       1  LIG1        0.0292
     12 H          -5.4835   -3.2550   -1.9426 H       1  LIG1        0.0292
     13 N          -3.0630    1.5381    2.9535 N.1     1  LIG1       -0.1908
     14 C          -3.2873    0.8084    2.0754 C.1     1  LIG1        0.1013
     15 C          -6.8777    1.2053    0.1432 C.ar    1  LIG1        0.0482
     16 C          -5.4633    1.2877    0.1101 C.ar    1  LIG1        0.0239
     17 C          -4.8873    2.5541    0.0796 C.ar    1  LIG1       -0.0313
     18 C          -5.6966    3.6984    0.0538 C.ar    1  LIG1        0.0784
     19 C          -7.0979    3.5245    0.0614 C.ar    1  LIG1        0.0904
     20 N          -7.6437    2.3030    0.1228 N.ar    1  LIG1       -0.2499
     21 H          -3.8092    2.6707    0.0677 H       1  LIG1        0.0638
     22 C          -7.6132   -0.1061    0.2192 C.3     1  LIG1       -0.0217
     23 H          -7.2078   -0.7476    1.0082 H       1  LIG1        0.0293
     24 H          -7.5131   -0.6562   -0.7206 H       1  LIG1        0.0293
     25 H          -8.6682    0.0878    0.4145 H       1  LIG1        0.0293
     26 N          -4.5598    6.0310    0.0179 N.1     1  LIG1       -0.1908
     27 C          -5.0830    4.9921    0.0364 C.1     1  LIG1        0.1013
     28 C          -9.0932    4.8471    0.9195 C.ar    1  LIG1        0.0475
     29 C          -8.0444    4.6731   -0.0186 C.ar    1  LIG1        0.0238
     30 C          -7.9246    5.5948   -1.0577 C.ar    1  LIG1       -0.0319
     31 C          -8.8446    6.6461   -1.1586 C.ar    1  LIG1        0.0705
     32 C          -9.8549    6.7259   -0.1895 C.ar    1  LIG1        0.0452
     33 N          -9.9674    5.8611    0.8162 N.ar    1  LIG1       -0.2582
     34 H          -7.1365    5.4980   -1.7962 H       1  LIG1        0.0638
     35 H         -10.5932    7.5229   -0.2363 H       1  LIG1        0.0843
     36 C          -9.2908    3.9330    2.0994 C.3     1  LIG1       -0.0217
     37 H          -8.3496    3.7403    2.6234 H       1  LIG1        0.0293
     38 H          -9.6784    2.9633    1.7741 H       1  LIG1        0.0293
     39 H         -10.0023    4.3928    2.7858 H       1  LIG1        0.0293
     40 N          -8.7280    8.3793   -3.0855 N.1     1  LIG1       -0.1908
     41 C          -8.7726    7.6022   -2.2211 C.1     1  LIG1        0.1007
@<TRIPOS>BOND
     1    40    41    3
     2    11     9    1
     3    41    31    1
     4    10     9    1
     5     9    12    1
     6     9     1    1
     7    34    30    1
     8    31    30   ar
     9    31    32   ar
    10    30    29   ar
    11     1     6   ar
    12     1     2   ar
    13     6     5   ar
    14    24    22    1
    15     8     2    1
    16    35    32    1
    17    32    33   ar
    18     2     3   ar
    19    29    19    1
    20    29    28   ar
    21    26    27    3
    22    27    18    1
    23    18    19   ar
    24    18    17   ar
    25    19    20   ar
    26    21    17    1
    27    17    16   ar
    28     5    16    1
    29     5     4   ar
    30    16    15   ar
    31    20    15   ar
    32    15    22    1
    33    22    25    1
    34    22    23    1
    35    33    28   ar
    36     3     4   ar
    37     3     7    1
    38    28    36    1
    39     4    14    1
    40    38    36    1
    41    14    13    3
    42    36    37    1
    43    36    39    1
