@<TRIPOS>MOLECULE
mol_data/opt/b3lyp/geoms/mol2/6id6id6id-6id.out
 54 57 0 0 0
SMALL
GASTEIGER

@<TRIPOS>ATOM
      1 C          -4.3103   -2.2354   -0.4822 C.ar    1  LIG1        0.0390
      2 C          -2.9995   -2.2969    0.0114 C.ar    1  LIG1       -0.0394
      3 C          -2.4319   -1.1574    0.5611 C.ar    1  LIG1       -0.0406
      4 C          -3.1778    0.0304    0.5966 C.ar    1  LIG1        0.0777
      5 C          -4.4876    0.0156    0.0574 C.ar    1  LIG1        0.0903
      6 N          -5.0240   -1.0980   -0.4520 N.ar    1  LIG1       -0.2505
      7 H          -1.4265   -1.1725    0.9684 H       1  LIG1        0.0632
      8 H          -2.4419   -3.2263   -0.0291 H       1  LIG1        0.0636
      9 C          -4.9942   -3.4368   -1.0768 C.3     1  LIG1       -0.0223
     10 H          -4.3472   -4.3166   -1.0715 H       1  LIG1        0.0292
     11 H          -5.2966   -3.2273   -2.1076 H       1  LIG1        0.0292
     12 H          -5.9064   -3.6680   -0.5174 H       1  LIG1        0.0292
     13 N          -2.1375    2.1403    1.6927 N.1     1  LIG1       -0.1908
     14 C          -2.6140    1.2020    1.1963 C.1     1  LIG1        0.1013
     15 C          -6.6566    1.2781    0.5047 C.ar    1  LIG1        0.0482
     16 C          -5.3295    1.2462    0.0082 C.ar    1  LIG1        0.0239
     17 C          -4.8291    2.4036   -0.5814 C.ar    1  LIG1       -0.0313
     18 C          -5.6197    3.5584   -0.6565 C.ar    1  LIG1        0.0784
     19 C          -6.9125    3.5181   -0.0926 C.ar    1  LIG1        0.0904
     20 N          -7.3982    2.3925    0.4479 N.ar    1  LIG1       -0.2499
     21 H          -3.8334    2.4179   -1.0108 H       1  LIG1        0.0638
     22 C          -7.3181    0.0864    1.1434 C.3     1  LIG1       -0.0217
     23 H          -6.6827   -0.3559    1.9175 H       1  LIG1        0.0293
     24 H          -7.5017   -0.6945    0.4006 H       1  LIG1        0.0293
     25 H          -8.2633    0.4004    1.5865 H       1  LIG1        0.0293
     26 N          -4.7154    5.6295   -1.9303 N.1     1  LIG1       -0.1908
     27 C          -5.1248    4.7073   -1.3510 C.1     1  LIG1        0.1013
     28 C          -7.5683    5.9448    0.4530 C.ar    1  LIG1        0.0482
     29 C          -7.8507    4.6768   -0.1067 C.ar    1  LIG1        0.0239
     30 C          -9.1134    4.4775   -0.6639 C.ar    1  LIG1       -0.0313
     31 C         -10.0436    5.5208   -0.7003 C.ar    1  LIG1        0.0784
     32 C          -9.6778    6.7600   -0.1240 C.ar    1  LIG1        0.0904
     33 N          -8.4728    6.9372    0.4248 N.ar    1  LIG1       -0.2499
     34 H          -9.3693    3.5111   -1.0836 H       1  LIG1        0.0638
     35 C          -6.2795    6.2821    1.1548 C.3     1  LIG1       -0.0217
     36 H          -6.4901    6.9904    1.9581 H       1  LIG1        0.0293
     37 H          -5.5819    6.7637    0.4614 H       1  LIG1        0.0293
     38 H          -5.7860    5.4001    1.5685 H       1  LIG1        0.0293
     39 N         -12.3117    5.1336   -1.8989 N.1     1  LIG1       -0.1908
     40 C         -11.2997    5.3191   -1.3556 C.1     1  LIG1        0.1013
     41 C         -11.8554    7.9910    0.4583 C.ar    1  LIG1        0.0475
     42 C         -10.5684    7.9571   -0.1277 C.ar    1  LIG1        0.0238
     43 C         -10.0638    9.1318   -0.6900 C.ar    1  LIG1       -0.0319
     44 C         -10.8594   10.2802   -0.7207 C.ar    1  LIG1        0.0705
     45 C         -12.1447   10.2001   -0.1580 C.ar    1  LIG1        0.0452
     46 N         -12.6130    9.1028    0.4246 N.ar    1  LIG1       -0.2582
     47 H          -9.0601    9.1462   -1.1001 H       1  LIG1        0.0638
     48 H         -12.8013   11.0668   -0.1747 H       1  LIG1        0.0843
     49 C         -12.4670    6.8294    1.1969 C.3     1  LIG1       -0.0217
     50 H         -11.7149    6.1455    1.5963 H       1  LIG1        0.0293
     51 H         -13.1262    6.2589    0.5340 H       1  LIG1        0.0293
     52 H         -13.0765    7.2159    2.0161 H       1  LIG1        0.0293
     53 N         -10.0194   12.4992   -1.7705 N.1     1  LIG1       -0.1908
     54 C         -10.3903   11.5017   -1.3008 C.1     1  LIG1        0.1007
@<TRIPOS>BOND
     1    11     9    1
     2    26    27    3
     3    39    40    3
     4    53    54    3
     5    40    31    1
     6    27    18    1
     7    54    44    1
     8    47    43    1
     9    34    30    1
    10     9    10    1
    11     9    12    1
    12     9     1    1
    13    21    17    1
    14    44    43   ar
    15    44    45   ar
    16    31    30   ar
    17    31    32   ar
    18    43    42   ar
    19    30    29   ar
    20    18    17   ar
    21    18    19   ar
    22    17    16   ar
    23     1     6   ar
    24     1     2   ar
    25     6     5   ar
    26    48    45    1
    27    45    46   ar
    28    42    32    1
    29    42    41   ar
    30    32    33   ar
    31    29    19    1
    32    29    28   ar
    33    19    20   ar
    34     8     2    1
    35    16     5    1
    36    16    15   ar
    37     2     3   ar
    38     5     4   ar
    39    24    22    1
    40    46    41   ar
    41    33    28   ar
    42    20    15   ar
    43    28    35    1
    44    41    49    1
    45    37    35    1
    46    15    22    1
    47    51    49    1
    48     3     4   ar
    49     3     7    1
    50     4    14    1
    51    22    25    1
    52    22    23    1
    53    35    38    1
    54    35    36    1
    55    14    13    3
    56    49    50    1
    57    49    52    1
