@<TRIPOS>MOLECULE
mol_data/opt/b3lyp/geoms/mol2/6id6id-6id-6id-.out
 54 57 0 0 0
SMALL
GASTEIGER

@<TRIPOS>ATOM
      1 C          -3.8191   -1.9084    0.8112 C.ar    1  LIG1        0.0390
      2 C          -3.2918   -2.4636   -0.3633 C.ar    1  LIG1       -0.0394
      3 C          -3.4530   -1.7836   -1.5608 C.ar    1  LIG1       -0.0406
      4 C          -4.1175   -0.5475   -1.5634 C.ar    1  LIG1        0.0777
      5 C          -4.5831   -0.0345   -0.3290 C.ar    1  LIG1        0.0903
      6 N          -4.4477   -0.7213    0.8114 N.ar    1  LIG1       -0.2505
      7 H          -3.0875   -2.1981   -2.4944 H       1  LIG1        0.0632
      8 H          -2.7814   -3.4203   -0.3363 H       1  LIG1        0.0636
      9 C          -3.7075   -2.6038    2.1409 C.3     1  LIG1       -0.0223
     10 H          -3.2846   -3.6058    2.0414 H       1  LIG1        0.0292
     11 H          -4.6922   -2.6769    2.6117 H       1  LIG1        0.0292
     12 H          -3.0727   -2.0228    2.8184 H       1  LIG1        0.0292
     13 N          -4.5381    0.6569   -3.8222 N.1     1  LIG1       -0.1908
     14 C          -4.3527    0.1255   -2.8038 C.1     1  LIG1        0.1013
     15 C          -4.8074    2.5128   -0.6268 C.ar    1  LIG1        0.0482
     16 C          -5.3165    1.2599   -0.2129 C.ar    1  LIG1        0.0239
     17 C          -6.5599    1.2411    0.4183 C.ar    1  LIG1       -0.0313
     18 C          -7.3047    2.4169    0.5505 C.ar    1  LIG1        0.0784
     19 C          -6.7538    3.6145    0.0345 C.ar    1  LIG1        0.0904
     20 N          -5.5308    3.6363   -0.5000 N.ar    1  LIG1       -0.2499
     21 H          -6.9461    0.3084    0.8136 H       1  LIG1        0.0638
     22 C          -3.4271    2.7072   -1.1969 C.3     1  LIG1       -0.0217
     23 H          -3.0364    3.6695   -0.8601 H       1  LIG1        0.0293
     24 H          -3.4662    2.7304   -2.2910 H       1  LIG1        0.0293
     25 H          -2.7387    1.9135   -0.8998 H       1  LIG1        0.0293
     26 N          -9.5878    2.3244    1.7811 N.1     1  LIG1       -0.1908
     27 C          -8.5673    2.3793    1.2250 C.1     1  LIG1        0.1013
     28 C          -6.9376    6.1010    0.5586 C.ar    1  LIG1        0.0482
     29 C          -7.5005    4.9036    0.0497 C.ar    1  LIG1        0.0239
     30 C          -8.7912    4.9619   -0.4689 C.ar    1  LIG1       -0.0313
     31 C          -9.4835    6.1797   -0.5070 C.ar    1  LIG1        0.0784
     32 C          -8.8357    7.3311   -0.0079 C.ar    1  LIG1        0.0904
     33 N          -7.6074    7.2596    0.5207 N.ar    1  LIG1       -0.2499
     34 H          -9.2712    4.0705   -0.8571 H       1  LIG1        0.0638
     35 C          -5.5704    6.1580    1.1863 C.3     1  LIG1       -0.0217
     36 H          -5.4527    7.1154    1.6947 H       1  LIG1        0.0293
     37 H          -4.7945    6.0579    0.4222 H       1  LIG1        0.0293
     38 H          -5.4202    5.3425    1.9002 H       1  LIG1        0.0293
     39 N         -11.8964    6.2162   -1.4621 N.1     1  LIG1       -0.1908
     40 C         -10.8162    6.2140   -1.0301 C.1     1  LIG1        0.1013
     41 C          -9.5648    9.5043    1.0943 C.ar    1  LIG1        0.0475
     42 C          -9.4620    8.6827   -0.0568 C.ar    1  LIG1        0.0238
     43 C          -9.9386    9.1781   -1.2697 C.ar    1  LIG1       -0.0319
     44 C         -10.4828   10.4675   -1.3237 C.ar    1  LIG1        0.0705
     45 C         -10.5287   11.2079   -0.1339 C.ar    1  LIG1        0.0452
     46 N         -10.0924   10.7375    1.0325 N.ar    1  LIG1       -0.2582
     47 H          -9.8792    8.5817   -2.1734 H       1  LIG1        0.0638
     48 H         -10.9371   12.2158   -0.1346 H       1  LIG1        0.0843
     49 C          -9.1163    9.0545    2.4594 C.3     1  LIG1       -0.0217
     50 H          -9.4957    9.7557    3.2032 H       1  LIG1        0.0293
     51 H          -8.0244    9.0245    2.5148 H       1  LIG1        0.0293
     52 H          -9.4748    8.0468    2.6908 H       1  LIG1        0.0293
     53 N         -11.3505   11.4917   -3.5438 N.1     1  LIG1       -0.1908
     54 C         -10.9641   11.0251   -2.5508 C.1     1  LIG1        0.1007
@<TRIPOS>BOND
     1    13    14    3
     2    53    54    3
     3    14     4    1
     4    54    44    1
     5     7     3    1
     6    24    22    1
     7    47    43    1
     8     4     3   ar
     9     4     5   ar
    10     3     2   ar
    11    39    40    3
    12    44    43   ar
    13    44    45   ar
    14    43    42   ar
    15    22    25    1
    16    22    23    1
    17    22    15    1
    18    40    31    1
    19    34    30    1
    20    15    20   ar
    21    15    16   ar
    22    31    30   ar
    23    31    32   ar
    24    20    19   ar
    25    30    29   ar
    26     2     8    1
    27     2     1   ar
    28     5    16    1
    29     5     6   ar
    30    16    17   ar
    31    48    45    1
    32    45    46   ar
    33    42    32    1
    34    42    41   ar
    35    32    33   ar
    36    19    29    1
    37    19    18   ar
    38    29    28   ar
    39    17    18   ar
    40    17    21    1
    41    37    35    1
    42    33    28   ar
    43    18    27    1
    44    28    35    1
    45     1     6   ar
    46     1     9    1
    47    46    41   ar
    48    41    49    1
    49    35    36    1
    50    35    38    1
    51    27    26    3
    52    10     9    1
    53     9    11    1
    54     9    12    1
    55    49    51    1
    56    49    52    1
    57    49    50    1
