@<TRIPOS>MOLECULE
mol_data/opt/b3lyp/geoms/mol2/6id6id-6id6id-.out
 54 57 0 0 0
SMALL
GASTEIGER

@<TRIPOS>ATOM
      1 C          -4.3191   -2.1882    0.4585 C.ar    1  LIG1        0.0390
      2 C          -3.0320   -2.3214   -0.0812 C.ar    1  LIG1       -0.0394
      3 C          -2.4435   -1.2276   -0.6977 C.ar    1  LIG1       -0.0406
      4 C          -3.1402   -0.0105   -0.7443 C.ar    1  LIG1        0.0777
      5 C          -4.4176    0.0539   -0.1382 C.ar    1  LIG1        0.0903
      6 N          -4.9836   -1.0209    0.4221 N.ar    1  LIG1       -0.2505
      7 H          -1.4626   -1.3024   -1.1551 H       1  LIG1        0.0632
      8 H          -2.5129   -3.2724   -0.0320 H       1  LIG1        0.0636
      9 C          -5.0322   -3.3405    1.1126 C.3     1  LIG1       -0.0223
     10 H          -4.4567   -4.2662    1.0441 H       1  LIG1        0.0292
     11 H          -6.0091   -3.4938    0.6443 H       1  LIG1        0.0292
     12 H          -5.2166   -3.1193    2.1690 H       1  LIG1        0.0292
     13 N          -2.1008    1.9984   -2.0148 N.1     1  LIG1       -0.1908
     14 C          -2.5737    1.1034   -1.4409 C.1     1  LIG1        0.1013
     15 C          -4.8576    2.5259    0.4241 C.ar    1  LIG1        0.0482
     16 C          -5.2539    1.2906   -0.1383 C.ar    1  LIG1        0.0239
     17 C          -6.5325    1.2054   -0.6874 C.ar    1  LIG1       -0.0313
     18 C          -7.3674    2.3271   -0.7132 C.ar    1  LIG1        0.0784
     19 C          -6.8887    3.5263   -0.1366 C.ar    1  LIG1        0.0904
     20 N          -5.6698    3.5956    0.4052 N.ar    1  LIG1       -0.2499
     21 H          -6.8754    0.2674   -1.1094 H       1  LIG1        0.0638
     22 C          -3.5379    2.7439    1.1160 C.3     1  LIG1       -0.0217
     23 H          -3.6763    3.4652    1.9233 H       1  LIG1        0.0293
     24 H          -2.8056    3.1622    0.4174 H       1  LIG1        0.0293
     25 H          -3.1247    1.8182    1.5225 H       1  LIG1        0.0293
     26 N          -9.6721    2.1606   -1.8926 N.1     1  LIG1       -0.1908
     27 C          -8.6416    2.2437   -1.3589 C.1     1  LIG1        0.1013
     28 C          -8.9371    4.9583    0.4690 C.ar    1  LIG1        0.0482
     29 C          -7.6679    4.7988   -0.1332 C.ar    1  LIG1        0.0239
     30 C          -7.0802    5.9183   -0.7210 C.ar    1  LIG1       -0.0313
     31 C          -7.7568    7.1422   -0.7423 C.ar    1  LIG1        0.0784
     32 C          -9.0254    7.2139   -0.1206 C.ar    1  LIG1        0.0904
     33 N          -9.5738    6.1403    0.4556 N.ar    1  LIG1       -0.2499
     34 H          -6.0997    5.8357   -1.1767 H       1  LIG1        0.0638
     35 C          -9.6586    3.8570    1.2002 C.3     1  LIG1       -0.0217
     36 H          -8.9742    3.1040    1.5974 H       1  LIG1        0.0293
     37 H         -10.3637    3.3527    0.5310 H       1  LIG1        0.0293
     38 H         -10.2328    4.2936    2.0193 H       1  LIG1        0.0293
     39 N          -6.6873    9.1474   -1.9937 N.1     1  LIG1       -0.1908
     40 C          -7.1747    8.2559   -1.4269 C.1     1  LIG1        0.1013
     41 C          -9.4426    9.6814    0.4594 C.ar    1  LIG1        0.0475
     42 C          -9.8583    8.4518   -0.1031 C.ar    1  LIG1        0.0238
     43 C         -11.1533    8.3618   -0.6185 C.ar    1  LIG1       -0.0319
     44 C         -11.9738    9.4930   -0.6272 C.ar    1  LIG1        0.0705
     45 C         -11.4520   10.6828   -0.0914 C.ar    1  LIG1        0.0452
     46 N         -10.2412   10.7646    0.4470 N.ar    1  LIG1       -0.2582
     47 H         -11.5142    7.4170   -1.0094 H       1  LIG1        0.0638
     48 H         -12.0524   11.5897   -0.0924 H       1  LIG1        0.0843
     49 C          -8.1177    9.8786    1.1483 C.3     1  LIG1       -0.0217
     50 H          -8.2505   10.5867    1.9686 H       1  LIG1        0.0293
     51 H          -7.3865   10.3077    0.4552 H       1  LIG1        0.0293
     52 H          -7.7063    8.9450    1.5383 H       1  LIG1        0.0293
     53 N         -14.3830    9.4274   -1.5879 N.1     1  LIG1       -0.1908
     54 C         -13.3021    9.4509   -1.1584 C.1     1  LIG1        0.1007
@<TRIPOS>BOND
     1    13    14    3
     2    39    40    3
     3    26    27    3
     4    53    54    3
     5    14     4    1
     6    40    31    1
     7    27    18    1
     8    34    30    1
     9    54    44    1
    10     7     3    1
    11    21    17    1
    12    47    43    1
    13     4     3   ar
    14     4     5   ar
    15    31    30   ar
    16    31    32   ar
    17    30    29   ar
    18    18    17   ar
    19    18    19   ar
    20     3     2   ar
    21    17    16   ar
    22    44    43   ar
    23    44    45   ar
    24    43    42   ar
    25    16     5    1
    26    16    15   ar
    27     5     6   ar
    28    19    29    1
    29    19    20   ar
    30    29    28   ar
    31    32    42    1
    32    32    33   ar
    33    42    41   ar
    34    48    45    1
    35    45    46   ar
    36     2     8    1
    37     2     1   ar
    38    20    15   ar
    39    24    22    1
    40     6     1   ar
    41    15    22    1
    42    46    41   ar
    43    51    49    1
    44    33    28   ar
    45     1     9    1
    46    41    49    1
    47    28    35    1
    48    37    35    1
    49    11     9    1
    50    10     9    1
    51     9    12    1
    52    22    25    1
    53    22    23    1
    54    49    52    1
    55    49    50    1
    56    35    36    1
    57    35    38    1
