@<TRIPOS>MOLECULE
mol_data/opt/b3lyp/geoms/mol2/6id6id.out
 28 29 0 0 0
SMALL
GASTEIGER

@<TRIPOS>ATOM
      1 C          -4.4135   -2.0339   -0.5151 C.ar    1  LIG1        0.0390
      2 C          -3.1008   -2.0930   -0.0271 C.ar    1  LIG1       -0.0394
      3 C          -2.5407   -0.9562    0.5358 C.ar    1  LIG1       -0.0406
      4 C          -3.2954    0.2253    0.5904 C.ar    1  LIG1        0.0777
      5 C          -4.6073    0.2092    0.0553 C.ar    1  LIG1        0.0903
      6 N          -5.1354   -0.9028   -0.4678 N.ar    1  LIG1       -0.2505
      7 H          -1.5341   -0.9688    0.9402 H       1  LIG1        0.0632
      8 H          -2.5362   -3.0175   -0.0817 H       1  LIG1        0.0636
      9 C          -5.0910   -3.2321   -1.1243 C.3     1  LIG1       -0.0223
     10 H          -4.4420   -4.1105   -1.1226 H       1  LIG1        0.0292
     11 H          -5.3874   -3.0144   -2.1552 H       1  LIG1        0.0292
     12 H          -6.0063   -3.4695   -0.5727 H       1  LIG1        0.0292
     13 N          -2.2492    2.3152    1.7183 N.1     1  LIG1       -0.1908
     14 C          -2.7334    1.3890    1.2069 C.1     1  LIG1        0.1013
     15 C          -6.7873    1.4310    0.5320 C.ar    1  LIG1        0.0475
     16 C          -5.4638    1.4301    0.0237 C.ar    1  LIG1        0.0238
     17 C          -4.9736    2.6033   -0.5480 C.ar    1  LIG1       -0.0319
     18 C          -5.7967    3.7342   -0.6204 C.ar    1  LIG1        0.0705
     19 C          -7.0947    3.6324   -0.1001 C.ar    1  LIG1        0.0452
     20 N          -7.5670    2.5220    0.4621 N.ar    1  LIG1       -0.2582
     21 H          -3.9672    2.6453   -0.9497 H       1  LIG1        0.0638
     22 H          -7.7676    4.4855   -0.1426 H       1  LIG1        0.0843
     23 C          -7.4059    0.2304    1.1978 C.3     1  LIG1       -0.0217
     24 H          -6.7253   -0.2244    1.9241 H       1  LIG1        0.0293
     25 H          -7.6425   -0.5397    0.4580 H       1  LIG1        0.0293
     26 H          -8.3223    0.5401    1.7009 H       1  LIG1        0.0293
     27 N          -4.9830    5.9450   -1.7072 N.1     1  LIG1       -0.1908
     28 C          -5.3410    4.9526   -1.2172 C.1     1  LIG1        0.1007
@<TRIPOS>BOND
     1    11     9    1
     2    27    28    3
     3    28    18    1
     4     9    10    1
     5     9    12    1
     6     9     1    1
     7    21    17    1
     8    18    17   ar
     9    18    19   ar
    10    17    16   ar
    11     1     6   ar
    12     1     2   ar
    13     6     5   ar
    14    22    19    1
    15    19    20   ar
    16     8     2    1
    17     2     3   ar
    18    16     5    1
    19    16    15   ar
    20     5     4   ar
    21    25    23    1
    22    20    15   ar
    23    15    23    1
    24     3     4   ar
    25     3     7    1
    26     4    14    1
    27    23    26    1
    28    23    24    1
    29    14    13    3
