@<TRIPOS>MOLECULE
mol_data/opt/b3lyp/geoms/mol2/6id6id6id6id-.out
 54 57 0 0 0
SMALL
GASTEIGER

@<TRIPOS>ATOM
      1 C          -4.0413   -2.0189   -0.9696 C.ar    1  LIG1        0.0390
      2 C          -2.9515   -2.2592   -0.1206 C.ar    1  LIG1       -0.0394
      3 C          -2.6653   -1.3468    0.8835 C.ar    1  LIG1       -0.0406
      4 C          -3.4635   -0.2004    1.0156 C.ar    1  LIG1        0.0777
      5 C          -4.5322   -0.0199    0.1041 C.ar    1  LIG1        0.0903
      6 N          -4.8036   -0.9202   -0.8466 N.ar    1  LIG1       -0.2505
      7 H          -1.8407   -1.5087    1.5696 H       1  LIG1        0.0632
      8 H          -2.3473   -3.1513   -0.2439 H       1  LIG1        0.0636
      9 C          -4.4225   -2.9765   -2.0661 C.3     1  LIG1       -0.0223
     10 H          -3.7208   -3.8101   -2.1396 H       1  LIG1        0.0292
     11 H          -4.4570   -2.4553   -3.0274 H       1  LIG1        0.0292
     12 H          -5.4249   -3.3786   -1.8848 H       1  LIG1        0.0292
     13 N          -2.9658    1.4644    2.9432 N.1     1  LIG1       -0.1908
     14 C          -3.1980    0.7276    2.0731 C.1     1  LIG1        0.1013
     15 C          -6.8154    1.1033    0.1890 C.ar    1  LIG1        0.0482
     16 C          -5.4018    1.1917    0.1359 C.ar    1  LIG1        0.0239
     17 C          -4.8310    2.4600    0.0902 C.ar    1  LIG1       -0.0313
     18 C          -5.6455    3.6005    0.0673 C.ar    1  LIG1        0.0784
     19 C          -7.0456    3.4203    0.0930 C.ar    1  LIG1        0.0904
     20 N          -7.5864    2.1979    0.1704 N.ar    1  LIG1       -0.2499
     21 H          -3.7536    2.5807    0.0636 H       1  LIG1        0.0638
     22 C          -7.5437   -0.2107    0.2847 C.3     1  LIG1       -0.0217
     23 H          -7.1255   -0.8433    1.0740 H       1  LIG1        0.0293
     24 H          -7.4521   -0.7682   -0.6515 H       1  LIG1        0.0293
     25 H          -8.5972   -0.0208    0.4913 H       1  LIG1        0.0293
     26 N          -4.5327    5.9443    0.0044 N.1     1  LIG1       -0.1908
     27 C          -5.0417    4.8986    0.0347 C.1     1  LIG1        0.1013
     28 C          -9.0426    4.7524    0.9487 C.ar    1  LIG1        0.0482
     29 C          -7.9930    4.5678    0.0142 C.ar    1  LIG1        0.0239
     30 C          -7.8865    5.4807   -1.0313 C.ar    1  LIG1       -0.0313
     31 C          -8.7878    6.5492   -1.1323 C.ar    1  LIG1        0.0784
     32 C          -9.7749    6.6860   -0.1326 C.ar    1  LIG1        0.0904
     33 N          -9.8866    5.7883    0.8561 N.ar    1  LIG1       -0.2499
     34 H          -7.1231    5.3615   -1.7922 H       1  LIG1        0.0638
     35 C          -9.2708    3.8264    2.1133 C.3     1  LIG1       -0.0217
     36 H          -8.3483    3.6618    2.6795 H       1  LIG1        0.0293
     37 H          -9.6081    2.8464    1.7655 H       1  LIG1        0.0293
     38 H         -10.0247    4.2617    2.7694 H       1  LIG1        0.0293
     39 N          -8.6577    8.1043   -3.2046 N.1     1  LIG1       -0.1908
     40 C          -8.7203    7.4181   -2.2672 C.1     1  LIG1        0.1013
     41 C         -10.4804    9.1566   -0.1254 C.ar    1  LIG1        0.0475
     42 C         -10.7921    7.7760   -0.1274 C.ar    1  LIG1        0.0238
     43 C         -12.1351    7.3993   -0.0510 C.ar    1  LIG1       -0.0319
     44 C         -13.1300    8.3801   -0.0444 C.ar    1  LIG1        0.0705
     45 C         -12.7222    9.7240   -0.0981 C.ar    1  LIG1        0.0452
     46 N         -11.4473   10.0931   -0.1180 N.ar    1  LIG1       -0.2582
     47 H         -12.3972    6.3486    0.0021 H       1  LIG1        0.0638
     48 H         -13.4648   10.5186   -0.1106 H       1  LIG1        0.0843
     49 C          -9.0755    9.6976   -0.0842 C.3     1  LIG1       -0.0217
     50 H          -9.0716   10.6177    0.5033 H       1  LIG1        0.0293
     51 H          -8.7327    9.9485   -1.0936 H       1  LIG1        0.0293
     52 H          -8.3649    8.9893    0.3469 H       1  LIG1        0.0293
     53 N         -15.6481    7.7644    0.0647 N.1     1  LIG1       -0.1908
     54 C         -14.5180    8.0364    0.0166 C.1     1  LIG1        0.1007
@<TRIPOS>BOND
     1    39    40    3
     2    11     9    1
     3    40    31    1
     4    10     9    1
     5     9    12    1
     6     9     1    1
     7    34    30    1
     8    31    30   ar
     9    31    32   ar
    10    51    49    1
    11    30    29   ar
    12     1     6   ar
    13     1     2   ar
    14     6     5   ar
    15    24    22    1
    16     8     2    1
    17    32    42    1
    18    32    33   ar
    19    42    41   ar
    20    42    43   ar
    21    41    46   ar
    22    41    49    1
    23     2     3   ar
    24    46    45   ar
    25    48    45    1
    26    45    44   ar
    27    49    52    1
    28    49    50    1
    29    43    44   ar
    30    43    47    1
    31    44    54    1
    32    26    27    3
    33    29    19    1
    34    29    28   ar
    35    54    53    3
    36    27    18    1
    37    21    17    1
    38    18    17   ar
    39    18    19   ar
    40    17    16   ar
    41    19    20   ar
    42     5    16    1
    43     5     4   ar
    44    16    15   ar
    45    20    15   ar
    46    15    22    1
    47    22    25    1
    48    22    23    1
    49    33    28   ar
    50     3     4   ar
    51     3     7    1
    52    28    35    1
    53     4    14    1
    54    37    35    1
    55    14    13    3
    56    35    36    1
    57    35    38    1
