@<TRIPOS>MOLECULE
mol_data/opt/b3lyp/geoms/mol2/6id6id6id-6id-.out
 54 57 0 0 0
SMALL
GASTEIGER

@<TRIPOS>ATOM
      1 C          -4.4887   -2.3308   -0.0720 C.ar    1  LIG1        0.0390
      2 C          -3.0874   -2.3583   -0.1064 C.ar    1  LIG1       -0.0394
      3 C          -2.3893   -1.1602   -0.1086 C.ar    1  LIG1       -0.0406
      4 C          -3.1025    0.0479   -0.0908 C.ar    1  LIG1        0.0777
      5 C          -4.5177   -0.0096   -0.0786 C.ar    1  LIG1        0.0903
      6 N          -5.1726   -1.1749   -0.0582 N.ar    1  LIG1       -0.2505
      7 H          -1.3046   -1.1434   -0.1170 H       1  LIG1        0.0632
      8 H          -2.5584   -3.3050   -0.1219 H       1  LIG1        0.0636
      9 C          -5.3096   -3.5919   -0.0534 C.3     1  LIG1       -0.0223
     10 H          -4.6817   -4.4854   -0.0478 H       1  LIG1        0.0292
     11 H          -5.9656   -3.6280   -0.9289 H       1  LIG1        0.0292
     12 H          -5.9556   -3.6095    0.8301 H       1  LIG1        0.0292
     13 N          -1.7917    2.2868   -0.0215 N.1     1  LIG1       -0.1908
     14 C          -2.3908    1.2899   -0.0551 C.1     1  LIG1        0.1013
     15 C          -6.3858    1.4703    0.8272 C.ar    1  LIG1        0.0482
     16 C          -5.3524    1.2263   -0.1117 C.ar    1  LIG1        0.0239
     17 C          -5.1554    2.1666   -1.1186 C.ar    1  LIG1       -0.0313
     18 C          -5.9495    3.3202   -1.1757 C.ar    1  LIG1        0.0784
     19 C          -6.9217    3.5101   -0.1702 C.ar    1  LIG1        0.0904
     20 N          -7.1250    2.5863    0.7790 N.ar    1  LIG1       -0.2499
     21 H          -4.4044    2.0058   -1.8842 H       1  LIG1        0.0638
     22 C          -6.7122    0.5187    1.9468 C.3     1  LIG1       -0.0217
     23 H          -5.8156    0.2467    2.5133 H       1  LIG1        0.0293
     24 H          -7.1308   -0.4106    1.5512 H       1  LIG1        0.0293
     25 H          -7.4324    0.9906    2.6152 H       1  LIG1        0.0293
     26 N          -5.6698    4.9421   -3.1809 N.1     1  LIG1       -0.1908
     27 C          -5.7970    4.2240   -2.2743 C.1     1  LIG1        0.1013
     28 C          -7.3923    6.0381   -0.0791 C.ar    1  LIG1        0.0482
     29 C          -7.8273    4.6923   -0.1172 C.ar    1  LIG1        0.0239
     30 C          -9.1977    4.4505   -0.0191 C.ar    1  LIG1       -0.0313
     31 C         -10.1033    5.5145    0.0238 C.ar    1  LIG1        0.0784
     32 C          -9.5860    6.8318   -0.0273 C.ar    1  LIG1        0.0904
     33 N          -8.2697    7.0530   -0.0443 N.ar    1  LIG1       -0.2499
     34 H          -9.5590    3.4295    0.0305 H       1  LIG1        0.0638
     35 C          -5.9444    6.4494   -0.0303 C.3     1  LIG1       -0.0217
     36 H          -5.8508    7.3398    0.5946 H       1  LIG1        0.0293
     37 H          -5.5872    6.7096   -1.0321 H       1  LIG1        0.0293
     38 H          -5.2990    5.6619    0.3639 H       1  LIG1        0.0293
     39 N         -12.6337    4.9858    0.2540 N.1     1  LIG1       -0.1908
     40 C         -11.5032    5.2398    0.1488 C.1     1  LIG1        0.1013
     41 C         -10.2976    9.1292    0.8087 C.ar    1  LIG1        0.0475
     42 C         -10.4693    8.0313   -0.0726 C.ar    1  LIG1        0.0238
     43 C         -11.4830    8.1008   -1.0278 C.ar    1  LIG1       -0.0319
     44 C         -12.2851    9.2461   -1.1036 C.ar    1  LIG1        0.0705
     45 C         -12.0295   10.2839   -0.1961 C.ar    1  LIG1        0.0452
     46 N         -11.0755   10.2211    0.7299 N.ar    1  LIG1       -0.2582
     47 H         -11.6464    7.2842   -1.7222 H       1  LIG1        0.0638
     48 H         -12.6249   11.1934   -0.2263 H       1  LIG1        0.0843
     49 C          -9.2600    9.1490    1.8996 C.3     1  LIG1       -0.0217
     50 H          -9.4729    9.9813    2.5711 H       1  LIG1        0.0293
     51 H          -8.2595    9.2727    1.4758 H       1  LIG1        0.0293
     52 H          -9.2513    8.2135    2.4672 H       1  LIG1        0.0293
     53 N         -14.1687    9.4800   -2.8724 N.1     1  LIG1       -0.1908
     54 C         -13.3248    9.3676   -2.0797 C.1     1  LIG1        0.1007
@<TRIPOS>BOND
     1    26    27    3
     2    53    54    3
     3    27    18    1
     4    54    44    1
     5    21    17    1
     6    47    43    1
     7    18    17   ar
     8    18    19   ar
     9    17    16   ar
    10    44    43   ar
    11    44    45   ar
    12    37    35    1
    13    43    42   ar
    14    11     9    1
    15    48    45    1
    16    45    46   ar
    17    19    29    1
    18    19    20   ar
    19     8     2    1
    20    29    28   ar
    21    29    30   ar
    22     7     3    1
    23    16     5    1
    24    16    15   ar
    25     3     2   ar
    26     3     4   ar
    27     2     1   ar
    28     4     5   ar
    29     4    14    1
    30    28    33   ar
    31    28    35    1
    32     5     6   ar
    33    42    32    1
    34    42    41   ar
    35     1     6   ar
    36     1     9    1
    37    14    13    3
    38     9    10    1
    39     9    12    1
    40    33    32   ar
    41    35    38    1
    42    35    36    1
    43    32    31   ar
    44    30    31   ar
    45    30    34    1
    46    31    40    1
    47    40    39    3
    48    46    41   ar
    49    20    15   ar
    50    41    49    1
    51    15    22    1
    52    51    49    1
    53    24    22    1
    54    49    52    1
    55    49    50    1
    56    22    23    1
    57    22    25    1
