@<TRIPOS>MOLECULE
mol_data/opt/b3lyp/geoms/mol2/6id6id-.out
 28 29 0 0 0
SMALL
GASTEIGER

@<TRIPOS>ATOM
      1 C          -4.4312   -2.0158    0.3946 C.ar    1  LIG1        0.0390
      2 C          -3.1412   -2.1287   -0.1422 C.ar    1  LIG1       -0.0394
      3 C          -2.5552   -1.0144   -0.7232 C.ar    1  LIG1       -0.0406
      4 C          -3.2566    0.2008   -0.7370 C.ar    1  LIG1        0.0777
      5 C          -4.5371    0.2440   -0.1341 C.ar    1  LIG1        0.0903
      6 N          -5.0997   -0.8508    0.3909 N.ar    1  LIG1       -0.2505
      7 H          -1.5719   -1.0712   -1.1781 H       1  LIG1        0.0632
      8 H          -2.6180   -3.0785   -0.1181 H       1  LIG1        0.0636
      9 C          -5.1437   -3.1900    1.0100 C.3     1  LIG1       -0.0223
     10 H          -4.5545   -4.1068    0.9376 H       1  LIG1        0.0292
     11 H          -6.1071   -3.3475    0.5154 H       1  LIG1        0.0292
     12 H          -5.3567   -2.9910    2.0653 H       1  LIG1        0.0292
     13 N          -2.2039    2.2387   -1.9491 N.1     1  LIG1       -0.1908
     14 C          -2.6869    1.3338   -1.3996 C.1     1  LIG1        0.1013
     15 C          -4.9769    2.6963    0.4982 C.ar    1  LIG1        0.0475
     16 C          -5.3768    1.4776   -0.0986 C.ar    1  LIG1        0.0238
     17 C          -6.6644    1.3931   -0.6328 C.ar    1  LIG1       -0.0319
     18 C          -7.4925    2.5186   -0.6257 C.ar    1  LIG1        0.0705
     19 C          -6.9860    3.6984   -0.0544 C.ar    1  LIG1        0.0452
     20 N          -5.7827    3.7744    0.5014 N.ar    1  LIG1       -0.2582
     21 H          -7.0139    0.4555   -1.0500 H       1  LIG1        0.0638
     22 H          -7.5922    4.6013   -0.0410 H       1  LIG1        0.0843
     23 C          -3.6620    2.8873    1.2077 C.3     1  LIG1       -0.0217
     24 H          -3.8099    3.5768    2.0410 H       1  LIG1        0.0293
     25 H          -2.9255    3.3361    0.5328 H       1  LIG1        0.0293
     26 H          -3.2490    1.9482    1.5824 H       1  LIG1        0.0293
     27 N          -9.8868    2.4527   -1.6230 N.1     1  LIG1       -0.1908
     28 C          -8.8129    2.4783   -1.1764 C.1     1  LIG1        0.1007
@<TRIPOS>BOND
     1    13    14    3
     2    27    28    3
     3    14     4    1
     4     7     3    1
     5    28    18    1
     6    21    17    1
     7     4     3   ar
     8     4     5   ar
     9     3     2   ar
    10    17    18   ar
    11    17    16   ar
    12    18    19   ar
    13     2     8    1
    14     2     1   ar
    15     5    16    1
    16     5     6   ar
    17    16    15   ar
    18    19    22    1
    19    19    20   ar
    20     6     1   ar
    21     1     9    1
    22    15    20   ar
    23    15    23    1
    24    11     9    1
    25    25    23    1
    26    10     9    1
    27     9    12    1
    28    23    26    1
    29    23    24    1
