@<TRIPOS>MOLECULE
mol_data/opt/b3lyp/geoms/mol2/6id6df-4if-4fd.out
 52 55 0 0 0
SMALL
GASTEIGER

@<TRIPOS>ATOM
      1 C          -4.3460   -2.2387   -0.2353 C.ar    1  LIG1        0.0390
      2 C          -2.9718   -2.2754    0.0410 C.ar    1  LIG1       -0.0394
      3 C          -2.3123   -1.0920    0.3371 C.ar    1  LIG1       -0.0406
      4 C          -3.0321    0.1127    0.3524 C.ar    1  LIG1        0.0778
      5 C          -4.4143    0.0643    0.0462 C.ar    1  LIG1        0.0914
      6 N          -5.0311   -1.0854   -0.2381 N.ar    1  LIG1       -0.2505
      7 H          -1.2528   -1.0851    0.5704 H       1  LIG1        0.0632
      8 H          -2.4356   -3.2182    0.0315 H       1  LIG1        0.0636
      9 C          -5.1378   -3.4800   -0.5418 C.3     1  LIG1       -0.0223
     10 H          -4.5292   -4.3830   -0.4569 H       1  LIG1        0.0292
     11 H          -5.5485   -3.4258   -1.5554 H       1  LIG1        0.0292
     12 H          -5.9876   -3.5528    0.1437 H       1  LIG1        0.0292
     13 N          -1.7807    2.2938    0.9927 N.1     1  LIG1       -0.1908
     14 C          -2.3585    1.3257    0.7045 C.1     1  LIG1        0.1013
     15 C          -6.5437    1.2911    0.6581 C.ar    1  LIG1        0.1501
     16 C          -5.2760    1.2774    0.0300 C.ar    1  LIG1        0.0409
     17 C          -4.8906    2.4340   -0.6461 C.ar    1  LIG1       -0.0061
     18 C          -5.7411    3.5378   -0.6716 C.ar    1  LIG1        0.1434
     19 C          -6.9699    3.4753    0.0244 C.ar    1  LIG1        0.1141
     20 N          -7.3526    2.3600    0.6508 N.ar    1  LIG1       -0.2320
     21 H          -3.9515    2.4882   -1.1845 H       1  LIG1        0.0662
     22 N          -7.4680   -0.7183    2.0343 N.1     1  LIG1       -0.1893
     23 C          -7.0421    0.1595    1.4024 C.1     1  LIG1        0.1198
     24 O          -5.3590    4.6173   -1.3945 O.3     1  LIG1       -0.5046
     25 H          -6.0849    5.2623   -1.3985 H       1  LIG1        0.2922
     26 C          -7.5724    5.8958    0.5408 C.ar    1  LIG1       -0.0404
     27 C          -8.5266    6.9154    0.4496 C.ar    1  LIG1       -0.0469
     28 C          -7.9156    4.6306    0.0133 C.ar    1  LIG1        0.0104
     29 C          -9.7959    6.7425   -0.1151 C.ar    1  LIG1        0.0274
     30 H          -8.2784    7.8912    0.8530 H       1  LIG1        0.0628
     31 C          -9.1878    4.4284   -0.5338 C.ar    1  LIG1       -0.0100
     32 C         -10.1238    5.4588   -0.5985 C.ar    1  LIG1        0.1253
     33 H          -9.4454    3.4415   -0.9103 H       1  LIG1        0.0661
     34 C          -6.2658    6.1510    1.2640 C.3     1  LIG1       -0.0391
     35 H          -6.2902    7.1236    1.7610 H       1  LIG1        0.0278
     36 H          -5.3987    6.1452    0.5951 H       1  LIG1        0.0278
     37 H          -6.0823    5.3899    2.0292 H       1  LIG1        0.0278
     38 O         -11.3625    5.2669   -1.1409 O.3     1  LIG1       -0.5061
     39 H         -11.4509    4.3431   -1.4111 H       1  LIG1        0.2922
     40 C         -10.4056    9.1399   -0.6575 C.ar    1  LIG1        0.1247
     41 C         -11.3306   10.1914   -0.6821 C.ar    1  LIG1       -0.0184
     42 C         -10.7708    7.8660   -0.1661 C.ar    1  LIG1        0.0283
     43 C         -12.6271   10.0043   -0.2262 C.ar    1  LIG1       -0.0409
     44 H         -11.0261   11.1620   -1.0669 H       1  LIG1        0.0655
     45 C         -12.0832    7.6972    0.2841 C.ar    1  LIG1       -0.0330
     46 C         -13.0138    8.7468    0.2626 C.ar    1  LIG1        0.0526
     47 H         -12.3897    6.7279    0.6566 H       1  LIG1        0.0638
     48 H         -13.3396   10.8215   -0.2473 H       1  LIG1        0.0631
     49 O          -9.1333    9.3106   -1.1146 O.3     1  LIG1       -0.5062
     50 H          -9.0338   10.2135   -1.4453 H       1  LIG1        0.2922
     51 N         -15.4342    8.3695    1.1221 N.1     1  LIG1       -0.1909
     52 C         -14.3486    8.5358    0.7372 C.1     1  LIG1        0.0992
@<TRIPOS>BOND
     1    11     9    1
     2    50    49    1
     3    39    38    1
     4    25    24    1
     5    24    18    1
     6    21    17    1
     7    38    32    1
     8    49    40    1
     9    44    41    1
    10    33    31    1
    11    41    40   ar
    12    41    43   ar
    13    18    17   ar
    14    18    19   ar
    15    40    42   ar
    16    17    16   ar
    17    32    31   ar
    18    32    29   ar
    19     9    10    1
    20     9     1    1
    21     9    12    1
    22    31    28   ar
    23    48    43    1
    24     6     1   ar
    25     6     5   ar
    26     1     2   ar
    27    43    46   ar
    28    42    29    1
    29    42    45   ar
    30    29    27   ar
    31    28    19    1
    32    28    26   ar
    33    19    20   ar
    34    16     5    1
    35    16    15   ar
    36     8     2    1
    37     2     3   ar
    38     5     4   ar
    39    46    45   ar
    40    46    52    1
    41    45    47    1
    42     3     4   ar
    43     3     7    1
    44     4    14    1
    45    27    26   ar
    46    27    30    1
    47    26    34    1
    48    36    34    1
    49    20    15   ar
    50    15    23    1
    51    14    13    3
    52    52    51    3
    53    34    35    1
    54    34    37    1
    55    23    22    3
