@<TRIPOS>MOLECULE
mol_data/opt/b3lyp/geoms/mol2/6id6id-4id6id.out
 55 58 0 0 0
SMALL
GASTEIGER

@<TRIPOS>ATOM
      1 C          -4.0671   -2.0681    0.6260 C.ar    1  LIG1        0.0390
      2 C          -3.0733   -2.3427   -0.3241 C.ar    1  LIG1       -0.0394
      3 C          -2.7839   -1.3903   -1.2893 C.ar    1  LIG1       -0.0406
      4 C          -3.4745   -0.1688   -1.2766 C.ar    1  LIG1        0.0777
      5 C          -4.4334    0.0487   -0.2580 C.ar    1  LIG1        0.0903
      6 N          -4.7224   -0.8958    0.6449 N.ar    1  LIG1       -0.2505
      7 H          -2.0443   -1.5800   -2.0601 H       1  LIG1        0.0632
      8 H          -2.5519   -3.2937   -0.3133 H       1  LIG1        0.0636
      9 C          -4.4588   -3.0672    1.6809 C.3     1  LIG1       -0.0223
     10 H          -3.9034   -4.0023    1.5813 H       1  LIG1        0.0292
     11 H          -5.5298   -3.2831    1.6163 H       1  LIG1        0.0292
     12 H          -4.2770   -2.6539    2.6781 H       1  LIG1        0.0292
     13 N          -3.0256    1.5532   -3.1642 N.1     1  LIG1       -0.1908
     14 C          -3.2334    0.7889   -2.3117 C.1     1  LIG1        0.1013
     15 C          -4.6908    2.5985   -0.0215 C.ar    1  LIG1        0.0482
     16 C          -5.2375    1.3012   -0.1551 C.ar    1  LIG1        0.0239
     17 C          -6.6256    1.1752   -0.1100 C.ar    1  LIG1       -0.0313
     18 C          -7.4370    2.3107   -0.0277 C.ar    1  LIG1        0.0783
     19 C          -6.8076    3.5785    0.0149 C.ar    1  LIG1        0.0889
     20 N          -5.4770    3.6838    0.0522 N.ar    1  LIG1       -0.2499
     21 H          -7.0752    0.1889   -0.1326 H       1  LIG1        0.0638
     22 C          -3.2143    2.8755    0.0877 C.3     1  LIG1       -0.0217
     23 H          -3.0611    3.7211    0.7612 H       1  LIG1        0.0293
     24 H          -2.8046    3.1520   -0.8894 H       1  LIG1        0.0293
     25 H          -2.6550    2.0134    0.4572 H       1  LIG1        0.0293
     26 N         -10.0088    1.9945    0.1207 N.1     1  LIG1       -0.1908
     27 C          -8.8587    2.1546    0.0494 C.1     1  LIG1        0.1013
     28 C          -7.3716    5.8643    0.9732 C.ar    1  LIG1       -0.0406
     29 C          -8.1339    7.0338    0.8818 C.ar    1  LIG1       -0.0492
     30 C          -7.5871    4.8506    0.0112 C.ar    1  LIG1        0.0058
     31 C          -9.0886    7.2508   -0.1169 C.ar    1  LIG1        0.0015
     32 H          -7.9899    7.8073    1.6306 H       1  LIG1        0.0627
     33 C          -8.5339    5.0497   -0.9962 C.ar    1  LIG1       -0.0343
     34 C          -9.2777    6.2347   -1.0776 C.ar    1  LIG1        0.0601
     35 H          -8.6902    4.2872   -1.7509 H       1  LIG1        0.0637
     36 C          -6.3755    5.7195    2.0968 C.3     1  LIG1       -0.0391
     37 H          -6.5100    6.5135    2.8353 H       1  LIG1        0.0278
     38 H          -5.3516    5.7631    1.7163 H       1  LIG1        0.0278
     39 H          -6.4818    4.7567    2.6059 H       1  LIG1        0.0278
     40 N         -10.9400    6.5239   -3.0517 N.1     1  LIG1       -0.1908
     41 C         -10.1971    6.4014   -2.1647 C.1     1  LIG1        0.0998
     42 C         -11.2324    8.6328    0.0659 C.ar    1  LIG1        0.0460
     43 C          -9.8354    8.5411   -0.1548 C.ar    1  LIG1        0.0056
     44 C          -9.1240    9.7214   -0.3729 C.ar    1  LIG1       -0.0334
     45 C          -9.8014   10.9467   -0.3961 C.ar    1  LIG1        0.0704
     46 C         -11.1892   10.9297   -0.1890 C.ar    1  LIG1        0.0452
     47 N         -11.8737    9.8138    0.0431 N.ar    1  LIG1       -0.2583
     48 H          -8.0517    9.6900   -0.5357 H       1  LIG1        0.0637
     49 H         -11.7544   11.8586   -0.2058 H       1  LIG1        0.0843
     50 C         -12.0930    7.4316    0.3547 C.3     1  LIG1       -0.0218
     51 H         -11.5569    6.6654    0.9199 H       1  LIG1        0.0293
     52 H         -12.4360    6.9757   -0.5809 H       1  LIG1        0.0293
     53 H         -12.9745    7.7514    0.9124 H       1  LIG1        0.0293
     54 N          -8.5448   13.1814   -0.7934 N.1     1  LIG1       -0.1908
     55 C          -9.1065   12.1779   -0.6181 C.1     1  LIG1        0.1007
@<TRIPOS>BOND
     1    13    14    3
     2    40    41    3
     3    14     4    1
     4    41    34    1
     5     7     3    1
     6    35    33    1
     7     3     4   ar
     8     3     2   ar
     9     4     5   ar
    10    34    33   ar
    11    34    31   ar
    12    33    30   ar
    13    24    22    1
    14    54    55    3
    15    55    45    1
    16    52    50    1
    17    48    44    1
    18    45    44   ar
    19    45    46   ar
    20    44    43   ar
    21     2     8    1
    22     2     1   ar
    23     5    16    1
    24     5     6   ar
    25    49    46    1
    26    46    47   ar
    27    16    17   ar
    28    16    15   ar
    29    43    31    1
    30    43    42   ar
    31    21    17    1
    32    31    29   ar
    33    17    18   ar
    34    18    19   ar
    35    18    27    1
    36    15    20   ar
    37    15    22    1
    38    30    19    1
    39    30    28   ar
    40    19    20   ar
    41    47    42   ar
    42    27    26    3
    43    42    50    1
    44    22    25    1
    45    22    23    1
    46    50    53    1
    47    50    51    1
    48     1     6   ar
    49     1     9    1
    50    29    28   ar
    51    29    32    1
    52    28    36    1
    53    10     9    1
    54    11     9    1
    55     9    12    1
    56    38    36    1
    57    36    39    1
    58    36    37    1
