@<TRIPOS>MOLECULE
mol_data/opt/b3lyp/geoms/mol2/6id6id-6id.out
 41 43 0 0 0
SMALL
GASTEIGER

@<TRIPOS>ATOM
      1 C          -4.4034   -2.1217    0.2713 C.ar    1  LIG1        0.0390
      2 C          -3.0486   -2.2020   -0.0801 C.ar    1  LIG1       -0.0394
      3 C          -2.3905   -1.0527   -0.4909 C.ar    1  LIG1       -0.0406
      4 C          -3.0894    0.1637   -0.5204 C.ar    1  LIG1        0.0777
      5 C          -4.4434    0.1692   -0.1074 C.ar    1  LIG1        0.0903
      6 N          -5.0711   -0.9561    0.2527 N.ar    1  LIG1       -0.2505
      7 H          -1.3515   -1.0822   -0.8017 H       1  LIG1        0.0632
      8 H          -2.5293   -3.1536   -0.0477 H       1  LIG1        0.0636
      9 C          -5.1906   -3.3337    0.6907 C.3     1  LIG1       -0.0223
     10 H          -4.5883   -4.2438    0.6497 H       1  LIG1        0.0292
     11 H          -6.0643   -3.4580    0.0433 H       1  LIG1        0.0292
     12 H          -5.5662   -3.2054    1.7109 H       1  LIG1        0.0292
     13 N          -1.8970    2.2852   -1.4190 N.1     1  LIG1       -0.1908
     14 C          -2.4402    1.3401   -1.0118 C.1     1  LIG1        0.1013
     15 C          -4.9922    2.5737    0.6255 C.ar    1  LIG1        0.0482
     16 C          -5.2866    1.4009   -0.1074 C.ar    1  LIG1        0.0239
     17 C          -6.4718    1.3730   -0.8411 C.ar    1  LIG1       -0.0313
     18 C          -7.3087    2.4927   -0.8768 C.ar    1  LIG1        0.0784
     19 C          -6.9340    3.6293   -0.1226 C.ar    1  LIG1        0.0904
     20 N          -5.8066    3.6410    0.5942 N.ar    1  LIG1       -0.2499
     21 H          -6.7383    0.4819   -1.3984 H       1  LIG1        0.0638
     22 C          -3.7909    2.7199    1.5220 C.3     1  LIG1       -0.0217
     23 H          -4.0583    3.3523    2.3705 H       1  LIG1        0.0293
     24 H          -2.9720    3.2114    0.9859 H       1  LIG1        0.0293
     25 H          -3.4251    1.7577    1.8868 H       1  LIG1        0.0293
     26 N          -9.4168    2.4322   -2.3878 N.1     1  LIG1       -0.1908
     27 C          -8.4762    2.4710   -1.7041 C.1     1  LIG1        0.1013
     28 C          -9.0695    4.9898    0.3101 C.ar    1  LIG1        0.0475
     29 C          -7.7216    4.8966   -0.1088 C.ar    1  LIG1        0.0238
     30 C          -7.0570    6.0697   -0.4731 C.ar    1  LIG1       -0.0319
     31 C          -7.7500    7.2833   -0.4785 C.ar    1  LIG1        0.0705
     32 C          -9.1014    7.2658   -0.0935 C.ar    1  LIG1        0.0452
     33 N          -9.7272    6.1639    0.3026 N.ar    1  LIG1       -0.2582
     34 H          -6.0094    6.0330   -0.7504 H       1  LIG1        0.0638
     35 H          -9.6807    8.1862   -0.0976 H       1  LIG1        0.0843
     36 C          -9.8636    3.8217    0.8334 C.3     1  LIG1       -0.0217
     37 H          -9.2281    3.0364    1.2486 H       1  LIG1        0.0293
     38 H         -10.4681    3.3812    0.0335 H       1  LIG1        0.0293
     39 H         -10.5476    4.1801    1.6051 H       1  LIG1        0.0293
     40 N          -6.6056    9.5080   -1.1657 N.1     1  LIG1       -0.1908
     41 C          -7.1135    8.5076   -0.8584 C.1     1  LIG1        0.1007
@<TRIPOS>BOND
     1    26    27    3
     2    27    18    1
     3    13    14    3
     4    21    17    1
     5    40    41    3
     6    14     4    1
     7    18    17   ar
     8    18    19   ar
     9    41    31    1
    10    17    16   ar
    11     7     3    1
    12    34    30    1
    13     4     3   ar
    14     4     5   ar
    15     3     2   ar
    16    31    30   ar
    17    31    32   ar
    18    30    29   ar
    19    19    29    1
    20    19    20   ar
    21    29    28   ar
    22     5    16    1
    23     5     6   ar
    24    16    15   ar
    25    35    32    1
    26    32    33   ar
    27     2     8    1
    28     2     1   ar
    29    38    36    1
    30    11     9    1
    31     6     1   ar
    32     1     9    1
    33    33    28   ar
    34    28    36    1
    35    20    15   ar
    36    15    22    1
    37    10     9    1
    38     9    12    1
    39    36    37    1
    40    36    39    1
    41    24    22    1
    42    22    25    1
    43    22    23    1
