@<TRIPOS>MOLECULE
mol_data/opt/b3lyp/geoms/mol2/6id6id-6id-6id.out
 54 57 0 0 0
SMALL
GASTEIGER

@<TRIPOS>ATOM
      1 C          -4.1419   -2.0670    0.7341 C.ar    1  LIG1        0.0390
      2 C          -3.1439   -2.3890   -0.1967 C.ar    1  LIG1       -0.0394
      3 C          -2.8267   -1.4724   -1.1875 C.ar    1  LIG1       -0.0406
      4 C          -3.4937   -0.2380   -1.2190 C.ar    1  LIG1        0.0777
      5 C          -4.4571    0.0287   -0.2167 C.ar    1  LIG1        0.0903
      6 N          -4.7741   -0.8822    0.7108 N.ar    1  LIG1       -0.2505
      7 H          -2.0843   -1.7003   -1.9450 H       1  LIG1        0.0632
      8 H          -2.6416   -3.3491   -0.1518 H       1  LIG1        0.0636
      9 C          -4.5591   -3.0242    1.8176 C.3     1  LIG1       -0.0223
     10 H          -4.0842   -4.0009    1.7019 H       1  LIG1        0.0292
     11 H          -5.6455   -3.1519    1.8098 H       1  LIG1        0.0292
     12 H          -4.2926   -2.6210    2.8004 H       1  LIG1        0.0292
     13 N          -2.9999    1.4149   -3.1564 N.1     1  LIG1       -0.1908
     14 C          -3.2268    0.6814   -2.2820 C.1     1  LIG1        0.1013
     15 C          -4.6672    2.5898   -0.0586 C.ar    1  LIG1        0.0482
     16 C          -5.2377    1.2992   -0.1573 C.ar    1  LIG1        0.0239
     17 C          -6.6281    1.1995   -0.1172 C.ar    1  LIG1       -0.0313
     18 C          -7.4190    2.3513   -0.0690 C.ar    1  LIG1        0.0784
     19 C          -6.7657    3.6073   -0.0536 C.ar    1  LIG1        0.0904
     20 N          -5.4341    3.6906   -0.0175 N.ar    1  LIG1       -0.2499
     21 H          -7.0955    0.2213   -0.1167 H       1  LIG1        0.0638
     22 C          -3.1865    2.8428    0.0473 C.3     1  LIG1       -0.0217
     23 H          -3.0196    3.7079    0.6920 H       1  LIG1        0.0293
     24 H          -2.7680    3.0772   -0.9371 H       1  LIG1        0.0293
     25 H          -2.6458    1.9830    0.4483 H       1  LIG1        0.0293
     26 N          -9.9993    2.0998    0.0540 N.1     1  LIG1       -0.1908
     27 C          -8.8441    2.2261   -0.0031 C.1     1  LIG1        0.1013
     28 C          -7.2819    5.9420    0.8353 C.ar    1  LIG1        0.0482
     29 C          -7.5234    4.8898   -0.0835 C.ar    1  LIG1        0.0239
     30 C          -8.4844    5.0975   -1.0695 C.ar    1  LIG1       -0.0313
     31 C          -9.1931    6.3050   -1.1248 C.ar    1  LIG1        0.0784
     32 C          -8.9267    7.2801   -0.1395 C.ar    1  LIG1        0.0904
     33 N          -7.9799    7.0844    0.7882 N.ar    1  LIG1       -0.2499
     34 H          -8.6767    4.3393   -1.8206 H       1  LIG1        0.0638
     35 C          -6.2558    5.8525    1.9332 C.3     1  LIG1       -0.0217
     36 H          -6.3866    6.6983    2.6086 H       1  LIG1        0.0293
     37 H          -5.2452    5.8694    1.5165 H       1  LIG1        0.0293
     38 H          -6.3502    4.9185    2.4958 H       1  LIG1        0.0293
     39 N         -10.8378    6.7048   -3.0908 N.1     1  LIG1       -0.1908
     40 C         -10.1077    6.5330   -2.2014 C.1     1  LIG1        0.1013
     41 C         -11.0160    8.7676    0.0098 C.ar    1  LIG1        0.0475
     42 C          -9.6136    8.6023   -0.0864 C.ar    1  LIG1        0.0238
     43 C          -8.8080    9.7433   -0.0615 C.ar    1  LIG1       -0.0319
     44 C          -9.4003   11.0077   -0.0125 C.ar    1  LIG1        0.0705
     45 C         -10.8037   11.0703    0.0275 C.ar    1  LIG1        0.0452
     46 N         -11.5757    9.9909    0.0570 N.ar    1  LIG1       -0.2582
     47 H          -7.7289    9.6409   -0.0809 H       1  LIG1        0.0638
     48 H         -11.3055   12.0350    0.0503 H       1  LIG1        0.0843
     49 C         -11.9887    7.6225    0.1137 C.3     1  LIG1       -0.0217
     50 H         -11.5295    6.7164    0.5145 H       1  LIG1        0.0293
     51 H         -12.4045    7.3836   -0.8708 H       1  LIG1        0.0293
     52 H         -12.8174    7.9242    0.7572 H       1  LIG1        0.0293
     53 N          -7.9787   13.1780    0.0096 N.1     1  LIG1       -0.1908
     54 C          -8.6124   12.2025   -0.0004 C.1     1  LIG1        0.1007
@<TRIPOS>BOND
     1    13    14    3
     2    39    40    3
     3    14     4    1
     4    40    31    1
     5     7     3    1
     6    34    30    1
     7     4     3   ar
     8     4     5   ar
     9     3     2   ar
    10    31    30   ar
    11    31    32   ar
    12    30    29   ar
    13    24    22    1
    14    51    49    1
    15     5    16    1
    16     5     6   ar
    17     2     8    1
    18     2     1   ar
    19    16    17   ar
    20    16    15   ar
    21    32    42    1
    22    32    33   ar
    23    17    21    1
    24    17    18   ar
    25    42    43   ar
    26    42    41   ar
    27    29    19    1
    28    29    28   ar
    29    47    43    1
    30    18    19   ar
    31    18    27    1
    32    43    44   ar
    33    15    20   ar
    34    15    22    1
    35    19    20   ar
    36    44    54    1
    37    44    45   ar
    38    27    26    3
    39    54    53    3
    40    41    46   ar
    41    41    49    1
    42    45    48    1
    43    45    46   ar
    44    22    25    1
    45    22    23    1
    46    49    50    1
    47    49    52    1
    48     6     1   ar
    49     1     9    1
    50    33    28   ar
    51    28    35    1
    52    37    35    1
    53    10     9    1
    54    11     9    1
    55     9    12    1
    56    35    38    1
    57    35    36    1
