@<TRIPOS>MOLECULE
mol_data/opt/b3lyp/geoms/mol2/6id6id6id6id.out
 54 57 0 0 0
SMALL
GASTEIGER

@<TRIPOS>ATOM
      1 C          -3.6465   -1.6588   -1.3405 C.ar    1  LIG1        0.0390
      2 C          -2.8615   -2.1779   -0.3012 C.ar    1  LIG1       -0.0394
      3 C          -2.9507   -1.6087    0.9600 C.ar    1  LIG1       -0.0406
      4 C          -3.8119   -0.5191    1.1607 C.ar    1  LIG1        0.0777
      5 C          -4.5536   -0.0391    0.0538 C.ar    1  LIG1        0.0903
      6 N          -4.4683   -0.6137   -1.1506 N.ar    1  LIG1       -0.2505
      7 H          -2.3719   -1.9957    1.7920 H       1  LIG1        0.0632
      8 H          -2.2009   -3.0189   -0.4811 H       1  LIG1        0.0636
      9 C          -3.6148   -2.2397   -2.7284 C.3     1  LIG1       -0.0223
     10 H          -2.8973   -3.0590   -2.8094 H       1  LIG1        0.0292
     11 H          -3.3518   -1.4654   -3.4556 H       1  LIG1        0.0292
     12 H          -4.6062   -2.6134   -3.0045 H       1  LIG1        0.0292
     13 N          -4.0310    0.4908    3.5412 N.1     1  LIG1       -0.1908
     14 C          -3.9396    0.0494    2.4685 C.1     1  LIG1        0.1013
     15 C          -6.8058    1.1057   -0.2623 C.ar    1  LIG1        0.0482
     16 C          -5.4531    1.1462    0.1590 C.ar    1  LIG1        0.0239
     17 C          -4.9647    2.3485    0.6615 C.ar    1  LIG1       -0.0313
     18 C          -5.7896    3.4809    0.7109 C.ar    1  LIG1        0.0784
     19 C          -7.1147    3.3607    0.2391 C.ar    1  LIG1        0.0904
     20 N          -7.5881    2.1910   -0.2094 N.ar    1  LIG1       -0.2499
     21 H          -3.9414    2.4261    1.0117 H       1  LIG1        0.0638
     22 C          -7.4575   -0.1482   -0.7809 C.3     1  LIG1       -0.0217
     23 H          -7.2684   -1.0006   -0.1208 H       1  LIG1        0.0293
     24 H          -7.0537   -0.4108   -1.7625 H       1  LIG1        0.0293
     25 H          -8.5322    0.0159   -0.8643 H       1  LIG1        0.0293
     26 N          -4.8363    5.6905    1.6825 N.1     1  LIG1       -0.1908
     27 C          -5.2746    4.7050    1.2464 C.1     1  LIG1        0.1013
     28 C          -9.3498    4.4648    0.7552 C.ar    1  LIG1        0.0482
     29 C          -8.0521    4.5177    0.1872 C.ar    1  LIG1        0.0239
     30 C          -7.6725    5.6913   -0.4576 C.ar    1  LIG1       -0.0313
     31 C          -8.5708    6.7620   -0.5630 C.ar    1  LIG1        0.0784
     32 C          -9.8573    6.6112   -0.0005 C.ar    1  LIG1        0.0904
     33 N         -10.2010    5.4928    0.6511 N.ar    1  LIG1       -0.2499
     34 H          -6.6840    5.7877   -0.8929 H       1  LIG1        0.0638
     35 C          -9.8533    3.2715    1.5224 C.3     1  LIG1       -0.0217
     36 H          -9.1225    2.9333    2.2636 H       1  LIG1        0.0293
     37 H         -10.0341    2.4304    0.8473 H       1  LIG1        0.0293
     38 H         -10.7840    3.5376    2.0240 H       1  LIG1        0.0293
     39 N          -7.7937    8.9287   -1.7617 N.1     1  LIG1       -0.1908
     40 C          -8.1548    7.9648   -1.2195 C.1     1  LIG1        0.1013
     41 C         -11.6021    8.1575    1.0174 C.ar    1  LIG1        0.0475
     42 C         -10.9061    7.6639   -0.1152 C.ar    1  LIG1        0.0238
     43 C         -11.2442    8.1651   -1.3715 C.ar    1  LIG1       -0.0319
     44 C         -12.2641    9.1183   -1.4841 C.ar    1  LIG1        0.0705
     45 C         -12.9025    9.5344   -0.3071 C.ar    1  LIG1        0.0452
     46 N         -12.5755    9.0750    0.8987 N.ar    1  LIG1       -0.2582
     47 H         -10.7358    7.8143   -2.2628 H       1  LIG1        0.0638
     48 H         -13.7043   10.2676   -0.3519 H       1  LIG1        0.0843
     49 C         -11.2925    7.7127    2.4219 C.3     1  LIG1       -0.0217
     50 H         -10.2160    7.7136    2.6182 H       1  LIG1        0.0293
     51 H         -11.6452    6.6909    2.5882 H       1  LIG1        0.0293
     52 H         -11.7909    8.3841    3.1217 H       1  LIG1        0.0293
     53 N         -12.9933   10.0695   -3.7850 N.1     1  LIG1       -0.1908
     54 C         -12.6589    9.6432   -2.7556 C.1     1  LIG1        0.1007
@<TRIPOS>BOND
     1    53    54    3
     2    11     9    1
     3    12     9    1
     4    10     9    1
     5    54    44    1
     6     9     1    1
     7    47    43    1
     8    24    22    1
     9    39    40    3
    10    44    43   ar
    11    44    45   ar
    12    43    42   ar
    13     1     6   ar
    14     1     2   ar
    15    40    31    1
    16     6     5   ar
    17    34    30    1
    18    25    22    1
    19    22    15    1
    20    22    23    1
    21    31    30   ar
    22    31    32   ar
    23     8     2    1
    24    30    29   ar
    25    48    45    1
    26    45    46   ar
    27     2     3   ar
    28    15    20   ar
    29    15    16   ar
    30    20    19   ar
    31    42    32    1
    32    42    41   ar
    33    32    33   ar
    34     5    16    1
    35     5     4   ar
    36    16    17   ar
    37    29    19    1
    38    29    28   ar
    39    19    18   ar
    40    33    28   ar
    41    17    18   ar
    42    17    21    1
    43    18    27    1
    44    28    35    1
    45    37    35    1
    46    46    41   ar
    47     3     4   ar
    48     3     7    1
    49    41    49    1
    50     4    14    1
    51    27    26    3
    52    35    38    1
    53    35    36    1
    54    49    51    1
    55    49    50    1
    56    49    52    1
    57    14    13    3
