@<TRIPOS>MOLECULE
mol_data/opt/b3lyp/geoms/mol2/6ie6ie.out
 30 31 0 0 0
SMALL
GASTEIGER

@<TRIPOS>ATOM
      1 C          -4.4430   -1.9955   -0.6418 C.ar    1  LIG1        0.0390
      2 C          -3.1043   -2.0705   -0.2378 C.ar    1  LIG1       -0.0395
      3 C          -2.5087   -0.9511    0.3245 C.ar    1  LIG1       -0.0426
      4 C          -3.2452    0.2366    0.4693 C.ar    1  LIG1        0.0507
      5 C          -4.5902    0.2289    0.0135 C.ar    1  LIG1        0.0883
      6 N          -5.1545   -0.8655   -0.5127 N.ar    1  LIG1       -0.2506
      7 H          -1.4783   -0.9793    0.6638 H       1  LIG1        0.0631
      8 H          -2.5457   -2.9933   -0.3562 H       1  LIG1        0.0636
      9 C          -5.1621   -3.1735   -1.2462 C.3     1  LIG1       -0.0223
     10 H          -4.5141   -4.0502   -1.3195 H       1  LIG1        0.0292
     11 H          -5.5282   -2.9227   -2.2469 H       1  LIG1        0.0292
     12 H          -6.0376   -3.4350   -0.6429 H       1  LIG1        0.0292
     13 C          -2.6381    1.3736    1.0835 C.1     1  LIG1       -0.0675
     14 C          -2.0848    2.3082    1.6175 C.1     1  LIG1       -0.1138
     15 H          -1.6176    3.1438    2.0853 H       1  LIG1        0.1232
     16 C          -6.7339    1.4313    0.6706 C.ar    1  LIG1        0.0475
     17 C          -5.4505    1.4471    0.0729 C.ar    1  LIG1        0.0237
     18 C          -5.0049    2.6362   -0.5027 C.ar    1  LIG1       -0.0339
     19 C          -5.8243    3.7746   -0.4946 C.ar    1  LIG1        0.0434
     20 C          -7.0827    3.6469    0.1160 C.ar    1  LIG1        0.0433
     21 N          -7.5172    2.5224    0.6823 N.ar    1  LIG1       -0.2583
     22 H          -4.0269    2.6855   -0.9681 H       1  LIG1        0.0637
     23 H          -7.7575    4.4997    0.1437 H       1  LIG1        0.0842
     24 C          -7.3036    0.2110    1.3470 C.3     1  LIG1       -0.0217
     25 H          -6.5782   -0.2512    2.0241 H       1  LIG1        0.0293
     26 H          -7.5757   -0.5489    0.6088 H       1  LIG1        0.0293
     27 H          -8.1917    0.5022    1.9093 H       1  LIG1        0.0293
     28 C          -5.4081    5.0071   -1.0808 C.1     1  LIG1       -0.0681
     29 C          -5.0606    6.0552   -1.5760 C.1     1  LIG1       -0.1139
     30 H          -4.7566    6.9778   -2.0133 H       1  LIG1        0.1232
@<TRIPOS>BOND
     1    11     9    1
     2    30    29    1
     3    29    28    3
     4    10     9    1
     5     9    12    1
     6     9     1    1
     7    28    19    1
     8    22    18    1
     9     1     6   ar
    10     1     2   ar
    11     6     5   ar
    12    18    19   ar
    13    18    17   ar
    14    19    20   ar
    15     8     2    1
    16     2     3   ar
    17     5    17    1
    18     5     4   ar
    19    17    16   ar
    20    20    23    1
    21    20    21   ar
    22     3     4   ar
    23     3     7    1
    24     4    13    1
    25    26    24    1
    26    16    21   ar
    27    16    24    1
    28    13    14    3
    29    24    27    1
    30    24    25    1
    31    14    15    1
