@<TRIPOS>MOLECULE
mol_data/opt/b3lyp/geoms/mol2/6ie6ie6ie6ie-.out
 58 61 0 0 0
SMALL
GASTEIGER

@<TRIPOS>ATOM
      1 C          -4.0405   -1.9405   -1.1164 C.ar    1  LIG1        0.0390
      2 C          -2.9143   -2.1859   -0.3210 C.ar    1  LIG1       -0.0395
      3 C          -2.5811   -1.2762    0.6717 C.ar    1  LIG1       -0.0426
      4 C          -3.3630   -0.1235    0.8574 C.ar    1  LIG1        0.0507
      5 C          -4.4749    0.0543   -0.0075 C.ar    1  LIG1        0.0883
      6 N          -4.7922   -0.8418   -0.9504 N.ar    1  LIG1       -0.2506
      7 H          -1.7244   -1.4439    1.3164 H       1  LIG1        0.0631
      8 H          -2.3173   -3.0788   -0.4755 H       1  LIG1        0.0636
      9 C          -4.4731   -2.8895   -2.2036 C.3     1  LIG1       -0.0223
     10 H          -3.8027   -3.7486   -2.2826 H       1  LIG1        0.0292
     11 H          -4.4993   -2.3743   -3.1691 H       1  LIG1        0.0292
     12 H          -5.4871   -3.2541   -2.0092 H       1  LIG1        0.0292
     13 C          -3.0366    0.7910    1.9041 C.1     1  LIG1       -0.0675
     14 C          -2.7271    1.5333    2.8085 C.1     1  LIG1       -0.1138
     15 H          -2.4709    2.1995    3.5998 H       1  LIG1        0.1232
     16 C          -6.7563    1.1719    0.1688 C.ar    1  LIG1        0.0482
     17 C          -5.3473    1.2623    0.0655 C.ar    1  LIG1        0.0238
     18 C          -4.7841    2.5333    0.0034 C.ar    1  LIG1       -0.0333
     19 C          -5.5902    3.6827    0.0157 C.ar    1  LIG1        0.0513
     20 C          -6.9902    3.4908    0.0926 C.ar    1  LIG1        0.0884
     21 N          -7.5272    2.2661    0.1830 N.ar    1  LIG1       -0.2499
     22 H          -3.7082    2.6501   -0.0597 H       1  LIG1        0.0637
     23 C          -7.4819   -0.1438    0.2842 C.3     1  LIG1       -0.0217
     24 H          -7.0304   -0.7857    1.0476 H       1  LIG1        0.0293
     25 H          -7.4347   -0.6939   -0.6596 H       1  LIG1        0.0293
     26 H          -8.5249    0.0464    0.5401 H       1  LIG1        0.0293
     27 C          -4.9778    4.9722   -0.0242 C.1     1  LIG1       -0.0675
     28 C          -4.4169    6.0442   -0.0513 C.1     1  LIG1       -0.1138
     29 H          -3.9407    6.9971   -0.0764 H       1  LIG1        0.1232
     30 C          -8.9740    4.7939    1.0198 C.ar    1  LIG1        0.0482
     31 C          -7.9497    4.6312    0.0566 C.ar    1  LIG1        0.0238
     32 C          -7.8816    5.5604   -0.9784 C.ar    1  LIG1       -0.0333
     33 C          -8.7945    6.6234   -1.0546 C.ar    1  LIG1        0.0513
     34 C          -9.7612    6.7215   -0.0279 C.ar    1  LIG1        0.0884
     35 N          -9.8375    5.8172    0.9578 N.ar    1  LIG1       -0.2499
     36 H          -7.1297    5.4588   -1.7528 H       1  LIG1        0.0637
     37 C          -9.1572    3.8565    2.1853 C.3     1  LIG1       -0.0217
     38 H          -8.2104    3.6677    2.7012 H       1  LIG1        0.0293
     39 H          -9.5290    2.8856    1.8465 H       1  LIG1        0.0293
     40 H          -9.8707    4.2960    2.8834 H       1  LIG1        0.0293
     41 C          -8.7512    7.5192   -2.1652 C.1     1  LIG1       -0.0675
     42 C          -8.6937    8.2517   -3.1271 C.1     1  LIG1       -0.1138
     43 H          -8.6616    8.9002   -3.9719 H       1  LIG1        0.1232
     44 C         -10.4811    9.1682    0.1696 C.ar    1  LIG1        0.0475
     45 C         -10.7939    7.8000    0.0054 C.ar    1  LIG1        0.0237
     46 C         -12.1372    7.4317   -0.0671 C.ar    1  LIG1       -0.0339
     47 C         -13.1381    8.4123   -0.0355 C.ar    1  LIG1        0.0434
     48 C         -12.7153    9.7476    0.0879 C.ar    1  LIG1        0.0433
     49 N         -11.4401   10.1100    0.2021 N.ar    1  LIG1       -0.2583
     50 H         -12.4045    6.3837   -0.1495 H       1  LIG1        0.0637
     51 H         -13.4538   10.5463    0.1070 H       1  LIG1        0.0842
     52 C          -9.0710    9.6673    0.3557 C.3     1  LIG1       -0.0217
     53 H          -9.1034   10.6475    0.8342 H       1  LIG1        0.0293
     54 H          -8.5641    9.7731   -0.6095 H       1  LIG1        0.0293
     55 H          -8.4746    8.9834    0.9662 H       1  LIG1        0.0293
     56 C         -14.5235    8.0820   -0.1231 C.1     1  LIG1       -0.0681
     57 C         -15.7001    7.8093   -0.1985 C.1     1  LIG1       -0.1139
     58 H         -16.7356    7.5683   -0.2645 H       1  LIG1        0.1232
@<TRIPOS>BOND
     1    43    42    1
     2    11     9    1
     3    42    41    3
     4    10     9    1
     5     9    12    1
     6     9     1    1
     7    41    33    1
     8    36    32    1
     9     1     6   ar
    10     1     2   ar
    11    33    32   ar
    12    33    34   ar
    13    32    31   ar
    14     6     5   ar
    15    25    23    1
    16    54    52    1
    17     8     2    1
    18     2     3   ar
    19    58    57    1
    20    57    56    3
    21    50    46    1
    22    56    47    1
    23    29    28    1
    24    46    47   ar
    25    46    45   ar
    26    22    18    1
    27    28    27    3
    28    47    48   ar
    29    34    45    1
    30    34    35   ar
    31    27    19    1
    32     5    17    1
    33     5     4   ar
    34    18    19   ar
    35    18    17   ar
    36    45    44   ar
    37    19    20   ar
    38    31    20    1
    39    31    30   ar
    40    17    16   ar
    41    48    51    1
    42    48    49   ar
    43    20    21   ar
    44    16    21   ar
    45    16    23    1
    46    44    49   ar
    47    44    52    1
    48    23    26    1
    49    23    24    1
    50    52    53    1
    51    52    55    1
    52     3     4   ar
    53     3     7    1
    54     4    13    1
    55    35    30   ar
    56    30    37    1
    57    39    37    1
    58    13    14    3
    59    37    38    1
    60    37    40    1
    61    14    15    1
