@<TRIPOS>MOLECULE
mol_data/opt/b3lyp/geoms/mol2/6ie6ie6ie.out
 44 46 0 0 0
SMALL
GASTEIGER

@<TRIPOS>ATOM
      1 C          -4.1428   -1.8464   -1.2231 C.ar    1  LIG1        0.0390
      2 C          -3.0196   -2.1222   -0.4334 C.ar    1  LIG1       -0.0395
      3 C          -2.6773   -1.2390    0.5800 C.ar    1  LIG1       -0.0426
      4 C          -3.4470   -0.0828    0.7918 C.ar    1  LIG1        0.0507
      5 C          -4.5567    0.1272   -0.0690 C.ar    1  LIG1        0.0883
      6 N          -4.8827   -0.7437   -1.0326 N.ar    1  LIG1       -0.2506
      7 H          -1.8228   -1.4304    1.2209 H       1  LIG1        0.0631
      8 H          -2.4320   -3.0176   -0.6081 H       1  LIG1        0.0636
      9 C          -4.5874   -2.7680   -2.3290 C.3     1  LIG1       -0.0223
     10 H          -3.9046   -3.6120   -2.4526 H       1  LIG1        0.0292
     11 H          -4.6496   -2.2227   -3.2758 H       1  LIG1        0.0292
     12 H          -5.5890   -3.1584   -2.1191 H       1  LIG1        0.0292
     13 C          -3.1114    0.8036    1.8595 C.1     1  LIG1       -0.0675
     14 C          -2.7944    1.5219    2.7806 C.1     1  LIG1       -0.1138
     15 H          -2.5321    2.1678    3.5865 H       1  LIG1        0.1232
     16 C          -6.8253    1.2640    0.1439 C.ar    1  LIG1        0.0482
     17 C          -5.4163    1.3419    0.0350 C.ar    1  LIG1        0.0238
     18 C          -4.8399    2.6082    0.0031 C.ar    1  LIG1       -0.0333
     19 C          -5.6333    3.7653    0.0534 C.ar    1  LIG1        0.0513
     20 C          -7.0347    3.5867    0.1374 C.ar    1  LIG1        0.0884
     21 N          -7.5842    2.3655    0.1953 N.ar    1  LIG1       -0.2499
     22 H          -3.7632    2.7153   -0.0645 H       1  LIG1        0.0637
     23 C          -7.5645   -0.0467    0.2263 C.3     1  LIG1       -0.0217
     24 H          -7.1225   -0.7100    0.9769 H       1  LIG1        0.0293
     25 H          -7.5187   -0.5759   -0.7295 H       1  LIG1        0.0293
     26 H          -8.6064    0.1485    0.4829 H       1  LIG1        0.0293
     27 C          -5.0073    5.0488    0.0433 C.1     1  LIG1       -0.0675
     28 C          -4.4357    6.1155    0.0397 C.1     1  LIG1       -0.1138
     29 H          -3.9524    7.0651    0.0359 H       1  LIG1        0.1232
     30 C          -8.9764    4.8843    1.1464 C.ar    1  LIG1        0.0475
     31 C          -7.9839    4.7372    0.1472 C.ar    1  LIG1        0.0237
     32 C          -7.9238    5.6904   -0.8688 C.ar    1  LIG1       -0.0339
     33 C          -8.8389    6.7532   -0.8943 C.ar    1  LIG1        0.0434
     34 C          -9.7883    6.7987    0.1396 C.ar    1  LIG1        0.0433
     35 N          -9.8503    5.9043    1.1245 N.ar    1  LIG1       -0.2583
     36 H          -7.1760    5.6099   -1.6498 H       1  LIG1        0.0637
     37 H         -10.5233    7.6005    0.1615 H       1  LIG1        0.0842
     38 C          -9.1134    3.9319    2.3062 C.3     1  LIG1       -0.0217
     39 H          -8.1460    3.7222    2.7735 H       1  LIG1        0.0293
     40 H          -9.5170    2.9715    1.9729 H       1  LIG1        0.0293
     41 H          -9.7870    4.3698    3.0439 H       1  LIG1        0.0293
     42 C          -8.8161    7.7433   -1.9215 C.1     1  LIG1       -0.0681
     43 C          -8.8019    8.5863   -2.7897 C.1     1  LIG1       -0.1139
     44 H          -8.7917    9.3275   -3.5548 H       1  LIG1        0.1232
@<TRIPOS>BOND
     1    44    43    1
     2    11     9    1
     3    43    42    3
     4    10     9    1
     5     9    12    1
     6     9     1    1
     7    42    33    1
     8    36    32    1
     9     1     6   ar
    10     1     2   ar
    11     6     5   ar
    12    33    32   ar
    13    33    34   ar
    14    32    31   ar
    15    25    23    1
    16     8     2    1
    17     2     3   ar
    18     5    17    1
    19     5     4   ar
    20    22    18    1
    21    18    17   ar
    22    18    19   ar
    23    17    16   ar
    24    29    28    1
    25    28    27    3
    26    27    19    1
    27    19    20   ar
    28    20    31    1
    29    20    21   ar
    30    34    37    1
    31    34    35   ar
    32    16    21   ar
    33    16    23    1
    34    31    30   ar
    35    23    26    1
    36    23    24    1
    37     3     4   ar
    38     3     7    1
    39     4    13    1
    40    35    30   ar
    41    30    38    1
    42    13    14    3
    43    40    38    1
    44    38    39    1
    45    38    41    1
    46    14    15    1
