@<TRIPOS>MOLECULE
mol_data/opt/b3lyp/geoms/mol2/6ie6ie-.out
 30 31 0 0 0
SMALL
GASTEIGER

@<TRIPOS>ATOM
      1 C          -4.3909   -1.9724   -0.6731 C.ar    1  LIG1        0.0390
      2 C          -3.1179   -2.0885   -0.1017 C.ar    1  LIG1       -0.0395
      3 C          -2.5693   -0.9921    0.5482 C.ar    1  LIG1       -0.0426
      4 C          -3.2854    0.2148    0.6068 C.ar    1  LIG1        0.0507
      5 C          -4.5510    0.2533   -0.0326 C.ar    1  LIG1        0.0883
      6 N          -5.0807   -0.8208   -0.6308 N.ar    1  LIG1       -0.2506
      7 H          -1.5967   -1.0557    1.0254 H       1  LIG1        0.0631
      8 H          -2.5758   -3.0271   -0.1555 H       1  LIG1        0.0636
      9 C          -5.0625   -3.1269   -1.3699 C.3     1  LIG1       -0.0223
     10 H          -4.4515   -4.0322   -1.3366 H       1  LIG1        0.0292
     11 H          -5.2600   -2.8758   -2.4172 H       1  LIG1        0.0292
     12 H          -6.0312   -3.3383   -0.9059 H       1  LIG1        0.0292
     13 C          -2.7552    1.3257    1.3289 C.1     1  LIG1       -0.0675
     14 C          -2.2800    2.2414    1.9621 C.1     1  LIG1       -0.1138
     15 H          -1.8791    3.0561    2.5197 H       1  LIG1        0.1232
     16 C          -5.0396    2.6765   -0.6902 C.ar    1  LIG1        0.0475
     17 C          -5.4048    1.4797   -0.0338 C.ar    1  LIG1        0.0237
     18 C          -6.6494    1.4202    0.5921 C.ar    1  LIG1       -0.0339
     19 C          -7.4819    2.5477    0.6111 C.ar    1  LIG1        0.0434
     20 C          -7.0036    3.7007   -0.0362 C.ar    1  LIG1        0.0433
     21 N          -5.8376    3.7583   -0.6747 N.ar    1  LIG1       -0.2583
     22 H          -6.9711    0.4990    1.0658 H       1  LIG1        0.0637
     23 H          -7.6082    4.6052   -0.0408 H       1  LIG1        0.0842
     24 C          -3.7615    2.8201   -1.4765 C.3     1  LIG1       -0.0217
     25 H          -3.8737    3.6409   -2.1867 H       1  LIG1        0.0293
     26 H          -3.5106    1.9031   -2.0168 H       1  LIG1        0.0293
     27 H          -2.9203    3.0526   -0.8144 H       1  LIG1        0.0293
     28 C          -8.7559    2.5362    1.2532 C.1     1  LIG1       -0.0681
     29 C          -9.8369    2.5338    1.7971 C.1     1  LIG1       -0.1139
     30 H         -10.7888    2.5317    2.2755 H       1  LIG1        0.1232
@<TRIPOS>BOND
     1    11     9    1
     2    25    24    1
     3    26    24    1
     4    24    27    1
     5    24    16    1
     6     9    10    1
     7     9    12    1
     8     9     1    1
     9    16    21   ar
    10    16    17   ar
    11    21    20   ar
    12     1     6   ar
    13     1     2   ar
    14     6     5   ar
    15     8     2    1
    16     2     3   ar
    17    23    20    1
    18    20    19   ar
    19    17     5    1
    20    17    18   ar
    21     5     4   ar
    22     3     4   ar
    23     3     7    1
    24    18    19   ar
    25    18    22    1
    26     4    13    1
    27    19    28    1
    28    28    29    3
    29    13    14    3
    30    29    30    1
    31    14    15    1
