@<TRIPOS>MOLECULE
mol_data/opt/b3lyp/geoms/mol2/6ie6ie6ie-6ie.out
 58 61 0 0 0
SMALL
GASTEIGER

@<TRIPOS>ATOM
      1 C          -4.3395   -2.1971   -0.5383 C.ar    1  LIG1        0.0390
      2 C          -3.0089   -2.2666   -0.1074 C.ar    1  LIG1       -0.0395
      3 C          -2.4120   -1.1300    0.4180 C.ar    1  LIG1       -0.0426
      4 C          -3.1393    0.0694    0.4994 C.ar    1  LIG1        0.0507
      5 C          -4.4761    0.0537    0.0210 C.ar    1  LIG1        0.0883
      6 N          -5.0422   -1.0563   -0.4688 N.ar    1  LIG1       -0.2506
      7 H          -1.3878   -1.1532    0.7758 H       1  LIG1        0.0631
      8 H          -2.4573   -3.1985   -0.1771 H       1  LIG1        0.0636
      9 C          -5.0589   -3.3931   -1.1057 C.3     1  LIG1       -0.0223
     10 H          -4.4148   -4.2751   -1.1395 H       1  LIG1        0.0292
     11 H          -5.4136   -3.1780   -2.1186 H       1  LIG1        0.0292
     12 H          -5.9416   -3.6280   -0.5019 H       1  LIG1        0.0292
     13 C          -2.5314    1.2267    1.0736 C.1     1  LIG1       -0.0675
     14 C          -1.9772    2.1787    1.5751 C.1     1  LIG1       -0.1138
     15 H          -1.5060    3.0278    2.0139 H       1  LIG1        0.1232
     16 C          -6.6247    1.3080    0.5710 C.ar    1  LIG1        0.0482
     17 C          -5.3234    1.2819    0.0149 C.ar    1  LIG1        0.0238
     18 C          -4.8569    2.4428   -0.5957 C.ar    1  LIG1       -0.0333
     19 C          -5.6503    3.5996   -0.6473 C.ar    1  LIG1        0.0513
     20 C          -6.9218    3.5393   -0.0333 C.ar    1  LIG1        0.0884
     21 N          -7.3780    2.4161    0.5375 N.ar    1  LIG1       -0.2499
     22 H          -3.8770    2.4587   -1.0593 H       1  LIG1        0.0637
     23 C          -7.2473    0.1166    1.2517 C.3     1  LIG1       -0.0217
     24 H          -6.5709   -0.3201    1.9939 H       1  LIG1        0.0293
     25 H          -7.4693   -0.6706    0.5262 H       1  LIG1        0.0293
     26 H          -8.1687    0.4318    1.7426 H       1  LIG1        0.0293
     27 C          -5.1813    4.7527   -1.3459 C.1     1  LIG1       -0.0675
     28 C          -4.7580    5.7069   -1.9587 C.1     1  LIG1       -0.1138
     29 H          -4.4012    6.5514   -2.5017 H       1  LIG1        0.1232
     30 C          -7.6087    5.9078    0.6563 C.ar    1  LIG1        0.0482
     31 C          -7.8674    4.6950   -0.0193 C.ar    1  LIG1        0.0238
     32 C          -9.0963    4.5556   -0.6590 C.ar    1  LIG1       -0.0333
     33 C         -10.0271    5.6046   -0.6624 C.ar    1  LIG1        0.0513
     34 C          -9.6757    6.7841    0.0357 C.ar    1  LIG1        0.0884
     35 N          -8.5006    6.9102    0.6640 N.ar    1  LIG1       -0.2499
     36 H          -9.3340    3.6295   -1.1711 H       1  LIG1        0.0637
     37 C          -6.3458    6.1528    1.4418 C.3     1  LIG1       -0.0217
     38 H          -6.5159    6.9739    2.1396 H       1  LIG1        0.0293
     39 H          -5.5206    6.4294    0.7769 H       1  LIG1        0.0293
     40 H          -6.0354    5.2620    1.9955 H       1  LIG1        0.0293
     41 C         -11.2506    5.4710   -1.3854 C.1     1  LIG1       -0.0675
     42 C         -12.2725    5.3298   -2.0185 C.1     1  LIG1       -0.1138
     43 H         -13.1741    5.2221   -2.5759 H       1  LIG1        0.1232
     44 C         -11.8154    7.9837    0.7565 C.ar    1  LIG1        0.0475
     45 C         -10.5697    7.9805    0.0895 C.ar    1  LIG1        0.0237
     46 C         -10.1270    9.1667   -0.4937 C.ar    1  LIG1       -0.0339
     47 C         -10.9351   10.3119   -0.4587 C.ar    1  LIG1        0.0434
     48 C         -12.1738   10.1951    0.1958 C.ar    1  LIG1        0.0433
     49 N         -12.5911    9.0811    0.7925 N.ar    1  LIG1       -0.2583
     50 H          -9.1559    9.2013   -0.9758 H       1  LIG1        0.0637
     51 H         -12.8412   11.0531    0.2416 H       1  LIG1        0.0842
     52 C         -12.3446    6.7825    1.4974 C.3     1  LIG1       -0.0217
     53 H         -11.5521    6.2604    2.0413 H       1  LIG1        0.0293
     54 H         -12.7957    6.0639    0.8046 H       1  LIG1        0.0293
     55 H         -13.1125    7.1099    2.2000 H       1  LIG1        0.0293
     56 C         -10.5283   11.5426   -1.0552 C.1     1  LIG1       -0.0681
     57 C         -10.1902   12.5892   -1.5601 C.1     1  LIG1       -0.1139
     58 H          -9.8928   13.5108   -2.0040 H       1  LIG1        0.1232
@<TRIPOS>BOND
     1    43    42    1
     2    29    28    1
     3    11     9    1
     4    42    41    3
     5    58    57    1
     6    28    27    3
     7    57    56    3
     8    41    33    1
     9    27    19    1
    10    36    32    1
    11    10     9    1
    12     9     1    1
    13     9    12    1
    14    22    18    1
    15    56    47    1
    16    50    46    1
    17    33    32   ar
    18    33    34   ar
    19    32    31   ar
    20    19    18   ar
    21    19    20   ar
    22    18    17   ar
    23     1     6   ar
    24     1     2   ar
    25    46    47   ar
    26    46    45   ar
    27     6     5   ar
    28    47    48   ar
    29     8     2    1
    30     2     3   ar
    31    20    31    1
    32    20    21   ar
    33    31    30   ar
    34    17     5    1
    35    17    16   ar
    36     5     4   ar
    37    34    45    1
    38    34    35   ar
    39    45    44   ar
    40    48    51    1
    41    48    49   ar
    42     3     4   ar
    43     3     7    1
    44     4    13    1
    45    25    23    1
    46    21    16   ar
    47    16    23    1
    48    30    35   ar
    49    30    37    1
    50    44    49   ar
    51    44    52    1
    52    39    37    1
    53    54    52    1
    54    13    14    3
    55    23    26    1
    56    23    24    1
    57    37    40    1
    58    37    38    1
    59    52    53    1
    60    52    55    1
    61    14    15    1
