@<TRIPOS>MOLECULE
mol_data/opt/b3lyp/geoms/mol2/6ie6ie-6ie.out
 44 46 0 0 0
SMALL
GASTEIGER

@<TRIPOS>ATOM
      1 C          -4.4153   -2.1019    0.4450 C.ar    1  LIG1        0.0390
      2 C          -3.0809   -2.1884    0.0293 C.ar    1  LIG1       -0.0395
      3 C          -2.4483   -1.0486   -0.4458 C.ar    1  LIG1       -0.0426
      4 C          -3.1444    0.1709   -0.4853 C.ar    1  LIG1        0.0507
      5 C          -4.4804    0.1733   -0.0097 C.ar    1  LIG1        0.0883
      6 N          -5.0877   -0.9396    0.4195 N.ar    1  LIG1       -0.2506
      7 H          -1.4234   -1.0863   -0.8006 H       1  LIG1        0.0631
      8 H          -2.5554   -3.1371    0.0660 H       1  LIG1        0.0636
      9 C          -5.1758   -3.3023    0.9453 C.3     1  LIG1       -0.0223
     10 H          -4.5704   -4.2111    0.9069 H       1  LIG1        0.0292
     11 H          -6.0791   -3.4552    0.3463 H       1  LIG1        0.0292
     12 H          -5.5024   -3.1421    1.9779 H       1  LIG1        0.0292
     13 C          -2.5203    1.3326   -1.0311 C.1     1  LIG1       -0.0675
     14 C          -1.9627    2.2930   -1.5125 C.1     1  LIG1       -0.1138
     15 H          -1.4870    3.1462   -1.9385 H       1  LIG1        0.1232
     16 C          -5.0534    2.5321    0.8036 C.ar    1  LIG1        0.0482
     17 C          -5.3235    1.4071   -0.0059 C.ar    1  LIG1        0.0238
     18 C          -6.4663    1.4358   -0.8002 C.ar    1  LIG1       -0.0333
     19 C          -7.2984    2.5648   -0.8205 C.ar    1  LIG1        0.0513
     20 C          -6.9429    3.6463    0.0199 C.ar    1  LIG1        0.0884
     21 N          -5.8519    3.6101    0.7948 N.ar    1  LIG1       -0.2499
     22 H          -6.7120    0.5812   -1.4214 H       1  LIG1        0.0637
     23 C          -3.8839    2.5937    1.7526 C.3     1  LIG1       -0.0217
     24 H          -4.0602    3.3856    2.4817 H       1  LIG1        0.0293
     25 H          -2.9565    2.8184    1.2152 H       1  LIG1        0.0293
     26 H          -3.7379    1.6440    2.2759 H       1  LIG1        0.0293
     27 C          -8.4247    2.6057   -1.6964 C.1     1  LIG1       -0.0675
     28 C          -9.3641    2.6131   -2.4595 C.1     1  LIG1       -0.1138
     29 H         -10.1918    2.6369   -3.1302 H       1  LIG1        0.1232
     30 C          -9.0481    4.9858    0.5801 C.ar    1  LIG1        0.0475
     31 C          -7.7313    4.9146    0.0723 C.ar    1  LIG1        0.0237
     32 C          -7.1164    6.0947   -0.3431 C.ar    1  LIG1       -0.0339
     33 C          -7.8203    7.3065   -0.3031 C.ar    1  LIG1        0.0434
     34 C          -9.1387    7.2590    0.1827 C.ar    1  LIG1        0.0433
     35 N          -9.7242    6.1470    0.6207 N.ar    1  LIG1       -0.2583
     36 H          -6.0917    6.0731   -0.6983 H       1  LIG1        0.0637
     37 H          -9.7299    8.1714    0.2248 H       1  LIG1        0.0842
     38 C          -9.7705    3.7868    1.1392 C.3     1  LIG1       -0.0217
     39 H          -9.1076    3.1590    1.7419 H       1  LIG1        0.0293
     40 H         -10.1723    3.1620    0.3344 H       1  LIG1        0.0293
     41 H         -10.6027    4.1310    1.7551 H       1  LIG1        0.0293
     42 C          -7.2350    8.5353   -0.7313 C.1     1  LIG1       -0.0681
     43 C          -6.7452    9.5809   -1.0937 C.1     1  LIG1       -0.1139
     44 H          -6.3144   10.5017   -1.4120 H       1  LIG1        0.1232
@<TRIPOS>BOND
     1    29    28    1
     2    28    27    3
     3    15    14    1
     4    27    19    1
     5    14    13    3
     6    22    18    1
     7    44    43    1
     8    43    42    3
     9    13     4    1
    10    19    18   ar
    11    19    20   ar
    12     7     3    1
    13    18    17   ar
    14    42    33    1
    15    36    32    1
    16     4     3   ar
    17     4     5   ar
    18     3     2   ar
    19    32    33   ar
    20    32    31   ar
    21    33    34   ar
    22     5    17    1
    23     5     6   ar
    24    17    16   ar
    25    20    31    1
    26    20    21   ar
    27     2     8    1
    28     2     1   ar
    29    31    30   ar
    30    34    37    1
    31    34    35   ar
    32    40    38    1
    33    11     9    1
    34     6     1   ar
    35     1     9    1
    36    30    35   ar
    37    30    38    1
    38    21    16   ar
    39    16    23    1
    40    10     9    1
    41     9    12    1
    42    38    39    1
    43    38    41    1
    44    25    23    1
    45    23    26    1
    46    23    24    1
