@<TRIPOS>MOLECULE
mol_data/opt/b3lyp/geoms/mol2/6ie6ie6ie-6ie-.out
 58 61 0 0 0
SMALL
GASTEIGER

@<TRIPOS>ATOM
      1 C          -4.4072   -2.2567   -0.0211 C.ar    1  LIG1        0.0390
      2 C          -3.0089   -2.2670   -0.0975 C.ar    1  LIG1       -0.0395
      3 C          -2.3281   -1.0588   -0.1249 C.ar    1  LIG1       -0.0426
      4 C          -3.0439    0.1498   -0.0888 C.ar    1  LIG1        0.0507
      5 C          -4.4602    0.0659   -0.0316 C.ar    1  LIG1        0.0883
      6 N          -5.1011   -1.1088    0.0100 N.ar    1  LIG1       -0.2506
      7 H          -1.2442   -1.0307   -0.1680 H       1  LIG1        0.0631
      8 H          -2.4678   -3.2071   -0.1266 H       1  LIG1        0.0636
      9 C          -5.2139   -3.5281    0.0299 C.3     1  LIG1       -0.0223
     10 H          -4.5777   -4.4146   -0.0266 H       1  LIG1        0.0292
     11 H          -5.9312   -3.5564   -0.7963 H       1  LIG1        0.0292
     12 H          -5.7940   -3.5735    0.9575 H       1  LIG1        0.0292
     13 C          -2.3373    1.3904   -0.0825 C.1     1  LIG1       -0.0675
     14 C          -1.6957    2.4166   -0.0712 C.1     1  LIG1       -0.1138
     15 H          -1.1479    3.3305   -0.0604 H       1  LIG1        0.1232
     16 C          -6.3283    1.5086    0.9294 C.ar    1  LIG1        0.0482
     17 C          -5.3199    1.2854   -0.0384 C.ar    1  LIG1        0.0238
     18 C          -5.1750    2.2291   -1.0513 C.ar    1  LIG1       -0.0333
     19 C          -5.9943    3.3679   -1.0998 C.ar    1  LIG1        0.0513
     20 C          -6.9432    3.5262   -0.0639 C.ar    1  LIG1        0.0884
     21 N          -7.0979    2.6049    0.8974 N.ar    1  LIG1       -0.2499
     22 H          -4.4368    2.0817   -1.8317 H       1  LIG1        0.0637
     23 C          -6.5958    0.5561    2.0660 C.3     1  LIG1       -0.0217
     24 H          -5.6758    0.3082    2.6059 H       1  LIG1        0.0293
     25 H          -7.0057   -0.3861    1.6925 H       1  LIG1        0.0293
     26 H          -7.3049    1.0175    2.7542 H       1  LIG1        0.0293
     27 C          -5.8839    4.2743   -2.1969 C.1     1  LIG1       -0.0675
     28 C          -5.7737    5.0114   -3.1507 C.1     1  LIG1       -0.1138
     29 H          -5.6937    5.6652   -3.9883 H       1  LIG1        0.1232
     30 C          -7.4512    6.0289    0.1570 C.ar    1  LIG1        0.0482
     31 C          -7.8748    4.6894    0.0087 C.ar    1  LIG1        0.0238
     32 C          -9.2455    4.4405    0.0085 C.ar    1  LIG1       -0.0333
     33 C         -10.1699    5.4927    0.0731 C.ar    1  LIG1        0.0513
     34 C          -9.6486    6.8086    0.1491 C.ar    1  LIG1        0.0884
     35 N          -8.3319    7.0374    0.2163 N.ar    1  LIG1       -0.2499
     36 H          -9.6032    3.4178   -0.0372 H       1  LIG1        0.0637
     37 C          -6.0028    6.4224    0.2959 C.3     1  LIG1       -0.0217
     38 H          -5.9410    7.3701    0.8337 H       1  LIG1        0.0293
     39 H          -5.5419    6.5589   -0.6880 H       1  LIG1        0.0293
     40 H          -5.4234    5.6629    0.8274 H       1  LIG1        0.0293
     41 C         -11.5686    5.2046    0.0903 C.1     1  LIG1       -0.0675
     42 C         -12.7439    4.9172    0.1095 C.1     1  LIG1       -0.1138
     43 H         -13.7832    4.6834    0.1283 H       1  LIG1        0.1232
     44 C         -10.4241    9.0236    1.1365 C.ar    1  LIG1        0.0475
     45 C         -10.5297    8.0124    0.1507 C.ar    1  LIG1        0.0237
     46 C         -11.4724    8.1758   -0.8637 C.ar    1  LIG1       -0.0339
     47 C         -12.2767    9.3243   -0.9019 C.ar    1  LIG1        0.0434
     48 C         -12.0823   10.2697    0.1183 C.ar    1  LIG1        0.0433
     49 N         -11.1968   10.1221    1.1021 N.ar    1  LIG1       -0.2583
     50 H         -11.5824    7.4202   -1.6335 H       1  LIG1        0.0637
     51 H         -12.6778   11.1802    0.1301 H       1  LIG1        0.0842
     52 C          -9.4647    8.9367    2.2954 C.3     1  LIG1       -0.0217
     53 H          -9.7183    9.7107    3.0210 H       1  LIG1        0.0293
     54 H          -8.4349    9.0805    1.9566 H       1  LIG1        0.0293
     55 H          -9.5033    7.9554    2.7786 H       1  LIG1        0.0293
     56 C         -13.2460    9.5324   -1.9283 C.1     1  LIG1       -0.0681
     57 C         -14.0698    9.7148   -2.7958 C.1     1  LIG1       -0.1139
     58 H         -14.7944    9.8765   -3.5598 H       1  LIG1        0.1232
@<TRIPOS>BOND
     1    29    28    1
     2    58    57    1
     3    28    27    3
     4    57    56    3
     5    27    19    1
     6    56    47    1
     7    22    18    1
     8    50    46    1
     9    19    18   ar
    10    19    20   ar
    11    18    17   ar
    12    47    46   ar
    13    47    48   ar
    14    46    45   ar
    15    11     9    1
    16    39    37    1
    17     7     3    1
    18     8     2    1
    19     3     2   ar
    20     3     4   ar
    21     2     1   ar
    22     4    13    1
    23     4     5   ar
    24    13    14    3
    25    14    15    1
    26    20    31    1
    27    20    21   ar
    28    17     5    1
    29    17    16   ar
    30    36    32    1
    31     5     6   ar
    32    10     9    1
    33     1     6   ar
    34     1     9    1
    35    32    31   ar
    36    32    33   ar
    37    31    30   ar
    38     9    12    1
    39    33    41    1
    40    33    34   ar
    41    41    42    3
    42    42    43    1
    43    48    51    1
    44    48    49   ar
    45    34    45    1
    46    34    35   ar
    47    45    44   ar
    48    30    35   ar
    49    30    37    1
    50    37    40    1
    51    37    38    1
    52    21    16   ar
    53    16    23    1
    54    49    44   ar
    55    44    52    1
    56    25    23    1
    57    54    52    1
    58    23    24    1
    59    23    26    1
    60    52    55    1
    61    52    53    1
