@<TRIPOS>MOLECULE
mol_data/opt/b3lyp/geoms/mol2/6ie6ie-6ie-6ie.out
 58 61 0 0 0
SMALL
GASTEIGER

@<TRIPOS>ATOM
      1 C          -4.0007   -1.9696    0.9396 C.ar    1  LIG1        0.0390
      2 C          -3.0495   -2.2954   -0.0353 C.ar    1  LIG1       -0.0395
      3 C          -2.8247   -1.4099   -1.0793 C.ar    1  LIG1       -0.0426
      4 C          -3.5351   -0.1989   -1.1332 C.ar    1  LIG1        0.0507
      5 C          -4.4496    0.0660   -0.0820 C.ar    1  LIG1        0.0883
      6 N          -4.6787   -0.8112    0.9031 N.ar    1  LIG1       -0.2506
      7 H          -2.1158   -1.6443   -1.8668 H       1  LIG1        0.0631
      8 H          -2.5082   -3.2344    0.0190 H       1  LIG1        0.0636
      9 C          -4.3152   -2.8919    2.0884 C.3     1  LIG1       -0.0223
     10 H          -3.8018   -3.8514    1.9909 H       1  LIG1        0.0292
     11 H          -5.3931   -3.0702    2.1465 H       1  LIG1        0.0292
     12 H          -4.0169   -2.4330    3.0373 H       1  LIG1        0.0292
     13 C          -3.3589    0.6831   -2.2411 C.1     1  LIG1       -0.0675
     14 C          -3.1939    1.3987   -3.2034 C.1     1  LIG1       -0.1138
     15 H          -3.0634    2.0363   -4.0472 H       1  LIG1        0.1232
     16 C          -4.7122    2.6066    0.1187 C.ar    1  LIG1        0.0482
     17 C          -5.2658    1.3157   -0.0305 C.ar    1  LIG1        0.0238
     18 C          -6.6534    1.2043   -0.0555 C.ar    1  LIG1       -0.0333
     19 C          -7.4692    2.3442   -0.0099 C.ar    1  LIG1        0.0513
     20 C          -6.8201    3.6011    0.0736 C.ar    1  LIG1        0.0884
     21 N          -5.4881    3.6983    0.1614 N.ar    1  LIG1       -0.2499
     22 H          -7.1116    0.2227   -0.1068 H       1  LIG1        0.0637
     23 C          -3.2327    2.8505    0.2719 C.3     1  LIG1       -0.0217
     24 H          -3.0784    3.8140    0.7602 H       1  LIG1        0.0293
     25 H          -2.7407    2.8808   -0.7061 H       1  LIG1        0.0293
     26 H          -2.7498    2.0642    0.8584 H       1  LIG1        0.0293
     27 C          -8.8897    2.1978   -0.0188 C.1     1  LIG1       -0.0675
     28 C         -10.0881    2.0292   -0.0216 C.1     1  LIG1       -0.1138
     29 H         -11.1456    1.8987   -0.0226 H       1  LIG1        0.1232
     30 C          -7.3876    5.8947    1.0320 C.ar    1  LIG1        0.0482
     31 C          -7.5784    4.8848    0.0587 C.ar    1  LIG1        0.0238
     32 C          -8.4836    5.1393   -0.9684 C.ar    1  LIG1       -0.0333
     33 C          -9.1853    6.3532   -1.0278 C.ar    1  LIG1        0.0513
     34 C          -8.9533    7.2862    0.0085 C.ar    1  LIG1        0.0884
     35 N          -8.0686    7.0482    0.9865 N.ar    1  LIG1       -0.2499
     36 H          -8.6408    4.4042   -1.7497 H       1  LIG1        0.0637
     37 C          -6.4357    5.7452    2.1905 C.3     1  LIG1       -0.0217
     38 H          -6.5983    6.5666    2.8894 H       1  LIG1        0.0293
     39 H          -5.3989    5.7589    1.8439 H       1  LIG1        0.0293
     40 H          -6.5814    4.7917    2.7086 H       1  LIG1        0.0293
     41 C         -10.0482    6.6210   -2.1330 C.1     1  LIG1       -0.0675
     42 C         -10.7601    6.8195   -3.0915 C.1     1  LIG1       -0.1138
     43 H         -11.3851    7.0130   -3.9326 H       1  LIG1        0.1232
     44 C         -11.0232    8.7748    0.2259 C.ar    1  LIG1        0.0475
     45 C          -9.6285    8.6172    0.0619 C.ar    1  LIG1        0.0237
     46 C          -8.8343    9.7627    0.0108 C.ar    1  LIG1       -0.0339
     47 C          -9.4259   11.0322    0.0618 C.ar    1  LIG1        0.0434
     48 C         -10.8263   11.0756    0.1814 C.ar    1  LIG1        0.0433
     49 N         -11.5924    9.9920    0.2761 N.ar    1  LIG1       -0.2583
     50 H          -7.7568    9.6673   -0.0694 H       1  LIG1        0.0637
     51 H         -11.3340   12.0373    0.2144 H       1  LIG1        0.0842
     52 C         -11.9642    7.6092    0.3935 C.3     1  LIG1       -0.0217
     53 H         -11.5156    6.8053    0.9837 H       1  LIG1        0.0293
     54 H         -12.2405    7.1880   -0.5791 H       1  LIG1        0.0293
     55 H         -12.8737    7.9575    0.8856 H       1  LIG1        0.0293
     56 C          -8.6533   12.2300   -0.0025 C.1     1  LIG1       -0.0681
     57 C          -8.0046   13.2501   -0.0575 C.1     1  LIG1       -0.1139
     58 H          -7.4328   14.1477   -0.1050 H       1  LIG1        0.1232
@<TRIPOS>BOND
     1    15    14    1
     2    43    42    1
     3    14    13    3
     4    42    41    3
     5    13     4    1
     6    41    33    1
     7     7     3    1
     8    36    32    1
     9     4     3   ar
    10     4     5   ar
    11     3     2   ar
    12    33    32   ar
    13    33    34   ar
    14    32    31   ar
    15    25    23    1
    16    54    52    1
    17    22    18    1
    18    58    57    1
    19     5    17    1
    20     5     6   ar
    21    50    46    1
    22    57    56    3
    23    18    17   ar
    24    18    19   ar
    25     2     8    1
    26     2     1   ar
    27    17    16   ar
    28    29    28    1
    29    28    27    3
    30    27    19    1
    31    19    20   ar
    32    56    47    1
    33    34    45    1
    34    34    35   ar
    35    46    47   ar
    36    46    45   ar
    37    31    20    1
    38    31    30   ar
    39    47    48   ar
    40    45    44   ar
    41    20    21   ar
    42    16    21   ar
    43    16    23    1
    44    48    51    1
    45    48    49   ar
    46    44    49   ar
    47    44    52    1
    48    23    24    1
    49    23    26    1
    50    52    55    1
    51    52    53    1
    52     6     1   ar
    53     1     9    1
    54    35    30   ar
    55    30    37    1
    56    39    37    1
    57    10     9    1
    58     9    11    1
    59     9    12    1
    60    37    40    1
    61    37    38    1
