@<TRIPOS>MOLECULE
mol_data/opt/b3lyp/geoms/mol2/6ie6ie-6ie-6ie-.out
 58 61 0 0 0
SMALL
GASTEIGER

@<TRIPOS>ATOM
      1 C          -3.5269   -1.7313    0.8784 C.ar    1  LIG1        0.0390
      2 C          -3.0311   -2.2711   -0.3149 C.ar    1  LIG1       -0.0395
      3 C          -3.3001   -1.6213   -1.5108 C.ar    1  LIG1       -0.0426
      4 C          -4.0440   -0.4296   -1.5063 C.ar    1  LIG1        0.0507
      5 C          -4.4726    0.0649   -0.2480 C.ar    1  LIG1        0.0883
      6 N          -4.2314   -0.5883    0.8956 N.ar    1  LIG1       -0.2506
      7 H          -2.9553   -2.0277   -2.4561 H       1  LIG1        0.0631
      8 H          -2.4578   -3.1924   -0.3036 H       1  LIG1        0.0636
      9 C          -3.2962   -2.3938    2.2116 C.3     1  LIG1       -0.0223
     10 H          -2.7949   -3.3587    2.1040 H       1  LIG1        0.0292
     11 H          -4.2484   -2.5447    2.7291 H       1  LIG1        0.0292
     12 H          -2.6830   -1.7527    2.8538 H       1  LIG1        0.0292
     13 C          -4.3820    0.2058   -2.7386 C.1     1  LIG1       -0.0675
     14 C          -4.6615    0.7079   -3.8039 C.1     1  LIG1       -0.1138
     15 H          -4.9200    1.1591   -4.7342 H       1  LIG1        0.1232
     16 C          -4.7863    2.5989   -0.4578 C.ar    1  LIG1        0.0482
     17 C          -5.2737    1.3182   -0.1144 C.ar    1  LIG1        0.0238
     18 C          -6.5439    1.2379    0.4497 C.ar    1  LIG1       -0.0333
     19 C          -7.3406    2.3825    0.5992 C.ar    1  LIG1        0.0513
     20 C          -6.7918    3.6137    0.1616 C.ar    1  LIG1        0.0884
     21 N          -5.5451    3.6945   -0.3192 N.ar    1  LIG1       -0.2499
     22 H          -6.9226    0.2780    0.7835 H       1  LIG1        0.0637
     23 C          -3.3865    2.8327   -0.9655 C.3     1  LIG1       -0.0217
     24 H          -3.1107    3.8729   -0.7856 H       1  LIG1        0.0293
     25 H          -3.3269    2.6450   -2.0427 H       1  LIG1        0.0293
     26 H          -2.6628    2.1747   -0.4766 H       1  LIG1        0.0293
     27 C          -8.6308    2.2715    1.2011 C.1     1  LIG1       -0.0675
     28 C          -9.7143    2.1349    1.7224 C.1     1  LIG1       -0.1138
     29 H         -10.6714    2.0337    2.1796 H       1  LIG1        0.1232
     30 C          -7.0567    6.0673    0.7962 C.ar    1  LIG1        0.0482
     31 C          -7.5656    4.8872    0.2022 C.ar    1  LIG1        0.0238
     32 C          -8.8289    4.9502   -0.3791 C.ar    1  LIG1       -0.0333
     33 C          -9.5575    6.1498   -0.3986 C.ar    1  LIG1        0.0513
     34 C          -8.9537    7.2839    0.1945 C.ar    1  LIG1        0.0884
     35 N          -7.7506    7.2122    0.7805 N.ar    1  LIG1       -0.2499
     36 H          -9.2651    4.0660   -0.8298 H       1  LIG1        0.0637
     37 C          -5.7234    6.1197    1.4962 C.3     1  LIG1       -0.0217
     38 H          -5.6493    7.0572    2.0488 H       1  LIG1        0.0293
     39 H          -4.9055    6.0608    0.7728 H       1  LIG1        0.0293
     40 H          -5.5965    5.2779    2.1842 H       1  LIG1        0.0293
     41 C         -10.8611    6.1723   -0.9816 C.1     1  LIG1       -0.0675
     42 C         -11.9642    6.1452   -1.4787 C.1     1  LIG1       -0.1138
     43 H         -12.9372    6.1434   -1.9126 H       1  LIG1        0.1232
     44 C          -9.7817    9.3827    1.3717 C.ar    1  LIG1        0.0475
     45 C          -9.6041    8.6263    0.1877 C.ar    1  LIG1        0.0237
     46 C         -10.0289    9.1805   -1.0191 C.ar    1  LIG1       -0.0339
     47 C         -10.6018   10.4607   -1.0452 C.ar    1  LIG1        0.0434
     48 C         -10.7215   11.1280    0.1847 C.ar    1  LIG1        0.0433
     49 N         -10.3337   10.6072    1.3476 N.ar    1  LIG1       -0.2583
     50 H          -9.9098    8.6294   -1.9452 H       1  LIG1        0.0637
     51 H         -11.1542   12.1257    0.2168 H       1  LIG1        0.0842
     52 C          -9.3888    8.8695    2.7330 C.3     1  LIG1       -0.0217
     53 H          -9.8056    9.5317    3.4931 H       1  LIG1        0.0293
     54 H          -8.3005    8.8382    2.8355 H       1  LIG1        0.0293
     55 H          -9.7503    7.8496    2.8993 H       1  LIG1        0.0293
     56 C         -11.0407   11.0658   -2.2606 C.1     1  LIG1       -0.0681
     57 C         -11.4153   11.5842   -3.2880 C.1     1  LIG1       -0.1139
     58 H         -11.7433   12.0423   -4.1921 H       1  LIG1        0.1232
@<TRIPOS>BOND
     1    15    14    1
     2    58    57    1
     3    14    13    3
     4    57    56    3
     5    13     4    1
     6     7     3    1
     7    56    47    1
     8    25    23    1
     9    50    46    1
    10    43    42    1
    11     3     4   ar
    12     3     2   ar
    13     4     5   ar
    14    42    41    3
    15    47    46   ar
    16    47    48   ar
    17    46    45   ar
    18    41    33    1
    19    23    24    1
    20    23    26    1
    21    23    16    1
    22    36    32    1
    23    16    21   ar
    24    16    17   ar
    25    33    32   ar
    26    33    34   ar
    27    32    31   ar
    28    21    20   ar
    29     2     8    1
    30     2     1   ar
    31     5    17    1
    32     5     6   ar
    33    17    18   ar
    34    20    31    1
    35    20    19   ar
    36    48    51    1
    37    48    49   ar
    38    45    34    1
    39    45    44   ar
    40    34    35   ar
    41    31    30   ar
    42    18    19   ar
    43    18    22    1
    44    19    27    1
    45    39    37    1
    46    35    30   ar
    47    30    37    1
    48     1     6   ar
    49     1     9    1
    50    27    28    3
    51    49    44   ar
    52    44    52    1
    53    37    38    1
    54    37    40    1
    55    28    29    1
    56    10     9    1
    57     9    11    1
    58     9    12    1
    59    52    54    1
    60    52    55    1
    61    52    53    1
