@<TRIPOS>MOLECULE
mol_data/opt/b3lyp/geoms/mol2/6ie6ie6ie6ie.out
 58 61 0 0 0
SMALL
GASTEIGER

@<TRIPOS>ATOM
      1 C          -3.6740   -1.5265   -1.6906 C.ar    1  LIG1        0.0390
      2 C          -2.8341   -2.0760   -0.7139 C.ar    1  LIG1       -0.0395
      3 C          -2.8440   -1.5348    0.5632 C.ar    1  LIG1       -0.0426
      4 C          -3.6793   -0.4433    0.8554 C.ar    1  LIG1        0.0507
      5 C          -4.4821    0.0626   -0.2008 C.ar    1  LIG1        0.0883
      6 N          -4.4727   -0.4821   -1.4239 N.ar    1  LIG1       -0.2506
      7 H          -2.2177   -1.9466    1.3479 H       1  LIG1        0.0631
      8 H          -2.1918   -2.9174   -0.9525 H       1  LIG1        0.0636
      9 C          -3.7318   -2.0730   -3.0934 C.3     1  LIG1       -0.0223
     10 H          -3.0141   -2.8832   -3.2427 H       1  LIG1        0.0292
     11 H          -3.5247   -1.2800   -3.8186 H       1  LIG1        0.0292
     12 H          -4.7354   -2.4522   -3.3132 H       1  LIG1        0.0292
     13 C          -3.7120    0.0863    2.1809 C.1     1  LIG1       -0.0675
     14 C          -3.7126    0.4970    3.3194 C.1     1  LIG1       -0.1138
     15 H          -3.7276    0.8730    4.3163 H       1  LIG1        0.1232
     16 C          -6.7415    1.2245   -0.3727 C.ar    1  LIG1        0.0482
     17 C          -5.3708    1.2472   -0.0200 C.ar    1  LIG1        0.0238
     18 C          -4.8532    2.4363    0.4846 C.ar    1  LIG1       -0.0333
     19 C          -5.6585    3.5794    0.6122 C.ar    1  LIG1        0.0513
     20 C          -7.0091    3.4683    0.2047 C.ar    1  LIG1        0.0884
     21 N          -7.5120    2.3123   -0.2512 N.ar    1  LIG1       -0.2499
     22 H          -3.8127    2.4944    0.7833 H       1  LIG1        0.0637
     23 C          -7.4291   -0.0125   -0.8902 C.3     1  LIG1       -0.0217
     24 H          -7.2141   -0.8837   -0.2629 H       1  LIG1        0.0293
     25 H          -7.0793   -0.2544   -1.8975 H       1  LIG1        0.0293
     26 H          -8.5055    0.1618   -0.9132 H       1  LIG1        0.0293
     27 C          -5.1005    4.7750    1.1587 C.1     1  LIG1       -0.0675
     28 C          -4.5896    5.7640    1.6335 C.1     1  LIG1       -0.1138
     29 H          -4.1576    6.6456    2.0478 H       1  LIG1        0.1232
     30 C          -9.2227    4.5531    0.8461 C.ar    1  LIG1        0.0482
     31 C          -7.9488    4.6250    0.2324 C.ar    1  LIG1        0.0238
     32 C          -7.5964    5.8221   -0.3845 C.ar    1  LIG1       -0.0333
     33 C          -8.4867    6.9068   -0.4208 C.ar    1  LIG1        0.0513
     34 C          -9.7502    6.7287    0.1913 C.ar    1  LIG1        0.0884
     35 N         -10.0735    5.5862    0.8131 N.ar    1  LIG1       -0.2499
     36 H          -6.6241    5.9279   -0.8520 H       1  LIG1        0.0637
     37 C          -9.7039    3.3319    1.5862 C.3     1  LIG1       -0.0217
     38 H          -8.9457    2.9580    2.2816 H       1  LIG1        0.0293
     39 H          -9.9195    2.5182    0.8882 H       1  LIG1        0.0293
     40 H         -10.6106    3.5850    2.1372 H       1  LIG1        0.0293
     41 C          -8.0823    8.1283   -1.0405 C.1     1  LIG1       -0.0675
     42 C          -7.6960    9.1465   -1.5684 C.1     1  LIG1       -0.1138
     43 H          -7.3763   10.0518   -2.0303 H       1  LIG1        0.1232
     44 C         -11.4502    8.2331    1.3417 C.ar    1  LIG1        0.0475
     45 C         -10.8026    7.7852    0.1647 C.ar    1  LIG1        0.0237
     46 C         -11.1941    8.3374   -1.0544 C.ar    1  LIG1       -0.0339
     47 C         -12.2137    9.2996   -1.0988 C.ar    1  LIG1        0.0434
     48 C         -12.7954    9.6652    0.1261 C.ar    1  LIG1        0.0433
     49 N         -12.4238    9.1579    1.3001 N.ar    1  LIG1       -0.2583
     50 H         -10.7188    8.0190   -1.9754 H       1  LIG1        0.0637
     51 H         -13.5939   10.4039    0.1445 H       1  LIG1        0.0842
     52 C         -11.0877    7.7284    2.7146 C.3     1  LIG1       -0.0217
     53 H         -10.0041    7.7216    2.8696 H       1  LIG1        0.0293
     54 H         -11.4318    6.6993    2.8520 H       1  LIG1        0.0293
     55 H         -11.5585    8.3694    3.4612 H       1  LIG1        0.0293
     56 C         -12.6489    9.8813   -2.3269 C.1     1  LIG1       -0.0681
     57 C         -13.0225   10.3785   -3.3651 C.1     1  LIG1       -0.1139
     58 H         -13.3532   10.8148   -4.2789 H       1  LIG1        0.1232
@<TRIPOS>BOND
     1    58    57    1
     2    11     9    1
     3    57    56    3
     4    12     9    1
     5    10     9    1
     6     9     1    1
     7    56    47    1
     8    43    42    1
     9    50    46    1
    10    25    23    1
    11     1     6   ar
    12     1     2   ar
    13    42    41    3
    14     6     5   ar
    15    47    46   ar
    16    47    48   ar
    17    46    45   ar
    18    41    33    1
    19     8     2    1
    20    26    23    1
    21    23    16    1
    22    23    24    1
    23    36    32    1
    24     2     3   ar
    25    33    32   ar
    26    33    34   ar
    27    32    31   ar
    28    16    21   ar
    29    16    17   ar
    30    21    20   ar
    31     5    17    1
    32     5     4   ar
    33    17    18   ar
    34    48    51    1
    35    48    49   ar
    36    45    34    1
    37    45    44   ar
    38    34    35   ar
    39    20    31    1
    40    20    19   ar
    41    31    30   ar
    42    18    19   ar
    43    18    22    1
    44     3     4   ar
    45     3     7    1
    46    19    27    1
    47    35    30   ar
    48    30    37    1
    49     4    13    1
    50    39    37    1
    51    27    28    3
    52    49    44   ar
    53    44    52    1
    54    37    40    1
    55    37    38    1
    56    28    29    1
    57    13    14    3
    58    52    54    1
    59    52    53    1
    60    52    55    1
    61    14    15    1
