@<TRIPOS>MOLECULE
mol_data/opt/b3lyp/geoms/mol2/6ie6ie-4ie6ie.out
 59 62 0 0 0
SMALL
GASTEIGER

@<TRIPOS>ATOM
      1 C          -3.9383   -1.9815    0.8211 C.ar    1  LIG1        0.0390
      2 C          -2.9644   -2.2432   -0.1506 C.ar    1  LIG1       -0.0395
      3 C          -2.7431   -1.3073   -1.1506 C.ar    1  LIG1       -0.0426
      4 C          -3.4788   -0.1107   -1.1628 C.ar    1  LIG1        0.0507
      5 C          -4.4145    0.0890   -0.1154 C.ar    1  LIG1        0.0883
      6 N          -4.6396   -0.8364    0.8257 N.ar    1  LIG1       -0.2506
      7 H          -2.0170   -1.4912   -1.9359 H       1  LIG1        0.0631
      8 H          -2.4031   -3.1717   -0.1288 H       1  LIG1        0.0636
      9 C          -4.2575   -2.9641    1.9175 C.3     1  LIG1       -0.0223
     10 H          -3.6599   -3.8750    1.8329 H       1  LIG1        0.0292
     11 H          -5.3177   -3.2349    1.8868 H       1  LIG1        0.0292
     12 H          -4.0729   -2.5132    2.8979 H       1  LIG1        0.0292
     13 C          -3.3062    0.8223   -2.2287 C.1     1  LIG1       -0.0675
     14 C          -3.1441    1.5818   -3.1572 C.1     1  LIG1       -0.1138
     15 H          -3.0178    2.2585   -3.9707 H       1  LIG1        0.1232
     16 C          -4.7315    2.6139    0.1831 C.ar    1  LIG1        0.0482
     17 C          -5.2562    1.3188   -0.0220 C.ar    1  LIG1        0.0238
     18 C          -6.6410    1.1811   -0.0636 C.ar    1  LIG1       -0.0333
     19 C          -7.4802    2.3020    0.0142 C.ar    1  LIG1        0.0513
     20 C          -6.8590    3.5697    0.1429 C.ar    1  LIG1        0.0869
     21 N          -5.5298    3.6879    0.2535 N.ar    1  LIG1       -0.2500
     22 H          -7.0787    0.1929   -0.1530 H       1  LIG1        0.0637
     23 C          -3.2595    2.8808    0.3696 C.3     1  LIG1       -0.0217
     24 H          -3.1329    3.8299    0.8931 H       1  LIG1        0.0293
     25 H          -2.7517    2.9545   -0.5978 H       1  LIG1        0.0293
     26 H          -2.7709    2.0842    0.9375 H       1  LIG1        0.0293
     27 C          -8.8969    2.1226   -0.0063 C.1     1  LIG1       -0.0675
     28 C         -10.0897    1.9187   -0.0177 C.1     1  LIG1       -0.1138
     29 H         -11.1435    1.7619   -0.0288 H       1  LIG1        0.1232
     30 C          -7.4784    5.8133    1.1659 C.ar    1  LIG1       -0.0406
     31 C          -8.2296    6.9899    1.0756 C.ar    1  LIG1       -0.0493
     32 C          -7.6411    4.8417    0.1524 C.ar    1  LIG1        0.0056
     33 C          -9.1246    7.2506    0.0330 C.ar    1  LIG1       -0.0005
     34 H          -8.1237    7.7357    1.8589 H       1  LIG1        0.0627
     35 C          -8.5296    5.0896   -0.8962 C.ar    1  LIG1       -0.0363
     36 C          -9.2717    6.2785   -0.9826 C.ar    1  LIG1        0.0331
     37 H          -8.6463    4.3527   -1.6826 H       1  LIG1        0.0637
     38 C          -6.5495    5.6176    2.3392 C.3     1  LIG1       -0.0391
     39 H          -6.7208    6.3857    3.0979 H       1  LIG1        0.0278
     40 H          -5.5042    5.6627    2.0222 H       1  LIG1        0.0278
     41 H          -6.6923    4.6378    2.8060 H       1  LIG1        0.0278
     42 C         -10.1321    6.4848   -2.1058 C.1     1  LIG1       -0.0690
     43 C         -10.8520    6.6366   -3.0671 C.1     1  LIG1       -0.1139
     44 H         -11.4820    6.7834   -3.9136 H       1  LIG1        0.1232
     45 C         -11.2561    8.6330    0.2527 C.ar    1  LIG1        0.0460
     46 C          -9.8648    8.5461    0.0084 C.ar    1  LIG1        0.0055
     47 C          -9.1628    9.7290   -0.2201 C.ar    1  LIG1       -0.0354
     48 C          -9.8367   10.9604   -0.2303 C.ar    1  LIG1        0.0433
     49 C         -11.2214   10.9284    0.0040 C.ar    1  LIG1        0.0433
     50 N         -11.9035    9.8099    0.2441 N.ar    1  LIG1       -0.2583
     51 H          -8.0931    9.6982   -0.4011 H       1  LIG1        0.0637
     52 H         -11.7896   11.8560    0.0017 H       1  LIG1        0.0842
     53 C         -12.0951    7.4178    0.5526 C.3     1  LIG1       -0.0218
     54 H         -11.5998    6.7517    1.2654 H       1  LIG1        0.0293
     55 H         -12.2775    6.8391   -0.3596 H       1  LIG1        0.0293
     56 H         -13.0557    7.7385    0.9580 H       1  LIG1        0.0293
     57 C          -9.1549   12.1912   -0.4666 C.1     1  LIG1       -0.0681
     58 C          -8.5811   13.2379   -0.6662 C.1     1  LIG1       -0.1139
     59 H          -8.0771   14.1596   -0.8432 H       1  LIG1        0.1232
@<TRIPOS>BOND
     1    15    14    1
     2    44    43    1
     3    14    13    3
     4    43    42    3
     5    13     4    1
     6    42    36    1
     7     7     3    1
     8    37    35    1
     9     4     3   ar
    10     4     5   ar
    11     3     2   ar
    12    36    35   ar
    13    36    33   ar
    14    35    32   ar
    15    59    58    1
    16    58    57    3
    17    25    23    1
    18    57    48    1
    19    51    47    1
    20    55    53    1
    21    48    47   ar
    22    48    49   ar
    23    47    46   ar
    24    22    18    1
    25     2     8    1
    26     2     1   ar
    27     5    17    1
    28     5     6   ar
    29    18    17   ar
    30    18    19   ar
    31    29    28    1
    32    17    16   ar
    33    28    27    3
    34    27    19    1
    35    52    49    1
    36    49    50   ar
    37    46    33    1
    38    46    45   ar
    39    19    20   ar
    40    33    31   ar
    41    20    32    1
    42    20    21   ar
    43    32    30   ar
    44    16    21   ar
    45    16    23    1
    46    50    45   ar
    47    45    53    1
    48    23    24    1
    49    23    26    1
    50    53    56    1
    51    53    54    1
    52     1     6   ar
    53     1     9    1
    54    31    30   ar
    55    31    34    1
    56    30    38    1
    57    10     9    1
    58    11     9    1
    59     9    12    1
    60    40    38    1
    61    38    41    1
    62    38    39    1
