@<TRIPOS>MOLECULE
mol_data/opt/b3lyp/geoms/mol2/6ie6ie-6ie6ie-.out
 58 61 0 0 0
SMALL
GASTEIGER

@<TRIPOS>ATOM
      1 C          -4.3028   -2.1214   -0.7892 C.ar    1  LIG1        0.0390
      2 C          -3.0244   -2.2701   -0.2373 C.ar    1  LIG1       -0.0395
      3 C          -2.4542   -1.2017    0.4397 C.ar    1  LIG1       -0.0426
      4 C          -3.1548    0.0114    0.5453 C.ar    1  LIG1        0.0507
      5 C          -4.4277    0.0834   -0.0751 C.ar    1  LIG1        0.0883
      6 N          -4.9783   -0.9639   -0.7008 N.ar    1  LIG1       -0.2506
      7 H          -1.4766   -1.2918    0.9019 H       1  LIG1        0.0631
      8 H          -2.4947   -3.2130   -0.3270 H       1  LIG1        0.0636
      9 C          -4.9953   -3.2447   -1.5157 C.3     1  LIG1       -0.0223
     10 H          -4.4051   -4.1641   -1.4985 H       1  LIG1        0.0292
     11 H          -5.1789   -2.9667   -2.5588 H       1  LIG1        0.0292
     12 H          -5.9718   -3.4434   -1.0632 H       1  LIG1        0.0292
     13 C          -2.6018    1.0941    1.2928 C.1     1  LIG1       -0.0675
     14 C          -2.1073    1.9859    1.9449 C.1     1  LIG1       -0.1138
     15 H          -1.6862    2.7775    2.5209 H       1  LIG1        0.1232
     16 C          -4.9134    2.5268   -0.6639 C.ar    1  LIG1        0.0482
     17 C          -5.2693    1.3175   -0.0274 C.ar    1  LIG1        0.0238
     18 C          -6.4942    1.2637    0.6318 C.ar    1  LIG1       -0.0333
     19 C          -7.3273    2.3906    0.6909 C.ar    1  LIG1        0.0513
     20 C          -6.8829    3.5586    0.0282 C.ar    1  LIG1        0.0884
     21 N          -5.7119    3.6039   -0.6184 N.ar    1  LIG1       -0.2499
     22 H          -6.8053    0.3444    1.1160 H       1  LIG1        0.0637
     23 C          -3.6440    2.6868   -1.4603 C.3     1  LIG1       -0.0217
     24 H          -3.7426    3.5528   -2.1163 H       1  LIG1        0.0293
     25 H          -3.4297    1.7980   -2.0609 H       1  LIG1        0.0293
     26 H          -2.7866    2.8504   -0.7987 H       1  LIG1        0.0293
     27 C          -8.5460    2.3400    1.4324 C.1     1  LIG1       -0.0675
     28 C          -9.5664    2.2673    2.0793 C.1     1  LIG1       -0.1138
     29 H         -10.4645    2.2180    2.6506 H       1  LIG1        0.1232
     30 C          -8.9107    4.9803   -0.6167 C.ar    1  LIG1        0.0482
     31 C          -7.6660    4.8313    0.0334 C.ar    1  LIG1        0.0238
     32 C          -7.1243    5.9461    0.6664 C.ar    1  LIG1       -0.0333
     33 C          -7.8143    7.1676    0.6841 C.ar    1  LIG1        0.0513
     34 C          -9.0554    7.2199    0.0070 C.ar    1  LIG1        0.0884
     35 N          -9.5688    6.1493   -0.6117 N.ar    1  LIG1       -0.2499
     36 H          -6.1631    5.8699    1.1633 H       1  LIG1        0.0637
     37 C          -9.5676    3.8614   -1.3833 C.3     1  LIG1       -0.0217
     38 H         -10.0474    3.1507   -0.7019 H       1  LIG1        0.0293
     39 H          -8.8418    3.3023   -1.9812 H       1  LIG1        0.0293
     40 H         -10.3317    4.2807   -2.0392 H       1  LIG1        0.0293
     41 C          -7.2786    8.2787    1.4025 C.1     1  LIG1       -0.0675
     42 C          -6.8024    9.1961    2.0322 C.1     1  LIG1       -0.1138
     43 H          -6.3994   10.0119    2.5866 H       1  LIG1        0.1232
     44 C          -9.5029    9.6372   -0.6974 C.ar    1  LIG1        0.0475
     45 C          -9.8968    8.4541   -0.0325 C.ar    1  LIG1        0.0237
     46 C         -11.1571    8.4165    0.5623 C.ar    1  LIG1       -0.0339
     47 C         -11.9789    9.5521    0.5416 C.ar    1  LIG1        0.0434
     48 C         -11.4730   10.6899   -0.1112 C.ar    1  LIG1        0.0433
     49 N         -10.2900   10.7269   -0.7195 N.ar    1  LIG1       -0.2583
     50 H         -11.4999    7.5061    1.0421 H       1  LIG1        0.0637
     51 H         -12.0688   11.5996   -0.1461 H       1  LIG1        0.0842
     52 C          -8.2032    9.7532   -1.4518 C.3     1  LIG1       -0.0217
     53 H          -8.2750   10.5847   -2.1546 H       1  LIG1        0.0293
     54 H          -7.9673    8.8349   -1.9971 H       1  LIG1        0.0293
     55 H          -7.3710    9.9518   -0.7678 H       1  LIG1        0.0293
     56 C         -13.2694    9.5627    1.1501 C.1     1  LIG1       -0.0681
     57 C         -14.3644    9.5792    1.6651 C.1     1  LIG1       -0.1139
     58 H         -15.3287    9.5937    2.1176 H       1  LIG1        0.1232
@<TRIPOS>BOND
     1    11     9    1
     2    53    52    1
     3    24    23    1
     4    25    23    1
     5    40    37    1
     6    54    52    1
     7    39    37    1
     8     9    10    1
     9     9    12    1
    10     9     1    1
    11    23    26    1
    12    23    16    1
    13    52    55    1
    14    52    44    1
    15    37    38    1
    16    37    30    1
    17     1     6   ar
    18     1     2   ar
    19    49    44   ar
    20    49    48   ar
    21     6     5   ar
    22    44    45   ar
    23    16    21   ar
    24    16    17   ar
    25    21    20   ar
    26    30    35   ar
    27    30    31   ar
    28    35    34   ar
    29     8     2    1
    30     2     3   ar
    31    51    48    1
    32    48    47   ar
    33     5    17    1
    34     5     4   ar
    35    45    34    1
    36    45    46   ar
    37    17    18   ar
    38    34    33   ar
    39    20    31    1
    40    20    19   ar
    41    31    32   ar
    42     3     4   ar
    43     3     7    1
    44    47    46   ar
    45    47    56    1
    46     4    13    1
    47    46    50    1
    48    18    19   ar
    49    18    22    1
    50    32    33   ar
    51    32    36    1
    52    33    41    1
    53    19    27    1
    54    56    57    3
    55    13    14    3
    56    41    42    3
    57    27    28    3
    58    57    58    1
    59    14    15    1
    60    42    43    1
    61    28    29    1
