@<TRIPOS>MOLECULE
mol_data/opt/b3lyp/geoms/mol2/6if13di-12ii-6fi.out
 53 56 0 0 0
SMALL
GASTEIGER

@<TRIPOS>ATOM
      1 C          -4.7212   -1.9508   -0.8157 C.ar    1  LIG1        0.0392
      2 C          -3.3343   -2.1781   -0.8468 C.ar    1  LIG1       -0.0372
      3 C          -2.4800   -1.1239   -0.5889 C.ar    1  LIG1       -0.0163
      4 C          -2.9850    0.1528   -0.2932 C.ar    1  LIG1        0.1442
      5 C          -4.3901    0.3060   -0.2650 C.ar    1  LIG1        0.1298
      6 N          -5.2042   -0.7455   -0.5319 N.ar    1  LIG1       -0.2467
      7 H          -1.4018   -1.2439   -0.6043 H       1  LIG1        0.0655
      8 H          -2.9428   -3.1655   -1.0704 H       1  LIG1        0.0636
      9 C          -5.7126   -3.0453   -1.1235 C.3     1  LIG1       -0.0223
     10 H          -5.3733   -4.0115   -0.7386 H       1  LIG1        0.0292
     11 H          -5.8526   -3.1550   -2.2060 H       1  LIG1        0.0292
     12 H          -6.6832   -2.8102   -0.6826 H       1  LIG1        0.0292
     13 O          -2.0417    1.0999   -0.0944 O.3     1  LIG1       -0.5046
     14 H          -2.3776    1.9438    0.2447 H       1  LIG1        0.2922
     15 C          -5.1549    1.5375    0.0065 C.ar    1  LIG1        0.0869
     16 C          -4.9002    2.8561    0.4363 C.ar    1  LIG1        0.0822
     17 C          -6.1449    3.5654    0.5102 C.ar    1  LIG1       -0.0041
     18 C          -7.1250    2.6673    0.1088 C.ar    1  LIG1        0.0871
     19 N          -6.5010    1.4710   -0.1765 N.ar    1  LIG1       -0.3492
     20 H          -6.9268    0.5975   -0.4629 H       1  LIG1        0.1661
     21 N          -2.6465    3.9062    1.1281 N.1     1  LIG1       -0.1908
     22 C          -3.6630    3.4251    0.8118 C.1     1  LIG1        0.1016
     23 C          -6.3182    4.9686    1.0045 C.3     1  LIG1       -0.0364
     24 H          -7.3461    5.1405    1.3326 H       1  LIG1        0.0279
     25 H          -6.0828    5.7133    0.2348 H       1  LIG1        0.0279
     26 H          -5.6535    5.1652    1.8514 H       1  LIG1        0.0279
     27 C          -8.5621    2.7940   -0.0067 C.ar    1  LIG1        0.1552
     28 C          -9.4172    3.7608   -0.4681 C.ar    1  LIG1        0.0003
     29 C         -10.7533    3.2453   -0.3073 C.ar    1  LIG1       -0.0010
     30 C         -10.6321    1.9758    0.2048 C.ar    1  LIG1        0.1440
     31 O          -9.2920    1.6921    0.3969 O.2     1  LIG1       -0.4526
     32 C          -9.0590    5.0787   -1.0856 C.3     1  LIG1       -0.0358
     33 H          -9.2838    5.9213   -0.4207 H       1  LIG1        0.0279
     34 H          -9.6238    5.2396   -2.0100 H       1  LIG1        0.0279
     35 H          -7.9961    5.1224   -1.3314 H       1  LIG1        0.0279
     36 C         -12.0091    3.9993   -0.6304 C.3     1  LIG1       -0.0358
     37 H         -12.8543    3.6398   -0.0382 H       1  LIG1        0.0279
     38 H         -12.2849    3.9112   -1.6891 H       1  LIG1        0.0279
     39 H         -11.8838    5.0660   -0.4205 H       1  LIG1        0.0279
     40 C         -11.3267    0.0045    1.6365 C.ar    1  LIG1        0.2232
     41 C         -11.5822    0.9349    0.5848 C.ar    1  LIG1        0.0791
     42 C         -12.8213    0.8229   -0.0585 C.ar    1  LIG1       -0.0416
     43 C         -13.7677   -0.1234    0.3437 C.ar    1  LIG1       -0.0314
     44 C         -13.3969   -0.9477    1.4080 C.ar    1  LIG1        0.0343
     45 N         -12.2157   -0.8968    2.0309 N.ar    1  LIG1       -0.2206
     46 H         -13.0397    1.4753   -0.8983 H       1  LIG1        0.0629
     47 H         -14.0914   -1.7026    1.7759 H       1  LIG1        0.0833
     48 O         -10.1617   -0.0263    2.3197 O.3     1  LIG1       -0.4919
     49 H          -9.5327    0.5886    1.9110 H       1  LIG1        0.2937
     50 C         -15.1065   -0.2568   -0.3378 C.3     1  LIG1       -0.0383
     51 H         -15.6988   -1.0563    0.1157 H       1  LIG1        0.0278
     52 H         -14.9960   -0.4900   -1.4030 H       1  LIG1        0.0278
     53 H         -15.6905    0.6682   -0.2679 H       1  LIG1        0.0278
@<TRIPOS>BOND
     1    11     9    1
     2    34    32    1
     3    38    36    1
     4    52    50    1
     5    35    32    1
     6     9     1    1
     7     9    10    1
     8     9    12    1
     9    32    28    1
    10    32    33    1
    11     8     2    1
    12    46    42    1
    13     2     1   ar
    14     2     3   ar
    15     1     6   ar
    16    36    39    1
    17    36    29    1
    18    36    37    1
    19     7     3    1
    20     3     4   ar
    21     6     5   ar
    22    28    29   ar
    23    28    27   ar
    24    20    19    1
    25    50    53    1
    26    50    51    1
    27    50    43    1
    28    29    30   ar
    29     4     5   ar
    30     4    13    1
    31     5    15    1
    32    19    15   ar
    33    19    18   ar
    34    13    14    1
    35    42    43   ar
    36    42    41   ar
    37    27    18    1
    38    27    31   ar
    39    15    16   ar
    40    18    17   ar
    41    30    31   ar
    42    30    41    1
    43    25    23    1
    44    43    44   ar
    45    16    17   ar
    46    16    22    1
    47    17    23    1
    48    41    40   ar
    49    22    21    3
    50    23    24    1
    51    23    26    1
    52    44    47    1
    53    44    45   ar
    54    40    45   ar
    55    40    48    1
    56    49    48    1
