@<TRIPOS>MOLECULE
mol_data/opt/b3lyp/geoms/mol2/6if13aa-12ia-13il-.out
 48 51 0 0 0
SMALL
GASTEIGER

@<TRIPOS>ATOM
      1 C          -4.6919   -2.0678    0.4627 C.ar    1  LIG1        0.0392
      2 C          -3.3240   -2.2384    0.2156 C.ar    1  LIG1       -0.0372
      3 C          -2.5621   -1.1444   -0.1871 C.ar    1  LIG1       -0.0163
      4 C          -3.1715    0.1006   -0.3019 C.ar    1  LIG1        0.1442
      5 C          -4.5413    0.2119    0.0273 C.ar    1  LIG1        0.1286
      6 N          -5.2749   -0.8659    0.3679 N.ar    1  LIG1       -0.2467
      7 H          -1.5084   -1.2385   -0.4291 H       1  LIG1        0.0655
      8 H          -2.8674   -3.2177    0.3166 H       1  LIG1        0.0636
      9 C          -5.5824   -3.2236    0.8484 C.3     1  LIG1       -0.0223
     10 H          -5.0092   -4.1440    0.9864 H       1  LIG1        0.0292
     11 H          -6.3380   -3.4051    0.0758 H       1  LIG1        0.0292
     12 H          -6.1176   -3.0042    1.7776 H       1  LIG1        0.0292
     13 O          -2.4269    1.1587   -0.7371 O.3     1  LIG1       -0.5046
     14 H          -3.0313    1.8359   -1.0790 H       1  LIG1        0.2922
     15 C          -5.2535    1.4841   -0.0189 C.ar    1  LIG1        0.0691
     16 C          -4.8568    2.8248   -0.0191 C.ar    1  LIG1       -0.0341
     17 C          -6.0240    3.6207   -0.0453 C.ar    1  LIG1       -0.0327
     18 C          -7.1227    2.7579   -0.0583 C.ar    1  LIG1        0.0828
     19 N          -6.6260    1.4779   -0.0443 N.ar    1  LIG1       -0.3505
     20 H          -7.1571    0.6217    0.0105 H       1  LIG1        0.1660
     21 H          -3.8465    3.1946    0.0856 H       1  LIG1        0.0639
     22 H          -6.0664    4.6989   -0.0460 H       1  LIG1        0.0640
     23 C          -8.5351    3.0154   -0.0805 C.ar    1  LIG1        0.1547
     24 C          -9.2972    4.1630   -0.0759 C.ar    1  LIG1       -0.0026
     25 C         -10.6578    3.7326   -0.1024 C.ar    1  LIG1       -0.0108
     26 C         -10.6595    2.3591   -0.1202 C.ar    1  LIG1        0.1524
     27 O          -9.3600    1.9089   -0.1072 O.2     1  LIG1       -0.4516
     28 C          -8.8064    5.5796   -0.0461 C.3     1  LIG1       -0.0360
     29 H          -9.6461    6.2787   -0.0241 H       1  LIG1        0.0279
     30 H          -8.1987    5.8174   -0.9272 H       1  LIG1        0.0279
     31 H          -8.1872    5.7745    0.8373 H       1  LIG1        0.0279
     32 H         -11.5282    4.3713   -0.1086 H       1  LIG1        0.0659
     33 C         -11.6849    1.3535   -0.1494 C.ar    1  LIG1        0.0886
     34 C         -13.0759    1.4694   -0.1449 C.ar    1  LIG1        0.0195
     35 C         -13.5798    0.1400   -0.1835 C.ar    1  LIG1        0.1409
     36 C         -12.5154   -0.7468   -0.2095 C.ar    1  LIG1        0.0447
     37 N         -11.3676    0.0142   -0.1881 N.ar    1  LIG1       -0.3550
     38 H         -10.4255   -0.3383   -0.1986 H       1  LIG1        0.1655
     39 H         -12.4793   -1.8232   -0.2402 H       1  LIG1        0.0844
     40 C         -13.9024    2.7182   -0.1038 C.3     1  LIG1       -0.0341
     41 H         -14.9635    2.4617   -0.0679 H       1  LIG1        0.0279
     42 H         -13.7420    3.3485   -0.9877 H       1  LIG1        0.0279
     43 H         -13.6759    3.3306    0.7777 H       1  LIG1        0.0279
     44 O         -14.9186   -0.1217   -0.1892 O.3     1  LIG1       -0.4933
     45 C         -15.2706   -1.4931   -0.2173 C.3     1  LIG1        0.0789
     46 H         -16.3608   -1.5381   -0.2152 H       1  LIG1        0.0660
     47 H         -14.8888   -1.9857   -1.1225 H       1  LIG1        0.0660
     48 H         -14.8834   -2.0234    0.6640 H       1  LIG1        0.0660
@<TRIPOS>BOND
     1    47    45    1
     2    14    13    1
     3    42    40    1
     4    30    28    1
     5    13     4    1
     6     7     3    1
     7     4     3   ar
     8     4     5   ar
     9    39    36    1
    10    45    46    1
    11    45    44    1
    12    45    48    1
    13    36    37   ar
    14    36    35   ar
    15    38    37    1
    16    44    35    1
    17    37    33   ar
    18     3     2   ar
    19    35    34   ar
    20    33    34   ar
    21    33    26    1
    22    34    40    1
    23    26    27   ar
    24    26    25   ar
    25    32    25    1
    26    27    23   ar
    27    40    41    1
    28    40    43    1
    29    25    24   ar
    30    23    24   ar
    31    23    18    1
    32    24    28    1
    33    18    17   ar
    34    18    19   ar
    35    28    29    1
    36    28    31    1
    37    22    17    1
    38    17    16   ar
    39    19    15   ar
    40    19    20    1
    41    16    15   ar
    42    16    21    1
    43    15     5    1
    44     5     6   ar
    45    11     9    1
    46     2     8    1
    47     2     1   ar
    48     6     1   ar
    49     1     9    1
    50     9    10    1
    51     9    12    1
