@<TRIPOS>MOLECULE
mol_data/opt/b3lyp/geoms/mol2/6if12ff-12de12dl.out
 46 49 0 0 0
SMALL
GASTEIGER

@<TRIPOS>ATOM
      1 C          -4.3186   -2.0653    0.1575 C.ar    1  LIG1        0.0393
      2 C          -2.9442   -2.0453   -0.1457 C.ar    1  LIG1       -0.0372
      3 C          -2.3199   -0.8321   -0.3705 C.ar    1  LIG1       -0.0162
      4 C          -3.0559    0.3590   -0.2985 C.ar    1  LIG1        0.1459
      5 C          -4.4326    0.2528    0.0143 C.ar    1  LIG1        0.1512
      6 N          -5.0250   -0.9407    0.2326 N.ar    1  LIG1       -0.2450
      7 H          -1.2645   -0.7653   -0.6137 H       1  LIG1        0.0655
      8 H          -2.3813   -2.9725   -0.2012 H       1  LIG1        0.0636
      9 C          -5.0481   -3.3608    0.4170 C.3     1  LIG1       -0.0223
     10 H          -4.6560   -3.8667    1.3070 H       1  LIG1        0.0292
     11 H          -4.9405   -4.0556   -0.4237 H       1  LIG1        0.0292
     12 H          -6.1087   -3.1578    0.5723 H       1  LIG1        0.0292
     13 O          -2.3851    1.4987   -0.5864 O.3     1  LIG1       -0.5045
     14 H          -2.8519    2.2966   -0.2759 H       1  LIG1        0.2922
     15 C          -5.3273    1.4064    0.0933 C.ar    1  LIG1        0.2025
     16 C          -5.1542    2.7612    0.2710 C.ar    1  LIG1        0.2076
     17 C          -6.4268    3.3818    0.2516 C.ar    1  LIG1        0.2091
     18 C          -7.3460    2.3553    0.0686 C.ar    1  LIG1        0.2169
     19 O          -6.6658    1.1649   -0.0236 O.2     1  LIG1       -0.4424
     20 O          -3.9761    3.4224    0.4846 O.3     1  LIG1       -0.5008
     21 H          -4.1452    4.3748    0.4150 H       1  LIG1        0.2924
     22 O          -6.5001    4.7153    0.4354 O.3     1  LIG1       -0.5007
     23 H          -7.3827    5.0870    0.2561 H       1  LIG1        0.2924
     24 C          -8.7662    2.2836   -0.0243 C.ar    1  LIG1        0.1930
     25 C          -9.7704    3.2436   -0.0994 C.ar    1  LIG1        0.1167
     26 C         -11.0286    2.5366   -0.1669 C.ar    1  LIG1        0.0916
     27 C         -10.6981    1.1962   -0.1180 C.ar    1  LIG1        0.1887
     28 O          -9.3324    1.0529   -0.0383 O.2     1  LIG1       -0.4458
     29 N          -9.2937    5.7720   -0.1944 N.1     1  LIG1       -0.1907
     30 C          -9.5590    4.6357   -0.1527 C.1     1  LIG1        0.1043
     31 C         -12.3010    3.1276   -0.3238 C.1     1  LIG1       -0.0644
     32 C         -13.3772    3.6585   -0.4705 C.1     1  LIG1       -0.1138
     33 H         -14.3380    4.1076   -0.5771 H       1  LIG1        0.1232
     34 C         -11.4560   -0.0219   -0.1613 C.ar    1  LIG1        0.1920
     35 C         -12.7502   -0.3682    0.2011 C.ar    1  LIG1        0.1420
     36 C         -12.8859   -1.7731   -0.1277 C.ar    1  LIG1        0.1757
     37 C         -11.6855   -2.1638   -0.6408 C.ar    1  LIG1        0.1356
     38 O         -10.8149   -1.1117   -0.6562 O.2     1  LIG1       -0.4547
     39 H         -11.3121   -3.1104   -0.9937 H       1  LIG1        0.1068
     40 N         -14.5245    1.0149    1.4633 N.1     1  LIG1       -0.1906
     41 C         -13.7093    0.4179    0.8842 C.1     1  LIG1        0.1068
     42 O         -13.9362   -2.5925    0.1042 O.3     1  LIG1       -0.4907
     43 C         -15.1947   -2.1883   -0.4589 C.3     1  LIG1        0.0790
     44 H         -15.8983   -2.9835   -0.2109 H       1  LIG1        0.0660
     45 H         -15.5449   -1.2465   -0.0274 H       1  LIG1        0.0660
     46 H         -15.1176   -2.0913   -1.5480 H       1  LIG1        0.0660
@<TRIPOS>BOND
     1    46    43    1
     2    39    37    1
     3    38    37   ar
     4    38    34   ar
     5    37    36   ar
     6     7     3    1
     7    13     4    1
     8    13    14    1
     9    33    32    1
    10    32    31    3
    11    43    44    1
    12    43    45    1
    13    43    42    1
    14    11     9    1
    15     3     4   ar
    16     3     2   ar
    17    31    26    1
    18     4     5   ar
    19     8     2    1
    20    29    30    3
    21    26    27   ar
    22    26    25   ar
    23    34    27    1
    24    34    35   ar
    25    30    25    1
    26     2     1   ar
    27    36    42    1
    28    36    35   ar
    29    27    28   ar
    30    25    24   ar
    31    28    24   ar
    32    24    18    1
    33    19    18   ar
    34    19    15   ar
    35     5    15    1
    36     5     6   ar
    37    18    17   ar
    38    15    16   ar
    39     1     6   ar
    40     1     9    1
    41    35    41    1
    42    17    16   ar
    43    17    22    1
    44    23    22    1
    45    16    20    1
    46    21    20    1
    47     9    12    1
    48     9    10    1
    49    41    40    3
