@<TRIPOS>MOLECULE
mol_data/opt/b3lyp/geoms/mol2/6if4ai-6aa-4eh-.out
 51 54 0 0 0
SMALL
GASTEIGER

@<TRIPOS>ATOM
      1 C          -4.1101   -2.1572    0.5119 C.ar    1  LIG1        0.0392
      2 C          -2.9251   -2.2558   -0.2296 C.ar    1  LIG1       -0.0372
      3 C          -2.5222   -1.1807   -1.0114 C.ar    1  LIG1       -0.0164
      4 C          -3.2946   -0.0197   -1.0215 C.ar    1  LIG1        0.1427
      5 C          -4.4538    0.0261   -0.2147 C.ar    1  LIG1        0.1125
      6 N          -4.8444   -1.0382    0.5051 N.ar    1  LIG1       -0.2482
      7 H          -1.6295   -1.2218   -1.6271 H       1  LIG1        0.0655
      8 H          -2.3363   -3.1675   -0.2047 H       1  LIG1        0.0636
      9 C          -4.6195   -3.2960    1.3611 C.3     1  LIG1       -0.0223
     10 H          -3.9837   -4.1808    1.2716 H       1  LIG1        0.0292
     11 H          -5.6381   -3.5692    1.0673 H       1  LIG1        0.0292
     12 H          -4.6581   -3.0041    2.4159 H       1  LIG1        0.0292
     13 O          -2.8882    0.9996   -1.8341 O.3     1  LIG1       -0.5046
     14 H          -3.5926    1.6630   -1.8809 H       1  LIG1        0.2922
     15 C          -4.8113    2.5364   -0.1205 C.ar    1  LIG1       -0.0519
     16 C          -5.6747    3.6269   -0.0552 C.ar    1  LIG1       -0.0531
     17 C          -5.3270    1.2301   -0.1518 C.ar    1  LIG1        0.0042
     18 C          -7.0679    3.4663   -0.0237 C.ar    1  LIG1       -0.0135
     19 H          -5.2624    4.6316   -0.0366 H       1  LIG1        0.0624
     20 C          -6.7185    1.0715   -0.0838 C.ar    1  LIG1       -0.0490
     21 C          -7.5999    2.1530   -0.0224 C.ar    1  LIG1       -0.0421
     22 H          -7.1113    0.0601   -0.0573 H       1  LIG1        0.0627
     23 H          -3.7387    2.7062   -0.0956 H       1  LIG1        0.0624
     24 C          -9.0842    1.8753    0.0751 C.3     1  LIG1       -0.0391
     25 H          -9.2574    0.8786    0.4894 H       1  LIG1        0.0278
     26 H          -9.5721    1.9061   -0.9062 H       1  LIG1        0.0278
     27 H          -9.5943    2.6042    0.7100 H       1  LIG1        0.0278
     28 C          -8.9653    4.9166   -0.8729 C.ar    1  LIG1        0.0360
     29 C          -7.9175    4.6851    0.0336 C.ar    1  LIG1        0.0005
     30 C          -7.6872    5.6963    0.9763 C.ar    1  LIG1       -0.0506
     31 C          -8.4701    6.8447    0.9754 C.ar    1  LIG1       -0.0351
     32 C          -9.4857    6.9824    0.0166 C.ar    1  LIG1        0.0722
     33 N          -9.7238    6.0111   -0.8879 N.ar    1  LIG1       -0.2543
     34 H          -6.9084    5.5703    1.7231 H       1  LIG1        0.0625
     35 H          -9.1851    4.1795   -1.6427 H       1  LIG1        0.0836
     36 H          -8.3051    7.6175    1.7141 H       1  LIG1        0.0639
     37 C         -10.0123    9.4800    0.3239 C.ar    1  LIG1        0.0340
     38 C         -10.9790   10.5032    0.2423 C.ar    1  LIG1       -0.0440
     39 C         -10.3987    8.1599   -0.0353 C.ar    1  LIG1        0.0174
     40 C         -12.2755   10.2585   -0.1775 C.ar    1  LIG1       -0.0399
     41 H         -10.6824   11.5125    0.5081 H       1  LIG1        0.0630
     42 C         -11.7063    7.9336   -0.4736 C.ar    1  LIG1       -0.0307
     43 C         -12.6590    8.9583   -0.5517 C.ar    1  LIG1        0.0252
     44 H         -11.9740    6.9236   -0.7651 H       1  LIG1        0.0643
     45 H         -12.9958   11.0712   -0.2209 H       1  LIG1        0.0636
     46 C          -8.6889    9.8584    0.7072 C.1     1  LIG1       -0.0690
     47 C          -7.5920   10.2588    1.0316 C.1     1  LIG1       -0.1139
     48 H          -6.6186   10.5934    1.3050 H       1  LIG1        0.1232
     49 N         -13.9670    8.6817   -0.9335 N.pl3   1  LIG1       -0.3579
     50 H         -14.4927    9.4630   -1.2992 H       1  LIG1        0.1423
     51 H         -14.0934    7.8408   -1.4792 H       1  LIG1        0.1423
@<TRIPOS>BOND
     1    14    13    1
     2    13     4    1
     3    35    28    1
     4     7     3    1
     5    51    49    1
     6    50    49    1
     7     4     3   ar
     8     4     5   ar
     9     3     2   ar
    10    49    43    1
    11    26    24    1
    12    33    28   ar
    13    33    32   ar
    14    28    29   ar
    15    44    42    1
    16    43    42   ar
    17    43    40   ar
    18    42    39   ar
    19     2     8    1
    20     2     1   ar
    21    45    40    1
    22     5    17    1
    23     5     6   ar
    24    40    38   ar
    25    17    15   ar
    26    17    20   ar
    27    15    23    1
    28    15    16   ar
    29    20    22    1
    30    20    21   ar
    31    16    19    1
    32    16    18   ar
    33    39    32    1
    34    39    37   ar
    35    18    21   ar
    36    18    29    1
    37    21    24    1
    38    32    31   ar
    39    29    30   ar
    40    24    25    1
    41    24    27    1
    42    38    37   ar
    43    38    41    1
    44    37    46    1
    45     6     1   ar
    46     1     9    1
    47    46    47    3
    48    31    30   ar
    49    31    36    1
    50    30    34    1
    51    47    48    1
    52    11     9    1
    53    10     9    1
    54     9    12    1
