@<TRIPOS>MOLECULE
mol_data/opt/b3lyp/geoms/mol2/6if6if6if-6if.out
 54 57 0 0 0
SMALL
GASTEIGER

@<TRIPOS>ATOM
      1 C          -4.2614   -2.2377   -0.4709 C.ar    1  LIG1        0.0392
      2 C          -2.9466   -2.2372    0.0147 C.ar    1  LIG1       -0.0372
      3 C          -2.4094   -1.0663    0.5337 C.ar    1  LIG1       -0.0164
      4 C          -3.1913    0.0892    0.5462 C.ar    1  LIG1        0.1428
      5 C          -4.5007    0.0184    0.0242 C.ar    1  LIG1        0.1143
      6 N          -5.0083   -1.1258   -0.4563 N.ar    1  LIG1       -0.2482
      7 H          -1.4015   -1.0252    0.9337 H       1  LIG1        0.0655
      8 H          -2.3553   -3.1474   -0.0074 H       1  LIG1        0.0636
      9 C          -4.9059   -3.4799   -1.0350 C.3     1  LIG1       -0.0223
     10 H          -4.2217   -4.3321   -1.0160 H       1  LIG1        0.0292
     11 H          -5.2236   -3.3137   -2.0694 H       1  LIG1        0.0292
     12 H          -5.8017   -3.7439   -0.4632 H       1  LIG1        0.0292
     13 O          -2.6455    1.2212    1.0740 O.3     1  LIG1       -0.5046
     14 H          -3.3188    1.9176    1.0886 H       1  LIG1        0.2922
     15 C          -6.6774    1.2527    0.5310 C.ar    1  LIG1        0.0484
     16 C          -5.3708    1.2312   -0.0201 C.ar    1  LIG1        0.0284
     17 C          -4.9080    2.3906   -0.6493 C.ar    1  LIG1       -0.0070
     18 C          -5.7171    3.5258   -0.7107 C.ar    1  LIG1        0.1434
     19 C          -6.9803    3.4791   -0.0986 C.ar    1  LIG1        0.1144
     20 N          -7.4356    2.3525    0.4754 N.ar    1  LIG1       -0.2475
     21 H          -3.9409    2.4141   -1.1431 H       1  LIG1        0.0662
     22 C          -7.2888    0.0566    1.2165 C.3     1  LIG1       -0.0217
     23 H          -6.6356   -0.3299    2.0064 H       1  LIG1        0.0293
     24 H          -7.4427   -0.7624    0.5091 H       1  LIG1        0.0293
     25 H          -8.2439    0.3497    1.6543 H       1  LIG1        0.0293
     26 O          -5.2417    4.6097   -1.3876 O.3     1  LIG1       -0.5046
     27 H          -5.9536    5.2623   -1.4678 H       1  LIG1        0.2922
     28 C          -7.6001    5.9057    0.4397 C.ar    1  LIG1        0.0484
     29 C          -7.9096    4.6464   -0.1225 C.ar    1  LIG1        0.0284
     30 C          -9.1737    4.4830   -0.6978 C.ar    1  LIG1       -0.0070
     31 C         -10.0735    5.5425   -0.7310 C.ar    1  LIG1        0.1434
     32 C          -9.6890    6.7711   -0.1539 C.ar    1  LIG1        0.1144
     33 N          -8.4776    6.9200    0.3981 N.ar    1  LIG1       -0.2475
     34 H          -9.4411    3.5186   -1.1235 H       1  LIG1        0.0662
     35 C          -6.3147    6.1787    1.1894 C.3     1  LIG1       -0.0217
     36 H          -6.3753    7.1733    1.6321 H       1  LIG1        0.0293
     37 H          -5.4301    6.1363    0.5458 H       1  LIG1        0.0293
     38 H          -6.1643    5.4443    1.9881 H       1  LIG1        0.0293
     39 O         -11.2950    5.4513   -1.3310 O.3     1  LIG1       -0.5046
     40 H         -11.4213    4.5512   -1.6606 H       1  LIG1        0.2922
     41 C         -11.8581    8.0114    0.4080 C.ar    1  LIG1        0.0477
     42 C         -10.5665    7.9774   -0.1694 C.ar    1  LIG1        0.0284
     43 C         -10.0542    9.1469   -0.7343 C.ar    1  LIG1       -0.0077
     44 C         -10.8389   10.2970   -0.7591 C.ar    1  LIG1        0.1355
     45 C         -12.1149   10.2286   -0.1960 C.ar    1  LIG1        0.0693
     46 N         -12.6001    9.1283    0.3802 N.ar    1  LIG1       -0.2559
     47 H          -9.0534    9.1659   -1.1515 H       1  LIG1        0.0662
     48 H         -12.7646   11.1063   -0.1999 H       1  LIG1        0.0867
     49 C         -12.4726    6.8341    1.1238 C.3     1  LIG1       -0.0217
     50 H         -11.7299    6.2790    1.7050 H       1  LIG1        0.0293
     51 H         -12.9221    6.1333    0.4133 H       1  LIG1        0.0293
     52 H         -13.2538    7.1961    1.7943 H       1  LIG1        0.0293
     53 O         -10.3276   11.4284   -1.3284 O.3     1  LIG1       -0.5052
     54 H         -10.9839   12.1355   -1.2659 H       1  LIG1        0.2922
@<TRIPOS>BOND
     1    11     9    1
     2    40    39    1
     3    27    26    1
     4    26    18    1
     5    39    31    1
     6    53    54    1
     7    53    44    1
     8    47    43    1
     9    21    17    1
    10    34    30    1
    11     9    10    1
    12     9     1    1
    13     9    12    1
    14    44    43   ar
    15    44    45   ar
    16    43    42   ar
    17    31    30   ar
    18    31    32   ar
    19    18    17   ar
    20    18    19   ar
    21    30    29   ar
    22    17    16   ar
    23     1     6   ar
    24     1     2   ar
    25     6     5   ar
    26    48    45    1
    27    45    46   ar
    28    42    32    1
    29    42    41   ar
    30    32    33   ar
    31    29    19    1
    32    29    28   ar
    33    19    20   ar
    34    16     5    1
    35    16    15   ar
    36     8     2    1
    37     2     3   ar
    38     5     4   ar
    39    46    41   ar
    40    33    28   ar
    41    41    49    1
    42    51    49    1
    43    28    35    1
    44    20    15   ar
    45    24    22    1
    46    15    22    1
    47     3     4   ar
    48     3     7    1
    49    37    35    1
    50     4    13    1
    51    13    14    1
    52    49    50    1
    53    49    52    1
    54    35    36    1
    55    35    38    1
    56    22    25    1
    57    22    23    1
