@<TRIPOS>MOLECULE
mol_data/opt/b3lyp/geoms/mol2/6if6if6if6if-.out
 54 57 0 0 0
SMALL
GASTEIGER

@<TRIPOS>ATOM
      1 C          -4.0058   -2.0613   -0.8912 C.ar    1  LIG1        0.0392
      2 C          -2.9133   -2.2161   -0.0267 C.ar    1  LIG1       -0.0372
      3 C          -2.6549   -1.2429    0.9299 C.ar    1  LIG1       -0.0164
      4 C          -3.4846   -0.1232    0.9972 C.ar    1  LIG1        0.1428
      5 C          -4.5542   -0.0252    0.0816 C.ar    1  LIG1        0.1143
      6 N          -4.7993   -0.9844   -0.8227 N.ar    1  LIG1       -0.2482
      7 H          -1.8293   -1.3301    1.6288 H       1  LIG1        0.0655
      8 H          -2.2789   -3.0941   -0.0991 H       1  LIG1        0.0636
      9 C          -4.3510   -3.0921   -1.9376 C.3     1  LIG1       -0.0223
     10 H          -3.6118   -3.8967   -1.9691 H       1  LIG1        0.0292
     11 H          -4.4063   -2.6306   -2.9283 H       1  LIG1        0.0292
     12 H          -5.3321   -3.5352   -1.7351 H       1  LIG1        0.0292
     13 O          -3.2181    0.8095    1.9551 O.3     1  LIG1       -0.5046
     14 H          -3.9115    1.4857    1.9371 H       1  LIG1        0.2922
     15 C          -6.8658    1.0514    0.1766 C.ar    1  LIG1        0.0484
     16 C          -5.4552    1.1657    0.0815 C.ar    1  LIG1        0.0284
     17 C          -4.9089    2.4478   -0.0183 C.ar    1  LIG1       -0.0070
     18 C          -5.7420    3.5682   -0.0433 C.ar    1  LIG1        0.1434
     19 C          -7.1318    3.3654    0.0332 C.ar    1  LIG1        0.1144
     20 N          -7.6505    2.1324    0.1524 N.ar    1  LIG1       -0.2475
     21 H          -3.8370    2.5975   -0.1103 H       1  LIG1        0.0662
     22 C          -7.5629   -0.2787    0.3148 C.3     1  LIG1       -0.0217
     23 H          -7.1493   -0.8648    1.1427 H       1  LIG1        0.0293
     24 H          -7.4365   -0.8801   -0.5893 H       1  LIG1        0.0293
     25 H          -8.6253   -0.1063    0.4928 H       1  LIG1        0.0293
     26 O          -5.1510    4.7917   -0.1348 O.3     1  LIG1       -0.5046
     27 H          -5.8354    5.4762   -0.0878 H       1  LIG1        0.2922
     28 C          -9.0796    4.7313    0.9578 C.ar    1  LIG1        0.0484
     29 C          -8.0804    4.5154   -0.0249 C.ar    1  LIG1        0.0284
     30 C          -8.0088    5.4142   -1.0937 C.ar    1  LIG1       -0.0070
     31 C          -8.8932    6.4911   -1.1642 C.ar    1  LIG1        0.1434
     32 C          -9.8255    6.6583   -0.1265 C.ar    1  LIG1        0.1144
     33 N          -9.9135    5.7736    0.8807 N.ar    1  LIG1       -0.2475
     34 H          -7.3066    5.2636   -1.9086 H       1  LIG1        0.0662
     35 C          -9.2607    3.8206    2.1462 C.3     1  LIG1       -0.0217
     36 H          -8.3240    3.6934    2.6999 H       1  LIG1        0.0293
     37 H          -9.5764    2.8228    1.8308 H       1  LIG1        0.0293
     38 H         -10.0110    4.2516    2.8105 H       1  LIG1        0.0293
     39 O          -8.8168    7.3064   -2.2537 O.3     1  LIG1       -0.5046
     40 H          -9.5623    7.9255   -2.2321 H       1  LIG1        0.2922
     41 C         -10.4350    9.1411   -0.1267 C.ar    1  LIG1        0.0477
     42 C         -10.8117    7.7786   -0.1317 C.ar    1  LIG1        0.0284
     43 C         -12.1763    7.4636   -0.0975 C.ar    1  LIG1       -0.0077
     44 C         -13.1183    8.4866   -0.0995 C.ar    1  LIG1        0.1355
     45 C         -12.6525    9.8075   -0.1429 C.ar    1  LIG1        0.0693
     46 N         -11.3593   10.1192   -0.1442 N.ar    1  LIG1       -0.2559
     47 H         -12.4793    6.4200   -0.0610 H       1  LIG1        0.0662
     48 H         -13.3692   10.6257   -0.1624 H       1  LIG1        0.0867
     49 C          -8.9959    9.5963   -0.0244 C.3     1  LIG1       -0.0217
     50 H          -8.9843   10.6761    0.1283 H       1  LIG1        0.0293
     51 H          -8.4130    9.3678   -0.9229 H       1  LIG1        0.0293
     52 H          -8.4890    9.1132    0.8176 H       1  LIG1        0.0293
     53 O         -14.4658    8.2849   -0.0706 O.3     1  LIG1       -0.5052
     54 H         -14.6475    7.3375   -0.0097 H       1  LIG1        0.2922
@<TRIPOS>BOND
     1    11     9    1
     2    39    40    1
     3    39    31    1
     4    10     9    1
     5     9    12    1
     6     9     1    1
     7    34    30    1
     8    31    30   ar
     9    31    32   ar
    10    30    29   ar
    11    51    49    1
    12     1     6   ar
    13     1     2   ar
    14     6     5   ar
    15    24    22    1
    16    48    45    1
    17    46    45   ar
    18    46    41   ar
    19    45    44   ar
    20    26    27    1
    21    26    18    1
    22    42    41   ar
    23    42    32    1
    24    42    43   ar
    25    41    49    1
    26    32    33   ar
    27    21    17    1
    28    44    43   ar
    29    44    53    1
    30     8     2    1
    31    43    47    1
    32    53    54    1
    33    18    17   ar
    34    18    19   ar
    35     2     3   ar
    36    29    19    1
    37    29    28   ar
    38    49    50    1
    39    49    52    1
    40    17    16   ar
    41    19    20   ar
    42    16     5    1
    43    16    15   ar
    44     5     4   ar
    45    20    15   ar
    46    15    22    1
    47    22    25    1
    48    22    23    1
    49    33    28   ar
    50     3     4   ar
    51     3     7    1
    52    28    35    1
    53     4    13    1
    54    37    35    1
    55    14    13    1
    56    35    36    1
    57    35    38    1
