@<TRIPOS>MOLECULE
mol_data/opt/b3lyp/geoms/mol2/6if6if-.out
 28 29 0 0 0
SMALL
GASTEIGER

@<TRIPOS>ATOM
      1 C          -4.4043   -2.0223    0.3684 C.ar    1  LIG1        0.0392
      2 C          -3.1406   -2.1011   -0.2325 C.ar    1  LIG1       -0.0372
      3 C          -2.6052   -0.9770   -0.8491 C.ar    1  LIG1       -0.0164
      4 C          -3.3363    0.2103   -0.8361 C.ar    1  LIG1        0.1428
      5 C          -4.5794    0.2283   -0.1724 C.ar    1  LIG1        0.1143
      6 N          -5.0987   -0.8759    0.3855 N.ar    1  LIG1       -0.2482
      7 H          -1.6446   -1.0016   -1.3534 H       1  LIG1        0.0655
      8 H          -2.5911   -3.0374   -0.2292 H       1  LIG1        0.0636
      9 C          -5.0488   -3.2132    1.0342 C.3     1  LIG1       -0.0223
     10 H          -4.4590   -4.1225    0.8919 H       1  LIG1        0.0292
     11 H          -6.0525   -3.3817    0.6318 H       1  LIG1        0.0292
     12 H          -5.1605   -3.0410    2.1102 H       1  LIG1        0.0292
     13 O          -2.8168    1.2906   -1.4881 O.3     1  LIG1       -0.5046
     14 H          -3.4811    1.9960   -1.4979 H       1  LIG1        0.2922
     15 C          -4.9786    2.6681    0.4815 C.ar    1  LIG1        0.0477
     16 C          -5.4141    1.4664   -0.1226 C.ar    1  LIG1        0.0284
     17 C          -6.7066    1.4215   -0.6605 C.ar    1  LIG1       -0.0077
     18 C          -7.5073    2.5579   -0.6232 C.ar    1  LIG1        0.1355
     19 C          -6.9747    3.7173   -0.0445 C.ar    1  LIG1        0.0693
     20 N          -5.7604    3.7637    0.4969 N.ar    1  LIG1       -0.2559
     21 H          -7.0693    0.4918   -1.0923 H       1  LIG1        0.0662
     22 H          -7.5751    4.6241   -0.0166 H       1  LIG1        0.0867
     23 C          -3.6563    2.7905    1.2054 C.3     1  LIG1       -0.0217
     24 H          -3.6479    3.7317    1.7564 H       1  LIG1        0.0293
     25 H          -2.7988    2.7818    0.5240 H       1  LIG1        0.0293
     26 H          -3.5126    1.9632    1.9080 H       1  LIG1        0.0293
     27 O          -8.7752    2.6162   -1.1217 O.3     1  LIG1       -0.5052
     28 H          -9.0262    1.7464   -1.4602 H       1  LIG1        0.2922
@<TRIPOS>BOND
     1    14    13    1
     2    13     4    1
     3    28    27    1
     4     7     3    1
     5    27    18    1
     6    21    17    1
     7     3     4   ar
     8     3     2   ar
     9     4     5   ar
    10    17    18   ar
    11    17    16   ar
    12    18    19   ar
    13     2     8    1
    14     2     1   ar
    15     5    16    1
    16     5     6   ar
    17    16    15   ar
    18    19    22    1
    19    19    20   ar
    20     1     6   ar
    21     1     9    1
    22    15    20   ar
    23    15    23    1
    24    25    23    1
    25    11     9    1
    26    10     9    1
    27     9    12    1
    28    23    24    1
    29    23    26    1
