@<TRIPOS>MOLECULE
mol_data/opt/b3lyp/geoms/mol2/6if6if-4if6if.out
 55 58 0 0 0
SMALL
GASTEIGER

@<TRIPOS>ATOM
      1 C          -4.0471   -2.0757    0.6077 C.ar    1  LIG1        0.0392
      2 C          -3.0664   -2.3276   -0.3617 C.ar    1  LIG1       -0.0372
      3 C          -2.8211   -1.3809   -1.3483 C.ar    1  LIG1       -0.0164
      4 C          -3.5480   -0.1908   -1.3353 C.ar    1  LIG1        0.1428
      5 C          -4.4833    0.0155   -0.3017 C.ar    1  LIG1        0.1143
      6 N          -4.7358   -0.9260    0.6209 N.ar    1  LIG1       -0.2482
      7 H          -2.0951   -1.5487   -2.1373 H       1  LIG1        0.0655
      8 H          -2.5142   -3.2622   -0.3509 H       1  LIG1        0.0636
      9 C          -4.3721   -3.0720    1.6932 C.3     1  LIG1       -0.0223
     10 H          -3.8811   -4.0329    1.5184 H       1  LIG1        0.0292
     11 H          -5.4522   -3.2354    1.7522 H       1  LIG1        0.0292
     12 H          -4.0509   -2.6974    2.6715 H       1  LIG1        0.0292
     13 O          -3.3301    0.7044   -2.3420 O.3     1  LIG1       -0.5046
     14 H          -3.9896    1.4113   -2.2772 H       1  LIG1        0.2922
     15 C          -4.7356    2.5558   -0.0870 C.ar    1  LIG1        0.0484
     16 C          -5.2954    1.2659   -0.2258 C.ar    1  LIG1        0.0284
     17 C          -6.6898    1.1637   -0.2351 C.ar    1  LIG1       -0.0070
     18 C          -7.4827    2.3029   -0.1607 C.ar    1  LIG1        0.1434
     19 C          -6.8488    3.5646   -0.0803 C.ar    1  LIG1        0.1129
     20 N          -5.5127    3.6472   -0.0287 N.ar    1  LIG1       -0.2476
     21 H          -7.1460    0.1777   -0.2869 H       1  LIG1        0.0662
     22 C          -3.2498    2.7912    0.0733 C.3     1  LIG1       -0.0217
     23 H          -3.0879    3.8342    0.3478 H       1  LIG1        0.0293
     24 H          -2.6887    2.5849   -0.8442 H       1  LIG1        0.0293
     25 H          -2.8314    2.1467    0.8532 H       1  LIG1        0.0293
     26 O          -8.8478    2.2402   -0.1593 O.3     1  LIG1       -0.5046
     27 H          -9.1178    1.3122   -0.1265 H       1  LIG1        0.2922
     28 C          -7.3251    5.8686    0.8779 C.ar    1  LIG1       -0.0404
     29 C          -8.0819    7.0424    0.8052 C.ar    1  LIG1       -0.0469
     30 C          -7.6176    4.8418   -0.0470 C.ar    1  LIG1        0.0103
     31 C          -9.1054    7.2557   -0.1272 C.ar    1  LIG1        0.0257
     32 H          -7.8812    7.8339    1.5224 H       1  LIG1        0.0628
     33 C          -8.6377    5.0379   -0.9877 C.ar    1  LIG1       -0.0100
     34 C          -9.3684    6.2227   -1.0419 C.ar    1  LIG1        0.1252
     35 H          -8.8610    4.2483   -1.6999 H       1  LIG1        0.0661
     36 C          -6.2621    5.7447    1.9453 C.3     1  LIG1       -0.0391
     37 H          -6.3827    6.5335    2.6932 H       1  LIG1        0.0278
     38 H          -5.2575    5.8190    1.5205 H       1  LIG1        0.0278
     39 H          -6.3124    4.7799    2.4592 H       1  LIG1        0.0278
     40 O         -10.3387    6.4274   -1.9880 O.3     1  LIG1       -0.5061
     41 H         -10.4127    5.6339   -2.5341 H       1  LIG1        0.2922
     42 C         -11.2294    8.6505    0.1204 C.ar    1  LIG1        0.0462
     43 C          -9.8413    8.5516   -0.1475 C.ar    1  LIG1        0.0101
     44 C          -9.1280    9.7269   -0.3907 C.ar    1  LIG1       -0.0091
     45 C          -9.7951   10.9516   -0.3858 C.ar    1  LIG1        0.1355
     46 C         -11.1662   10.9479   -0.1295 C.ar    1  LIG1        0.0693
     47 N         -11.8577    9.8339    0.1223 N.ar    1  LIG1       -0.2559
     48 H          -8.0632    9.6979   -0.5979 H       1  LIG1        0.0661
     49 H         -11.7265   11.8851   -0.1200 H       1  LIG1        0.0867
     50 C         -12.0772    7.4452    0.4411 C.3     1  LIG1       -0.0218
     51 H         -11.5955    6.8004    1.1834 H       1  LIG1        0.0293
     52 H         -12.2452    6.8386   -0.4546 H       1  LIG1        0.0293
     53 H         -13.0414    7.7801    0.8267 H       1  LIG1        0.0293
     54 O          -9.0778   12.0884   -0.6324 O.3     1  LIG1       -0.5052
     55 H          -9.6756   12.8477   -0.6038 H       1  LIG1        0.2922
@<TRIPOS>BOND
     1    41    40    1
     2    13    14    1
     3    13     4    1
     4     7     3    1
     5    40    34    1
     6    35    33    1
     7     3     4   ar
     8     3     2   ar
     9     4     5   ar
    10    34    33   ar
    11    34    31   ar
    12    33    30   ar
    13    24    22    1
    14    54    55    1
    15    54    45    1
    16    48    44    1
    17    52    50    1
    18    44    45   ar
    19    44    43   ar
    20    45    46   ar
    21     2     8    1
    22     2     1   ar
    23     5    16    1
    24     5     6   ar
    25    21    17    1
    26    17    16   ar
    27    17    18   ar
    28    16    15   ar
    29    18    26    1
    30    18    19   ar
    31    26    27    1
    32    43    31    1
    33    43    42   ar
    34    46    49    1
    35    46    47   ar
    36    31    29   ar
    37    15    20   ar
    38    15    22    1
    39    19    30    1
    40    19    20   ar
    41    30    28   ar
    42    22    23    1
    43    22    25    1
    44    42    47   ar
    45    42    50    1
    46    50    53    1
    47    50    51    1
    48     1     6   ar
    49     1     9    1
    50    29    28   ar
    51    29    32    1
    52    28    36    1
    53    10     9    1
    54    38    36    1
    55     9    11    1
    56     9    12    1
    57    36    39    1
    58    36    37    1
