@<TRIPOS>MOLECULE
mol_data/opt/b3lyp/geoms/mol2/6if6if6if-6if-.out
 54 57 0 0 0
SMALL
GASTEIGER

@<TRIPOS>ATOM
      1 C          -4.4334   -2.3422   -0.0930 C.ar    1  LIG1        0.0392
      2 C          -3.0328   -2.3093   -0.1424 C.ar    1  LIG1       -0.0372
      3 C          -2.3778   -1.0849   -0.1663 C.ar    1  LIG1       -0.0164
      4 C          -3.1344    0.0874   -0.1544 C.ar    1  LIG1        0.1428
      5 C          -4.5411   -0.0228   -0.1225 C.ar    1  LIG1        0.1143
      6 N          -5.1553   -1.2142   -0.0821 N.ar    1  LIG1       -0.2482
      7 H          -1.2953   -1.0135   -0.1905 H       1  LIG1        0.0655
      8 H          -2.4644   -3.2341   -0.1543 H       1  LIG1        0.0636
      9 C          -5.2018   -3.6399   -0.0428 C.3     1  LIG1       -0.0223
     10 H          -4.5419   -4.5031   -0.1622 H       1  LIG1        0.0292
     11 H          -5.9601   -3.6680   -0.8312 H       1  LIG1        0.0292
     12 H          -5.7280   -3.7415    0.9128 H       1  LIG1        0.0292
     13 O          -2.4661    1.2753   -0.1649 O.3     1  LIG1       -0.5046
     14 H          -3.1060    1.9977   -0.0800 H       1  LIG1        0.2922
     15 C          -6.4102    1.4361    0.8254 C.ar    1  LIG1        0.0484
     16 C          -5.4022    1.1970   -0.1436 C.ar    1  LIG1        0.0284
     17 C          -5.2412    2.1384   -1.1642 C.ar    1  LIG1       -0.0070
     18 C          -6.0459    3.2779   -1.2015 C.ar    1  LIG1        0.1434
     19 C          -6.9875    3.4638   -0.1758 C.ar    1  LIG1        0.1144
     20 N          -7.1649    2.5387    0.7831 N.ar    1  LIG1       -0.2475
     21 H          -4.5294    1.9783   -1.9688 H       1  LIG1        0.0662
     22 C          -6.6878    0.4823    1.9601 C.3     1  LIG1       -0.0217
     23 H          -5.7790    0.2663    2.5325 H       1  LIG1        0.0293
     24 H          -7.0563   -0.4756    1.5842 H       1  LIG1        0.0293
     25 H          -7.4292    0.9287    2.6241 H       1  LIG1        0.0293
     26 O          -5.8878    4.1325   -2.2521 O.3     1  LIG1       -0.5046
     27 H          -6.5930    4.7965   -2.2223 H       1  LIG1        0.2922
     28 C          -7.4285    5.9859   -0.0848 C.ar    1  LIG1        0.0484
     29 C          -7.8892    4.6510   -0.1407 C.ar    1  LIG1        0.0284
     30 C          -9.2716    4.4415   -0.1083 C.ar    1  LIG1       -0.0070
     31 C         -10.1484    5.5191   -0.0755 C.ar    1  LIG1        0.1434
     32 C          -9.6126    6.8279   -0.0843 C.ar    1  LIG1        0.1144
     33 N          -8.2868    7.0158   -0.0714 N.ar    1  LIG1       -0.2475
     34 H          -9.6501    3.4220   -0.0954 H       1  LIG1        0.0662
     35 C          -5.9640    6.3453    0.0394 C.3     1  LIG1       -0.0217
     36 H          -5.8826    7.4136    0.2423 H       1  LIG1        0.0293
     37 H          -5.3934    6.1220   -0.8680 H       1  LIG1        0.0293
     38 H          -5.4926    5.7906    0.8575 H       1  LIG1        0.0293
     39 O         -11.5042    5.3543   -0.0354 O.3     1  LIG1       -0.5046
     40 H         -11.7033    4.4133    0.0650 H       1  LIG1        0.2922
     41 C         -10.2374    9.1570    0.7308 C.ar    1  LIG1        0.0477
     42 C         -10.4770    8.0405   -0.1056 C.ar    1  LIG1        0.0284
     43 C         -11.5518    8.1042   -1.0011 C.ar    1  LIG1       -0.0077
     44 C         -12.3360    9.2517   -1.0628 C.ar    1  LIG1        0.1355
     45 C         -12.0154   10.3104   -0.2095 C.ar    1  LIG1        0.0693
     46 N         -11.0071   10.2555    0.6594 N.ar    1  LIG1       -0.2559
     47 H         -11.7714    7.2569   -1.6448 H       1  LIG1        0.0662
     48 H         -12.6085   11.2220   -0.2382 H       1  LIG1        0.0867
     49 C          -9.1422    9.2025    1.7685 C.3     1  LIG1       -0.0217
     50 H          -9.3476   10.0292    2.4506 H       1  LIG1        0.0293
     51 H          -8.1640    9.3583    1.3049 H       1  LIG1        0.0293
     52 H          -9.0766    8.2702    2.3371 H       1  LIG1        0.0293
     53 O         -13.3968    9.4028   -1.9106 O.3     1  LIG1       -0.5052
     54 H         -13.5120    8.5906   -2.4212 H       1  LIG1        0.2922
@<TRIPOS>BOND
     1    54    53    1
     2    26    27    1
     3    26    18    1
     4    21    17    1
     5    53    44    1
     6    47    43    1
     7    18    17   ar
     8    18    19   ar
     9    17    16   ar
    10    44    43   ar
    11    44    45   ar
    12    43    42   ar
    13    37    35    1
    14    11     9    1
    15    48    45    1
    16    45    46   ar
    17     7     3    1
    18    19    29    1
    19    19    20   ar
    20     3     4   ar
    21     3     2   ar
    22    13     4    1
    23    13    14    1
    24    10     9    1
    25     4     5   ar
    26     8     2    1
    27    16     5    1
    28    16    15   ar
    29     2     1   ar
    30    29    30   ar
    31    29    28   ar
    32     5     6   ar
    33    30    34    1
    34    30    31   ar
    35    42    32    1
    36    42    41   ar
    37     1     6   ar
    38     1     9    1
    39    28    33   ar
    40    28    35    1
    41    32    31   ar
    42    32    33   ar
    43    31    39    1
    44     9    12    1
    45    39    40    1
    46    35    36    1
    47    35    38    1
    48    46    41   ar
    49    41    49    1
    50    20    15   ar
    51    15    22    1
    52    51    49    1
    53    24    22    1
    54    49    52    1
    55    49    50    1
    56    22    23    1
    57    22    25    1
