@<TRIPOS>MOLECULE
mol_data/opt/b3lyp/geoms/mol2/6if6if6if6if.out
 54 57 0 0 0
SMALL
GASTEIGER

@<TRIPOS>ATOM
      1 C          -3.6294   -1.7708   -1.1436 C.ar    1  LIG1        0.0392
      2 C          -2.8848   -2.2020   -0.0371 C.ar    1  LIG1       -0.0372
      3 C          -3.0235   -1.5451    1.1788 C.ar    1  LIG1       -0.0164
      4 C          -3.8940   -0.4582    1.2648 C.ar    1  LIG1        0.1428
      5 C          -4.5968   -0.0683    0.1046 C.ar    1  LIG1        0.1143
      6 N          -4.4638   -0.7267   -1.0558 N.ar    1  LIG1       -0.2482
      7 H          -2.4777   -1.8549    2.0640 H       1  LIG1        0.0655
      8 H          -2.2107   -3.0482   -0.1280 H       1  LIG1        0.0636
      9 C          -3.5387   -2.4550   -2.4854 C.3     1  LIG1       -0.0223
     10 H          -2.7771   -3.2390   -2.4866 H       1  LIG1        0.0292
     11 H          -3.2963   -1.7317   -3.2700 H       1  LIG1        0.0292
     12 H          -4.4988   -2.9093   -2.7533 H       1  LIG1        0.0292
     13 O          -4.0230    0.1597    2.4733 O.3     1  LIG1       -0.5046
     14 H          -4.7089    0.8406    2.4063 H       1  LIG1        0.2922
     15 C          -6.8688    1.0235   -0.2929 C.ar    1  LIG1        0.0484
     16 C          -5.5166    1.1080    0.1269 C.ar    1  LIG1        0.0284
     17 C          -5.0475    2.3462    0.5731 C.ar    1  LIG1       -0.0070
     18 C          -5.8915    3.4586    0.5788 C.ar    1  LIG1        0.1434
     19 C          -7.2117    3.2942    0.1222 C.ar    1  LIG1        0.1144
     20 N          -7.6646    2.0965   -0.2825 N.ar    1  LIG1       -0.2475
     21 H          -4.0175    2.4758    0.8927 H       1  LIG1        0.0662
     22 C          -7.4907   -0.2665   -0.7658 C.3     1  LIG1       -0.0217
     23 H          -7.3603   -1.0679   -0.0301 H       1  LIG1        0.0293
     24 H          -7.0203   -0.6094   -1.6909 H       1  LIG1        0.0293
     25 H          -8.5563   -0.1060   -0.9350 H       1  LIG1        0.0293
     26 O          -5.3805    4.6362    1.0342 O.3     1  LIG1       -0.5046
     27 H          -6.0845    5.3020    1.0408 H       1  LIG1        0.2922
     28 C          -9.4355    4.4169    0.6737 C.ar    1  LIG1        0.0484
     29 C          -8.1564    4.4473    0.0616 C.ar    1  LIG1        0.0284
     30 C          -7.7852    5.6096   -0.6202 C.ar    1  LIG1       -0.0070
     31 C          -8.6671    6.6888   -0.7026 C.ar    1  LIG1        0.1434
     32 C          -9.9261    6.5675   -0.0874 C.ar    1  LIG1        0.1144
     33 N         -10.2685    5.4578    0.5860 N.ar    1  LIG1       -0.2475
     34 H          -6.8264    5.6845   -1.1254 H       1  LIG1        0.0662
     35 C          -9.9314    3.2284    1.4586 C.3     1  LIG1       -0.0217
     36 H          -9.2157    2.9303    2.2325 H       1  LIG1        0.0293
     37 H         -10.0696    2.3612    0.8076 H       1  LIG1        0.0293
     38 H         -10.8811    3.4859    1.9294 H       1  LIG1        0.0293
     39 O          -8.2478    7.7979   -1.3722 O.3     1  LIG1       -0.5046
     40 H          -8.9318    8.4813   -1.3063 H       1  LIG1        0.2922
     41 C         -11.5272    8.2367    0.9851 C.ar    1  LIG1        0.0477
     42 C         -10.9317    7.6677   -0.1695 C.ar    1  LIG1        0.0284
     43 C         -11.3108    8.1567   -1.4246 C.ar    1  LIG1       -0.0077
     44 C         -12.2608    9.1764   -1.5097 C.ar    1  LIG1        0.1355
     45 C         -12.7946    9.6695   -0.3187 C.ar    1  LIG1        0.0693
     46 N         -12.4370    9.2145    0.8846 N.ar    1  LIG1       -0.2559
     47 H         -10.9082    7.7318   -2.3397 H       1  LIG1        0.0662
     48 H         -13.5420   10.4647   -0.3385 H       1  LIG1        0.0867
     49 C         -11.1753    7.7922    2.3824 C.3     1  LIG1       -0.0217
     50 H         -10.0933    7.8170    2.5525 H       1  LIG1        0.0293
     51 H         -11.4981    6.7625    2.5580 H       1  LIG1        0.0293
     52 H         -11.6647    8.4551    3.0971 H       1  LIG1        0.0293
     53 O         -12.6178    9.6304   -2.7443 O.3     1  LIG1       -0.5052
     54 H         -13.2972   10.3118   -2.6489 H       1  LIG1        0.2922
@<TRIPOS>BOND
     1    11     9    1
     2    12     9    1
     3    53    54    1
     4    53    44    1
     5    10     9    1
     6     9     1    1
     7    47    43    1
     8    24    22    1
     9    44    43   ar
    10    44    45   ar
    11    43    42   ar
    12    39    40    1
    13    39    31    1
    14     1     6   ar
    15     1     2   ar
    16    34    30    1
    17     6     5   ar
    18    25    22    1
    19    22    15    1
    20    22    23    1
    21    31    30   ar
    22    31    32   ar
    23    30    29   ar
    24    48    45    1
    25    45    46   ar
    26    15    20   ar
    27    15    16   ar
    28    20    19   ar
    29    42    32    1
    30    42    41   ar
    31     8     2    1
    32    32    33   ar
    33     2     3   ar
    34    29    19    1
    35    29    28   ar
    36     5    16    1
    37     5     4   ar
    38    19    18   ar
    39    16    17   ar
    40    17    18   ar
    41    17    21    1
    42    18    26    1
    43    33    28   ar
    44    28    35    1
    45    37    35    1
    46    46    41   ar
    47    41    49    1
    48    26    27    1
    49     3     4   ar
    50     3     7    1
    51     4    13    1
    52    35    38    1
    53    35    36    1
    54    49    50    1
    55    49    51    1
    56    49    52    1
    57    14    13    1
