@<TRIPOS>MOLECULE
mol_data/opt/b3lyp/geoms/mol2/6if6if-6if6if-.out
 54 57 0 0 0
SMALL
GASTEIGER

@<TRIPOS>ATOM
      1 C          -4.2611   -2.1738    0.4338 C.ar    1  LIG1        0.0392
      2 C          -2.9921   -2.2682   -0.1544 C.ar    1  LIG1       -0.0372
      3 C          -2.4602   -1.1677   -0.8144 C.ar    1  LIG1       -0.0164
      4 C          -3.2001    0.0138   -0.8575 C.ar    1  LIG1        0.1428
      5 C          -4.4477    0.0503   -0.2039 C.ar    1  LIG1        0.1143
      6 N          -4.9639   -1.0332    0.3965 N.ar    1  LIG1       -0.2482
      7 H          -1.4961   -1.2067   -1.3110 H       1  LIG1        0.0655
      8 H          -2.4361   -3.1995   -0.1079 H       1  LIG1        0.0636
      9 C          -4.8983   -3.3387    1.1503 C.3     1  LIG1       -0.0223
     10 H          -4.3441   -4.2662    0.9840 H       1  LIG1        0.0292
     11 H          -5.9287   -3.4792    0.8112 H       1  LIG1        0.0292
     12 H          -4.9384   -3.1546    2.2298 H       1  LIG1        0.0292
     13 O          -2.6832    1.0689   -1.5516 O.3     1  LIG1       -0.5046
     14 H          -3.3541    1.7661   -1.6024 H       1  LIG1        0.2922
     15 C          -4.8844    2.5134    0.3485 C.ar    1  LIG1        0.0484
     16 C          -5.2939    1.2812   -0.2104 C.ar    1  LIG1        0.0284
     17 C          -6.5770    1.2109   -0.7610 C.ar    1  LIG1       -0.0070
     18 C          -7.3999    2.3319   -0.7733 C.ar    1  LIG1        0.1434
     19 C          -6.9176    3.5270   -0.2009 C.ar    1  LIG1        0.1144
     20 N          -5.6879    3.5879    0.3269 N.ar    1  LIG1       -0.2475
     21 H          -6.9209    0.2697   -1.1837 H       1  LIG1        0.0662
     22 C          -3.5657    2.6907    1.0678 C.3     1  LIG1       -0.0217
     23 H          -3.5473    3.6818    1.5223 H       1  LIG1        0.0293
     24 H          -2.7034    2.5964    0.3999 H       1  LIG1        0.0293
     25 H          -3.4438    1.9370    1.8529 H       1  LIG1        0.0293
     26 O          -8.6374    2.3295   -1.3495 O.3     1  LIG1       -0.5046
     27 H          -8.8320    1.4414   -1.6783 H       1  LIG1        0.2922
     28 C          -8.9729    4.9264    0.4212 C.ar    1  LIG1        0.0484
     29 C          -7.7055    4.7936   -0.1935 C.ar    1  LIG1        0.0284
     30 C          -7.1385    5.9214   -0.7857 C.ar    1  LIG1       -0.0070
     31 C          -7.8302    7.1295   -0.7856 C.ar    1  LIG1        0.1434
     32 C          -9.0778    7.1854   -0.1401 C.ar    1  LIG1        0.1144
     33 N          -9.6207    6.0979    0.4283 N.ar    1  LIG1       -0.2475
     34 H          -6.1663    5.8655   -1.2629 H       1  LIG1        0.0662
     35 C          -9.6595    3.7930    1.1427 C.3     1  LIG1       -0.0217
     36 H          -8.9525    3.2059    1.7373 H       1  LIG1        0.0293
     37 H         -10.1371    3.1080    0.4353 H       1  LIG1        0.0293
     38 H         -10.4248    4.2045    1.8025 H       1  LIG1        0.0293
     39 O          -7.2647    8.1917   -1.4309 O.3     1  LIG1       -0.5046
     40 H          -7.9068    8.9169   -1.4522 H       1  LIG1        0.2922
     41 C          -9.4276    9.6368    0.4984 C.ar    1  LIG1        0.0477
     42 C          -9.8843    8.4419   -0.1041 C.ar    1  LIG1        0.0284
     43 C         -11.1710    8.4247   -0.6570 C.ar    1  LIG1       -0.0077
     44 C         -11.9447    9.5800   -0.6360 C.ar    1  LIG1        0.1355
     45 C         -11.3914   10.7302   -0.0589 C.ar    1  LIG1        0.0693
     46 N         -10.1827   10.7510    0.4970 N.ar    1  LIG1       -0.2559
     47 H         -11.5506    7.5015   -1.0883 H       1  LIG1        0.0662
     48 H         -11.9698   11.6515   -0.0444 H       1  LIG1        0.0867
     49 C          -8.1135    9.7299    1.2414 C.3     1  LIG1       -0.0217
     50 H          -8.0770   10.6866    1.7638 H       1  LIG1        0.0293
     51 H          -7.2454    9.6644    0.5770 H       1  LIG1        0.0293
     52 H          -8.0160    8.9198    1.9716 H       1  LIG1        0.0293
     53 O         -13.2053    9.6647   -1.1504 O.3     1  LIG1       -0.5052
     54 H         -13.4719    8.7981   -1.4853 H       1  LIG1        0.2922
@<TRIPOS>BOND
     1    27    26    1
     2    14    13    1
     3    13     4    1
     4    54    53    1
     5    40    39    1
     6    39    31    1
     7    26    18    1
     8     7     3    1
     9    34    30    1
    10    21    17    1
    11    53    44    1
    12    47    43    1
    13     4     3   ar
    14     4     5   ar
    15     3     2   ar
    16    30    31   ar
    17    30    29   ar
    18    31    32   ar
    19    18    17   ar
    20    18    19   ar
    21    17    16   ar
    22    43    44   ar
    23    43    42   ar
    24    44    45   ar
    25    16     5    1
    26    16    15   ar
    27     5     6   ar
    28    19    29    1
    29    19    20   ar
    30    29    28   ar
    31     2     8    1
    32     2     1   ar
    33    32    42    1
    34    32    33   ar
    35    42    41   ar
    36    45    48    1
    37    45    46   ar
    38    20    15   ar
    39    15    22    1
    40     6     1   ar
    41    24    22    1
    42    28    33   ar
    43    28    35    1
    44     1     9    1
    45    37    35    1
    46    46    41   ar
    47    41    49    1
    48    51    49    1
    49    11     9    1
    50    10     9    1
    51    22    23    1
    52    22    25    1
    53    35    36    1
    54    35    38    1
    55     9    12    1
    56    49    50    1
    57    49    52    1
