@<TRIPOS>MOLECULE
mol_data/opt/b3lyp/geoms/mol2/6if6if-6if-6if-.out
 54 57 0 0 0
SMALL
GASTEIGER

@<TRIPOS>ATOM
      1 C          -3.8622   -1.9513    0.8247 C.ar    1  LIG1        0.0392
      2 C          -3.2984   -2.4694   -0.3500 C.ar    1  LIG1       -0.0372
      3 C          -3.4391   -1.7709   -1.5420 C.ar    1  LIG1       -0.0164
      4 C          -4.1251   -0.5563   -1.5342 C.ar    1  LIG1        0.1428
      5 C          -4.6241   -0.0735   -0.3083 C.ar    1  LIG1        0.1143
      6 N          -4.5132   -0.7803    0.8277 N.ar    1  LIG1       -0.2482
      7 H          -3.0479   -2.1512   -2.4800 H       1  LIG1        0.0655
      8 H          -2.7697   -3.4174   -0.3305 H       1  LIG1        0.0636
      9 C          -3.7517   -2.6696    2.1470 C.3     1  LIG1       -0.0223
     10 H          -3.4317   -3.7068    2.0171 H       1  LIG1        0.0292
     11 H          -4.7128   -2.6587    2.6684 H       1  LIG1        0.0292
     12 H          -3.0262   -2.1707    2.7999 H       1  LIG1        0.0292
     13 O          -4.2971    0.0889   -2.7245 O.3     1  LIG1       -0.5046
     14 H          -4.8938    0.8399   -2.5885 H       1  LIG1        0.2922
     15 C          -4.8202    2.4661   -0.5900 C.ar    1  LIG1        0.0484
     16 C          -5.3704    1.2165   -0.2242 C.ar    1  LIG1        0.0284
     17 C          -6.6684    1.2086    0.2954 C.ar    1  LIG1       -0.0070
     18 C          -7.3970    2.3879    0.3950 C.ar    1  LIG1        0.1434
     19 C          -6.7999    3.5910   -0.0468 C.ar    1  LIG1        0.1144
     20 N          -5.5407    3.5934   -0.5037 N.ar    1  LIG1       -0.2475
     21 H          -7.0950    0.2673    0.6343 H       1  LIG1        0.0662
     22 C          -3.3819    2.6314   -1.0286 C.3     1  LIG1       -0.0217
     23 H          -3.1514    3.6960   -1.0799 H       1  LIG1        0.0293
     24 H          -3.1855    2.1873   -2.0099 H       1  LIG1        0.0293
     25 H          -2.6988    2.1515   -0.3202 H       1  LIG1        0.0293
     26 O          -8.6653    2.4196    0.9041 O.3     1  LIG1       -0.5046
     27 H          -8.8852    1.5449    1.2527 H       1  LIG1        0.2922
     28 C          -6.9248    6.0928    0.4275 C.ar    1  LIG1        0.0484
     29 C          -7.5222    4.8919   -0.0252 C.ar    1  LIG1        0.0284
     30 C          -8.8383    4.9654   -0.4904 C.ar    1  LIG1       -0.0070
     31 C          -9.5141    6.1804   -0.5252 C.ar    1  LIG1        0.1434
     32 C          -8.8464    7.3364   -0.0741 C.ar    1  LIG1        0.1144
     33 N          -7.5919    7.2521    0.3928 N.ar    1  LIG1       -0.2475
     34 H          -9.3428    4.0631   -0.8251 H       1  LIG1        0.0662
     35 C          -5.5292    6.1656    0.9979 C.3     1  LIG1       -0.0217
     36 H          -5.4131    7.1208    1.5123 H       1  LIG1        0.0293
     37 H          -4.7764    6.0920    0.2084 H       1  LIG1        0.0293
     38 H          -5.3312    5.3488    1.6983 H       1  LIG1        0.0293
     39 O         -10.8025    6.2804   -0.9788 O.3     1  LIG1       -0.5046
     40 H         -11.1366    5.3920   -1.1620 H       1  LIG1        0.2922
     41 C          -9.4079    9.5713    1.0064 C.ar    1  LIG1        0.0477
     42 C          -9.4807    8.6838   -0.0939 C.ar    1  LIG1        0.0284
     43 C         -10.1547    9.1128   -1.2438 C.ar    1  LIG1       -0.0077
     44 C         -10.7128   10.3866   -1.2862 C.ar    1  LIG1        0.1355
     45 C         -10.5805   11.1979   -0.1570 C.ar    1  LIG1        0.0693
     46 N          -9.9562   10.7962    0.9496 N.ar    1  LIG1       -0.2559
     47 H         -10.2399    8.4488   -2.0994 H       1  LIG1        0.0662
     48 H         -11.0048   12.1998   -0.1622 H       1  LIG1        0.0867
     49 C          -8.7460    9.2187    2.3163 C.3     1  LIG1       -0.0217
     50 H          -9.0640    9.9408    3.0703 H       1  LIG1        0.0293
     51 H          -7.6563    9.2496    2.2290 H       1  LIG1        0.0293
     52 H          -9.0057    8.2086    2.6470 H       1  LIG1        0.0293
     53 O         -11.3796   10.8878   -2.3696 O.3     1  LIG1       -0.5052
     54 H         -11.4030   10.2153   -3.0630 H       1  LIG1        0.2922
@<TRIPOS>BOND
     1    54    53    1
     2    13    14    1
     3    13     4    1
     4     7     3    1
     5    53    44    1
     6    47    43    1
     7    24    22    1
     8     3     4   ar
     9     3     2   ar
    10     4     5   ar
    11    44    43   ar
    12    44    45   ar
    13    43    42   ar
    14    40    39    1
    15    23    22    1
    16    22    15    1
    17    22    25    1
    18    39    31    1
    19    34    30    1
    20    15    20   ar
    21    15    16   ar
    22    31    30   ar
    23    31    32   ar
    24    20    19   ar
    25    30    29   ar
    26     2     8    1
    27     2     1   ar
    28     5    16    1
    29     5     6   ar
    30    16    17   ar
    31    48    45    1
    32    45    46   ar
    33    42    32    1
    34    42    41   ar
    35    32    33   ar
    36    19    29    1
    37    19    18   ar
    38    29    28   ar
    39    37    35    1
    40    17    18   ar
    41    17    21    1
    42    33    28   ar
    43    18    26    1
    44    28    35    1
    45     1     6   ar
    46     1     9    1
    47    26    27    1
    48    46    41   ar
    49    35    36    1
    50    35    38    1
    51    41    49    1
    52    10     9    1
    53     9    11    1
    54     9    12    1
    55    51    49    1
    56    49    52    1
    57    49    50    1
