@<TRIPOS>MOLECULE
mol_data/opt/b3lyp/geoms/mol2/6if6if.out
 28 29 0 0 0
SMALL
GASTEIGER

@<TRIPOS>ATOM
      1 C          -4.4169   -2.0500   -0.5074 C.ar    1  LIG1        0.0392
      2 C          -3.1154   -2.0775    0.0156 C.ar    1  LIG1       -0.0372
      3 C          -2.5778   -0.9258    0.5728 C.ar    1  LIG1       -0.0164
      4 C          -3.3458    0.2402    0.5878 C.ar    1  LIG1        0.1428
      5 C          -4.6411    0.1969    0.0326 C.ar    1  LIG1        0.1143
      6 N          -5.1510   -0.9308   -0.4862 N.ar    1  LIG1       -0.2482
      7 H          -1.5820   -0.9069    1.0037 H       1  LIG1        0.0655
      8 H          -2.5367   -2.9960   -0.0077 H       1  LIG1        0.0636
      9 C          -5.0430   -3.2676   -1.1423 C.3     1  LIG1       -0.0223
     10 H          -4.6384   -4.1937   -0.7239 H       1  LIG1        0.0292
     11 H          -4.8580   -3.2840   -2.2235 H       1  LIG1        0.0292
     12 H          -6.1254   -3.2532   -0.9971 H       1  LIG1        0.0292
     13 O          -2.8012    1.3537    1.1552 O.3     1  LIG1       -0.5046
     14 H          -3.4658    2.0588    1.1616 H       1  LIG1        0.2922
     15 C          -6.8012    1.4465    0.5568 C.ar    1  LIG1        0.0477
     16 C          -5.4974    1.4204   -0.0005 C.ar    1  LIG1        0.0284
     17 C          -5.0092    2.5832   -0.6065 C.ar    1  LIG1       -0.0077
     18 C          -5.8106    3.7256   -0.6538 C.ar    1  LIG1        0.1355
     19 C          -7.0812    3.6534   -0.0825 C.ar    1  LIG1        0.0693
     20 N          -7.5565    2.5514    0.5028 N.ar    1  LIG1       -0.2559
     21 H          -4.0285    2.6043   -1.0729 H       1  LIG1        0.0662
     22 H          -7.7414    4.5226   -0.0982 H       1  LIG1        0.0867
     23 C          -7.4123    0.2512    1.2438 C.3     1  LIG1       -0.0217
     24 H          -6.7446   -0.1582    2.0095 H       1  LIG1        0.0293
     25 H          -7.6022   -0.5544    0.5293 H       1  LIG1        0.0293
     26 H          -8.3510    0.5535    1.7102 H       1  LIG1        0.0293
     27 O          -5.3143    4.8444   -1.2554 O.3     1  LIG1       -0.5052
     28 H          -5.9839    5.5415   -1.2301 H       1  LIG1        0.2922
@<TRIPOS>BOND
     1    11     9    1
     2    27    28    1
     3    27    18    1
     4     9    12    1
     5     9    10    1
     6     9     1    1
     7    21    17    1
     8    18    17   ar
     9    18    19   ar
    10    17    16   ar
    11     1     6   ar
    12     1     2   ar
    13     6     5   ar
    14    22    19    1
    15    19    20   ar
    16     8     2    1
    17    16     5    1
    18    16    15   ar
    19     2     3   ar
    20     5     4   ar
    21    20    15   ar
    22    25    23    1
    23    15    23    1
    24     3     4   ar
    25     3     7    1
    26     4    13    1
    27    13    14    1
    28    23    26    1
    29    23    24    1
