@<TRIPOS>MOLECULE
mol_data/opt/b3lyp/geoms/mol2/6if6if-6if-6if.out
 54 57 0 0 0
SMALL
GASTEIGER

@<TRIPOS>ATOM
      1 C          -4.1310   -2.0918    0.6735 C.ar    1  LIG1        0.0392
      2 C          -3.1131   -2.3587   -0.2529 C.ar    1  LIG1       -0.0372
      3 C          -2.8115   -1.4165   -1.2278 C.ar    1  LIG1       -0.0164
      4 C          -3.5201   -0.2152   -1.2459 C.ar    1  LIG1        0.1428
      5 C          -4.4944    0.0062   -0.2522 C.ar    1  LIG1        0.1143
      6 N          -4.8012   -0.9317    0.6578 N.ar    1  LIG1       -0.2482
      7 H          -2.0554   -1.5958   -1.9852 H       1  LIG1        0.0655
      8 H          -2.5762   -3.3016   -0.2186 H       1  LIG1        0.0636
      9 C          -4.5178   -3.0833    1.7431 C.3     1  LIG1       -0.0223
     10 H          -4.0421   -4.0544    1.5833 H       1  LIG1        0.0292
     11 H          -5.6027   -3.2226    1.7616 H       1  LIG1        0.0292
     12 H          -4.2247   -2.7185    2.7338 H       1  LIG1        0.0292
     13 O          -3.2463    0.6740   -2.2443 O.3     1  LIG1       -0.5046
     14 H          -3.8972    1.3907   -2.2106 H       1  LIG1        0.2922
     15 C          -4.7161    2.5519   -0.0571 C.ar    1  LIG1        0.0484
     16 C          -5.2895    1.2686   -0.2069 C.ar    1  LIG1        0.0284
     17 C          -6.6843    1.1855   -0.2575 C.ar    1  LIG1       -0.0070
     18 C          -7.4632    2.3356   -0.2119 C.ar    1  LIG1        0.1434
     19 C          -6.8142    3.5886   -0.1192 C.ar    1  LIG1        0.1144
     20 N          -5.4793    3.6537   -0.0301 N.ar    1  LIG1       -0.2475
     21 H          -7.1519    0.2056   -0.3187 H       1  LIG1        0.0662
     22 C          -3.2336    2.7685    0.1518 C.3     1  LIG1       -0.0217
     23 H          -3.0684    3.8068    0.4414 H       1  LIG1        0.0293
     24 H          -2.6457    2.5640   -0.7491 H       1  LIG1        0.0293
     25 H          -2.8482    2.1116    0.9383 H       1  LIG1        0.0293
     26 O          -8.8287    2.2922   -0.2525 O.3     1  LIG1       -0.5046
     27 H          -9.1143    1.3692   -0.2140 H       1  LIG1        0.2922
     28 C          -7.2605    5.9352    0.7735 C.ar    1  LIG1        0.0484
     29 C          -7.5661    4.8731   -0.1117 C.ar    1  LIG1        0.0284
     30 C          -8.5974    5.0788   -1.0327 C.ar    1  LIG1       -0.0070
     31 C          -9.2868    6.2867   -1.0686 C.ar    1  LIG1        0.1434
     32 C          -8.9450    7.2825   -0.1363 C.ar    1  LIG1        0.1144
     33 N          -7.9449    7.0855    0.7359 N.ar    1  LIG1       -0.2475
     34 H          -8.8557    4.2937   -1.7379 H       1  LIG1        0.0662
     35 C          -6.1850    5.8603    1.8300 C.3     1  LIG1       -0.0217
     36 H          -6.3296    6.6854    2.5291 H       1  LIG1        0.0293
     37 H          -5.1888    5.9365    1.3857 H       1  LIG1        0.0293
     38 H          -6.2135    4.9123    2.3753 H       1  LIG1        0.0293
     39 O         -10.2551    6.5489   -1.9973 O.3     1  LIG1       -0.5046
     40 H         -10.3744    5.7693   -2.5561 H       1  LIG1        0.2922
     41 C         -11.0001    8.7979    0.0797 C.ar    1  LIG1        0.0477
     42 C          -9.6071    8.6182   -0.0961 C.ar    1  LIG1        0.0284
     43 C          -8.7923    9.7493   -0.1783 C.ar    1  LIG1       -0.0077
     44 C          -9.3704   11.0153   -0.1352 C.ar    1  LIG1        0.1355
     45 C         -10.7572   11.0958    0.0050 C.ar    1  LIG1        0.0693
     46 N         -11.5420   10.0240    0.1235 N.ar    1  LIG1       -0.2559
     47 H          -7.7171    9.6463   -0.2737 H       1  LIG1        0.0662
     48 H         -11.2502   12.0698    0.0373 H       1  LIG1        0.0867
     49 C         -11.9609    7.6509    0.2739 C.3     1  LIG1       -0.0217
     50 H         -11.5300    6.8629    0.8993 H       1  LIG1        0.0293
     51 H         -12.2289    7.1958   -0.6847 H       1  LIG1        0.0293
     52 H         -12.8695    8.0273    0.7469 H       1  LIG1        0.0293
     53 O          -8.5603   12.1118   -0.2315 O.3     1  LIG1       -0.5052
     54 H          -9.1055   12.9085   -0.1797 H       1  LIG1        0.2922
@<TRIPOS>BOND
     1    40    39    1
     2    13    14    1
     3    13     4    1
     4    39    31    1
     5     7     3    1
     6    34    30    1
     7     4     3   ar
     8     4     5   ar
     9     3     2   ar
    10    31    30   ar
    11    31    32   ar
    12    30    29   ar
    13    24    22    1
    14    51    49    1
    15    21    17    1
    16    47    43    1
    17    17    18   ar
    18    17    16   ar
    19     2     8    1
    20     2     1   ar
    21    26    27    1
    22    26    18    1
    23     5    16    1
    24     5     6   ar
    25    53    54    1
    26    53    44    1
    27    18    19   ar
    28    16    15   ar
    29    43    44   ar
    30    43    42   ar
    31    32    42    1
    32    32    33   ar
    33    44    45   ar
    34    19    29    1
    35    19    20   ar
    36    29    28   ar
    37    42    41   ar
    38    15    20   ar
    39    15    22    1
    40    45    48    1
    41    45    46   ar
    42    41    46   ar
    43    41    49    1
    44    22    23    1
    45    22    25    1
    46    49    52    1
    47    49    50    1
    48     6     1   ar
    49     1     9    1
    50    33    28   ar
    51    28    35    1
    52    37    35    1
    53    10     9    1
    54     9    11    1
    55     9    12    1
    56    35    38    1
    57    35    36    1
