@<TRIPOS>MOLECULE
mol_data/opt/b3lyp/geoms/mol2/6if6if-6if.out
 41 43 0 0 0
SMALL
GASTEIGER

@<TRIPOS>ATOM
      1 C          -4.3749   -2.1220    0.2771 C.ar    1  LIG1        0.0392
      2 C          -3.0300   -2.1648   -0.1156 C.ar    1  LIG1       -0.0372
      3 C          -2.4117   -1.0054   -0.5667 C.ar    1  LIG1       -0.0164
      4 C          -3.1455    0.1800   -0.5983 C.ar    1  LIG1        0.1428
      5 C          -4.4795    0.1581   -0.1449 C.ar    1  LIG1        0.1143
      6 N          -5.0729   -0.9781    0.2520 N.ar    1  LIG1       -0.2482
      7 H          -1.3821   -0.9999   -0.9097 H       1  LIG1        0.0655
      8 H          -2.4802   -3.1003   -0.0817 H       1  LIG1        0.0636
      9 C          -5.1063   -3.3508    0.7587 C.3     1  LIG1       -0.0223
     10 H          -4.5070   -4.2550    0.6240 H       1  LIG1        0.0292
     11 H          -6.0498   -3.4721    0.2181 H       1  LIG1        0.0292
     12 H          -5.3558   -3.2606    1.8217 H       1  LIG1        0.0292
     13 O          -2.5365    1.2987   -1.0885 O.3     1  LIG1       -0.5046
     14 H          -3.1973    2.0031   -1.1655 H       1  LIG1        0.2922
     15 C          -5.0110    2.5527    0.5904 C.ar    1  LIG1        0.0484
     16 C          -5.3226    1.3909   -0.1517 C.ar    1  LIG1        0.0284
     17 C          -6.5054    1.3931   -0.8973 C.ar    1  LIG1       -0.0070
     18 C          -7.3216    2.5187   -0.9185 C.ar    1  LIG1        0.1434
     19 C          -6.9382    3.6431   -0.1579 C.ar    1  LIG1        0.1144
     20 N          -5.8059    3.6333    0.5576 N.ar    1  LIG1       -0.2475
     21 H          -6.7757    0.5051   -1.4642 H       1  LIG1        0.0662
     22 C          -3.8195    2.6387    1.5185 C.3     1  LIG1       -0.0217
     23 H          -3.8991    3.5558    2.1032 H       1  LIG1        0.0293
     24 H          -2.8654    2.6505    0.9811 H       1  LIG1        0.0293
     25 H          -3.7904    1.7820    2.1997 H       1  LIG1        0.0293
     26 O          -8.4561    2.5907   -1.6732 O.3     1  LIG1       -0.5046
     27 H          -8.5976    1.7428   -2.1156 H       1  LIG1        0.2922
     28 C          -9.0726    4.9934    0.2687 C.ar    1  LIG1        0.0477
     29 C          -7.7220    4.9125   -0.1460 C.ar    1  LIG1        0.0284
     30 C          -7.0617    6.0874   -0.5098 C.ar    1  LIG1       -0.0077
     31 C          -7.7556    7.2948   -0.5010 C.ar    1  LIG1        0.1355
     32 C          -9.0954    7.2745   -0.1086 C.ar    1  LIG1        0.0693
     33 N          -9.7262    6.1644    0.2764 N.ar    1  LIG1       -0.2559
     34 H          -6.0162    6.0667   -0.7970 H       1  LIG1        0.0662
     35 H          -9.6771    8.1986   -0.0927 H       1  LIG1        0.0867
     36 C          -9.8543    3.8024    0.7655 C.3     1  LIG1       -0.0217
     37 H          -9.2379    3.1407    1.3819 H       1  LIG1        0.0293
     38 H         -10.2374    3.2079   -0.0698 H       1  LIG1        0.0293
     39 H         -10.7005    4.1564    1.3565 H       1  LIG1        0.0293
     40 O          -7.0976    8.4325   -0.8734 O.3     1  LIG1       -0.5052
     41 H          -7.7053    9.1817   -0.8099 H       1  LIG1        0.2922
@<TRIPOS>BOND
     1    27    26    1
     2    26    18    1
     3    21    17    1
     4    14    13    1
     5    13     4    1
     6    18    17   ar
     7    18    19   ar
     8     7     3    1
     9    17    16   ar
    10    40    41    1
    11    40    31    1
    12    34    30    1
    13     4     3   ar
    14     4     5   ar
    15     3     2   ar
    16    30    31   ar
    17    30    29   ar
    18    31    32   ar
    19    19    29    1
    20    19    20   ar
    21    16     5    1
    22    16    15   ar
    23    29    28   ar
    24     5     6   ar
    25     2     8    1
    26     2     1   ar
    27    32    35    1
    28    32    33   ar
    29    38    36    1
    30    11     9    1
    31     6     1   ar
    32    28    33   ar
    33    28    36    1
    34     1     9    1
    35    20    15   ar
    36    15    22    1
    37    10     9    1
    38     9    12    1
    39    36    39    1
    40    36    37    1
    41    24    22    1
    42    22    23    1
    43    22    25    1
