@<TRIPOS>MOLECULE
mol_data/opt/b3lyp/geoms/mol2/6if6if6if.out
 41 43 0 0 0
SMALL
GASTEIGER

@<TRIPOS>ATOM
      1 C          -4.0947   -1.9819   -0.8933 C.ar    1  LIG1        0.0392
      2 C          -3.0341   -2.1665    0.0045 C.ar    1  LIG1       -0.0372
      3 C          -2.7913   -1.2100    0.9818 C.ar    1  LIG1       -0.0164
      4 C          -3.6040   -0.0773    1.0365 C.ar    1  LIG1        0.1428
      5 C          -4.6403    0.0514    0.0871 C.ar    1  LIG1        0.1143
      6 N          -4.8715   -0.8921   -0.8371 N.ar    1  LIG1       -0.2482
      7 H          -1.9914   -1.3204    1.7068 H       1  LIG1        0.0655
      8 H          -2.4127   -3.0545   -0.0583 H       1  LIG1        0.0636
      9 C          -4.4207   -2.9918   -1.9658 C.3     1  LIG1       -0.0223
     10 H          -3.7200   -3.8306   -1.9549 H       1  LIG1        0.0292
     11 H          -4.3897   -2.5260   -2.9559 H       1  LIG1        0.0292
     12 H          -5.4331   -3.3868   -1.8293 H       1  LIG1        0.0292
     13 O          -3.3547    0.8380    2.0158 O.3     1  LIG1       -0.5046
     14 H          -4.0363    1.5257    1.9834 H       1  LIG1        0.2922
     15 C          -6.9343    1.1688    0.1180 C.ar    1  LIG1        0.0484
     16 C          -5.5196    1.2583    0.0731 C.ar    1  LIG1        0.0284
     17 C          -4.9472    2.5317    0.0111 C.ar    1  LIG1       -0.0070
     18 C          -5.7588    3.6671   -0.0257 C.ar    1  LIG1        0.1434
     19 C          -7.1536    3.4886   -0.0007 C.ar    1  LIG1        0.1144
     20 N          -7.6983    2.2645    0.0828 N.ar    1  LIG1       -0.2475
     21 H          -3.8701    2.6626   -0.0417 H       1  LIG1        0.0662
     22 C          -7.6602   -0.1497    0.2126 C.3     1  LIG1       -0.0217
     23 H          -7.2835   -0.7574    1.0424 H       1  LIG1        0.0293
     24 H          -7.5176   -0.7384   -0.6975 H       1  LIG1        0.0293
     25 H          -8.7241    0.0406    0.3608 H       1  LIG1        0.0293
     26 O          -5.1449    4.8819   -0.0778 O.3     1  LIG1       -0.5046
     27 H          -5.8205    5.5758   -0.0425 H       1  LIG1        0.2922
     28 C          -9.0857    4.8889    0.8975 C.ar    1  LIG1        0.0477
     29 C          -8.0795    4.6574   -0.0748 C.ar    1  LIG1        0.0284
     30 C          -7.9614    5.5585   -1.1389 C.ar    1  LIG1       -0.0077
     31 C          -8.8320    6.6470   -1.2211 C.ar    1  LIG1        0.1355
     32 C          -9.7930    6.7889   -0.2197 C.ar    1  LIG1        0.0693
     33 N          -9.9120    5.9387    0.8031 N.ar    1  LIG1       -0.2559
     34 H          -7.2280    5.4070   -1.9257 H       1  LIG1        0.0662
     35 H         -10.4953    7.6240   -0.2458 H       1  LIG1        0.0867
     36 C          -9.2841    3.9869    2.0896 C.3     1  LIG1       -0.0217
     37 H          -8.3509    3.8424    2.6449 H       1  LIG1        0.0293
     38 H          -9.6213    2.9949    1.7773 H       1  LIG1        0.0293
     39 H         -10.0277    4.4342    2.7506 H       1  LIG1        0.0293
     40 O          -8.7009    7.5064   -2.2712 O.3     1  LIG1       -0.5052
     41 H          -9.3809    8.1911   -2.2087 H       1  LIG1        0.2922
@<TRIPOS>BOND
     1    11     9    1
     2    40    41    1
     3    40    31    1
     4     9    10    1
     5     9    12    1
     6     9     1    1
     7    34    30    1
     8    31    30   ar
     9    31    32   ar
    10    30    29   ar
    11     1     6   ar
    12     1     2   ar
    13     6     5   ar
    14    24    22    1
    15    35    32    1
    16    32    33   ar
    17    26    27    1
    18    26    18    1
    19    29    19    1
    20    29    28   ar
    21     8     2    1
    22    21    17    1
    23    18    19   ar
    24    18    17   ar
    25    19    20   ar
    26     2     3   ar
    27    17    16   ar
    28    16     5    1
    29    16    15   ar
    30    20    15   ar
    31     5     4   ar
    32    15    22    1
    33    22    25    1
    34    22    23    1
    35    33    28   ar
    36    28    36    1
    37     3     4   ar
    38     3     7    1
    39     4    13    1
    40    38    36    1
    41    14    13    1
    42    36    37    1
    43    36    39    1
