@<TRIPOS>MOLECULE
mol_data/opt/b3lyp/geoms/mol2/6ig.out
 15 15 0 0 0
SMALL
GASTEIGER

@<TRIPOS>ATOM
      1 C          -4.5618   -2.0350   -0.0062 C.ar    1  LIG1        0.0383
      2 C          -3.1648   -2.0024    0.0787 C.ar    1  LIG1       -0.0396
      3 C          -2.5020   -0.7788    0.0840 C.ar    1  LIG1       -0.0454
      4 C          -3.2530    0.3972    0.0037 C.ar    1  LIG1        0.0229
      5 C          -4.6468    0.2673   -0.0782 C.ar    1  LIG1        0.0410
      6 N          -5.2828   -0.9033   -0.0833 N.ar    1  LIG1       -0.2591
      7 H          -1.4184   -0.7413    0.1495 H       1  LIG1        0.0629
      8 H          -2.6003   -2.9277    0.1403 H       1  LIG1        0.0636
      9 H          -5.2763    1.1544   -0.1426 H       1  LIG1        0.0841
     10 C          -5.3349   -3.3291   -0.0162 C.3     1  LIG1       -0.0224
     11 H          -4.6732   -4.1965    0.0499 H       1  LIG1        0.0292
     12 H          -5.9287   -3.4127   -0.9322 H       1  LIG1        0.0292
     13 H          -6.0369   -3.3616    0.8233 H       1  LIG1        0.0292
     14 S          -2.4172    1.9739    0.0093 S.3     1  LIG1       -0.1412
     15 H          -3.5256    2.7349   -0.0810 H       1  LIG1        0.1072
@<TRIPOS>BOND
     1    12    10    1
     2     9     5    1
     3     6     5   ar
     4     6     1   ar
     5    15    14    1
     6     5     4   ar
     7    10     1    1
     8    10    11    1
     9    10    13    1
    10     1     2   ar
    11     4    14    1
    12     4     3   ar
    13     2     3   ar
    14     2     8    1
    15     3     7    1
