@<TRIPOS>MOLECULE
mol_data/opt/b3lyp/geoms/mol2/6ih6ih-6ih.out
 44 46 0 0 0
SMALL
GASTEIGER

@<TRIPOS>ATOM
      1 C          -4.4004   -2.1238    0.3217 C.ar    1  LIG1        0.0390
      2 C          -3.0641   -2.1917   -0.0877 C.ar    1  LIG1       -0.0389
      3 C          -2.4296   -1.0410   -0.5378 C.ar    1  LIG1       -0.0373
      4 C          -3.1257    0.1741   -0.5639 C.ar    1  LIG1        0.0510
      5 C          -4.4644    0.1620   -0.0979 C.ar    1  LIG1        0.0936
      6 N          -5.0711   -0.9630    0.3039 N.ar    1  LIG1       -0.2500
      7 H          -1.3977   -1.0774   -0.8793 H       1  LIG1        0.0637
      8 H          -2.5305   -3.1371   -0.0658 H       1  LIG1        0.0636
      9 C          -5.1565   -3.3370    0.8047 C.3     1  LIG1       -0.0223
     10 H          -4.5580   -4.2474    0.7122 H       1  LIG1        0.0292
     11 H          -6.0807   -3.4680    0.2329 H       1  LIG1        0.0292
     12 H          -5.4454   -3.2212    1.8550 H       1  LIG1        0.0292
     13 N          -2.5079    1.3451   -1.0047 N.pl3   1  LIG1       -0.3563
     14 H          -1.7408    1.2043   -1.6481 H       1  LIG1        0.1424
     15 H          -3.1445    2.0656   -1.3194 H       1  LIG1        0.1424
     16 C          -5.0263    2.5312    0.6985 C.ar    1  LIG1        0.0482
     17 C          -5.3078    1.3974   -0.0981 C.ar    1  LIG1        0.0249
     18 C          -6.4538    1.4237   -0.8927 C.ar    1  LIG1       -0.0280
     19 C          -7.2884    2.5460   -0.9176 C.ar    1  LIG1        0.0516
     20 C          -6.9259    3.6345   -0.0894 C.ar    1  LIG1        0.0936
     21 N          -5.8237    3.6082    0.6721 N.ar    1  LIG1       -0.2493
     22 H          -6.6969    0.5547   -1.4987 H       1  LIG1        0.0644
     23 C          -3.8642    2.5861    1.6615 C.3     1  LIG1       -0.0217
     24 H          -3.9450    3.4968    2.2567 H       1  LIG1        0.0293
     25 H          -2.8999    2.5827    1.1420 H       1  LIG1        0.0293
     26 H          -3.8691    1.7215    2.3342 H       1  LIG1        0.0293
     27 N          -8.4373    2.5654   -1.7070 N.pl3   1  LIG1       -0.3563
     28 H          -8.7766    3.4876   -1.9462 H       1  LIG1        0.1424
     29 H          -8.4245    1.9380   -2.4992 H       1  LIG1        0.1424
     30 C          -9.0510    4.9709    0.4047 C.ar    1  LIG1        0.0475
     31 C          -7.7172    4.9036   -0.0611 C.ar    1  LIG1        0.0249
     32 C          -7.0943    6.0838   -0.4744 C.ar    1  LIG1       -0.0286
     33 C          -7.7925    7.2956   -0.4605 C.ar    1  LIG1        0.0435
     34 C          -9.1251    7.2442   -0.0208 C.ar    1  LIG1        0.0485
     35 N          -9.7242    6.1338    0.4043 N.ar    1  LIG1       -0.2577
     36 H          -6.0561    6.0509   -0.7946 H       1  LIG1        0.0643
     37 H          -9.7236    8.1561   -0.0017 H       1  LIG1        0.0848
     38 C          -9.7766    3.7781    0.9798 C.3     1  LIG1       -0.0217
     39 H          -9.1906    3.3058    1.7757 H       1  LIG1        0.0293
     40 H          -9.9682    3.0095    0.2236 H       1  LIG1        0.0293
     41 H         -10.7286    4.1138    1.3940 H       1  LIG1        0.0293
     42 N          -7.1889    8.5041   -0.8100 N.pl3   1  LIG1       -0.3568
     43 H          -6.3983    8.4256   -1.4348 H       1  LIG1        0.1424
     44 H          -7.8273    9.2318   -1.1015 H       1  LIG1        0.1424
@<TRIPOS>BOND
     1    29    27    1
     2    28    27    1
     3    27    19    1
     4    14    13    1
     5    22    18    1
     6    43    42    1
     7    15    13    1
     8    44    42    1
     9    13     4    1
    10    19    18   ar
    11    19    20   ar
    12    18    17   ar
    13     7     3    1
    14    42    33    1
    15    36    32    1
    16     4     3   ar
    17     4     5   ar
    18     3     2   ar
    19    32    33   ar
    20    32    31   ar
    21    33    34   ar
    22    17     5    1
    23    17    16   ar
    24     5     6   ar
    25    20    31    1
    26    20    21   ar
    27     2     8    1
    28     2     1   ar
    29    31    30   ar
    30    34    37    1
    31    34    35   ar
    32    40    38    1
    33    11     9    1
    34     6     1   ar
    35     1     9    1
    36    35    30   ar
    37    30    38    1
    38    21    16   ar
    39    16    23    1
    40    10     9    1
    41     9    12    1
    42    38    41    1
    43    38    39    1
    44    25    23    1
    45    23    24    1
    46    23    26    1
