@<TRIPOS>MOLECULE
mol_data/opt/b3lyp/geoms/mol2/6ih6dl12dh-6hh.out
 53 56 0 0 0
SMALL
GASTEIGER

@<TRIPOS>ATOM
      1 C          -4.3199   -2.1532    0.5958 C.ar    1  LIG1        0.0390
      2 C          -3.0196   -2.2710    0.0859 C.ar    1  LIG1       -0.0389
      3 C          -2.4306   -1.1825   -0.5418 C.ar    1  LIG1       -0.0373
      4 C          -3.1302    0.0265   -0.6576 C.ar    1  LIG1        0.0510
      5 C          -4.4282    0.0653   -0.0901 C.ar    1  LIG1        0.0946
      6 N          -4.9867   -0.9986    0.5014 N.ar    1  LIG1       -0.2499
      7 H          -1.4293   -1.2633   -0.9583 H       1  LIG1        0.0637
      8 H          -2.4809   -3.2097    0.1703 H       1  LIG1        0.0636
      9 C          -5.0334   -3.2969    1.2704 C.3     1  LIG1       -0.0223
     10 H          -4.4545   -4.2224    1.2127 H       1  LIG1        0.0292
     11 H          -6.0087   -3.4604    0.8026 H       1  LIG1        0.0292
     12 H          -5.2166   -3.0705    2.3264 H       1  LIG1        0.0292
     13 N          -2.5414    1.1360   -1.2736 N.pl3   1  LIG1       -0.3563
     14 H          -1.7761    0.8993   -1.8924 H       1  LIG1        0.1424
     15 H          -3.1940    1.7634   -1.7264 H       1  LIG1        0.1424
     16 C          -6.6460    1.2484   -0.4361 C.ar    1  LIG1        0.1503
     17 C          -5.2710    1.2899   -0.1129 C.ar    1  LIG1        0.0415
     18 C          -4.7511    2.5420    0.2470 C.ar    1  LIG1       -0.0057
     19 C          -5.5750    3.6637    0.2836 C.ar    1  LIG1        0.1497
     20 C          -6.9416    3.5204   -0.0775 C.ar    1  LIG1        0.1502
     21 N          -7.4390    2.3265   -0.4223 N.ar    1  LIG1       -0.2288
     22 H          -3.7081    2.6188    0.5270 H       1  LIG1        0.0662
     23 N          -7.8683   -0.8953   -1.2707 N.1     1  LIG1       -0.1893
     24 C          -7.2965    0.0349   -0.8722 C.1     1  LIG1        0.1198
     25 O          -5.1845    4.8956    0.6602 O.3     1  LIG1       -0.4928
     26 C          -3.8106    5.1552    0.9417 C.3     1  LIG1        0.0789
     27 H          -3.7513    6.2297    1.1106 H       1  LIG1        0.0660
     28 H          -3.4833    4.6141    1.8366 H       1  LIG1        0.0660
     29 H          -3.1748    4.8820    0.0922 H       1  LIG1        0.0660
     30 C          -7.8852    4.6312   -0.0845 C.ar    1  LIG1        0.1766
     31 C          -7.8330    6.0233   -0.1088 C.ar    1  LIG1        0.1203
     32 C          -9.1899    6.4945   -0.1893 C.ar    1  LIG1        0.0894
     33 C          -9.9939    5.3700   -0.1975 C.ar    1  LIG1        0.1609
     34 O          -9.1847    4.2615   -0.1366 O.2     1  LIG1       -0.4498
     35 N          -5.9480    7.7765   -0.2369 N.1     1  LIG1       -0.1907
     36 C          -6.7398    6.9246   -0.1616 C.1     1  LIG1        0.1049
     37 N          -9.5716    7.8316   -0.2223 N.pl3   1  LIG1       -0.3540
     38 H          -8.8125    8.4571   -0.4674 H       1  LIG1        0.1425
     39 H         -10.3906    8.0063   -0.7924 H       1  LIG1        0.1425
     40 C         -12.0279    3.9835   -0.7849 C.ar    1  LIG1        0.1270
     41 C         -11.4292    5.1691   -0.2551 C.ar    1  LIG1        0.0603
     42 C         -12.2869    6.1795    0.2079 C.ar    1  LIG1       -0.0255
     43 C         -13.6739    6.0406    0.1240 C.ar    1  LIG1        0.0437
     44 C         -14.1460    4.8435   -0.4319 C.ar    1  LIG1        0.0503
     45 N         -13.3611    3.8555   -0.8573 N.ar    1  LIG1       -0.2382
     46 H         -11.8608    7.0653    0.6710 H       1  LIG1        0.0644
     47 H         -15.2195    4.6756   -0.5246 H       1  LIG1        0.0849
     48 N         -11.2995    2.9398   -1.3110 N.pl3   1  LIG1       -0.3426
     49 H         -11.8568    2.1208   -1.5052 H       1  LIG1        0.1437
     50 H         -10.3617    2.7709   -0.9791 H       1  LIG1        0.1437
     51 N         -14.5528    7.0054    0.6454 N.pl3   1  LIG1       -0.3568
     52 H         -14.1937    7.9510    0.6126 H       1  LIG1        0.1424
     53 H         -15.4808    6.9677    0.2428 H       1  LIG1        0.1424
@<TRIPOS>BOND
     1    14    13    1
     2    15    13    1
     3    49    48    1
     4    48    50    1
     5    48    40    1
     6    13     4    1
     7    23    24    3
     8     7     3    1
     9    24    16    1
    10    45    40   ar
    11    45    44   ar
    12    39    37    1
    13    40    41   ar
    14     4     3   ar
    15     4     5   ar
    16     3     2   ar
    17    47    44    1
    18    38    37    1
    19    16    21   ar
    20    16    17   ar
    21    44    43   ar
    22    21    20   ar
    23    41    33    1
    24    41    42   ar
    25    35    36    3
    26    37    32    1
    27    33    32   ar
    28    33    34   ar
    29    32    31   ar
    30    36    31    1
    31    34    30   ar
    32    17     5    1
    33    17    18   ar
    34    31    30   ar
    35     5     6   ar
    36    30    20    1
    37    20    19   ar
    38     2     8    1
    39     2     1   ar
    40    29    26    1
    41    43    42   ar
    42    43    51    1
    43    42    46    1
    44    53    51    1
    45    18    19   ar
    46    18    22    1
    47    19    25    1
    48     6     1   ar
    49     1     9    1
    50    52    51    1
    51    25    26    1
    52    11     9    1
    53    26    27    1
    54    26    28    1
    55    10     9    1
    56     9    12    1
