@<TRIPOS>MOLECULE
mol_data/opt/b3lyp/geoms/mol2/6ih6ih6ih6ih.out
 58 61 0 0 0
SMALL
GASTEIGER

@<TRIPOS>ATOM
      1 C          -3.4997   -1.5857    1.3105 C.ar    1  LIG1        0.0390
      2 C          -2.8296   -2.1535    0.2212 C.ar    1  LIG1       -0.0389
      3 C          -3.0322   -1.6324   -1.0501 C.ar    1  LIG1       -0.0373
      4 C          -3.8921   -0.5415   -1.2303 C.ar    1  LIG1        0.0510
      5 C          -4.5182   -0.0158   -0.0710 C.ar    1  LIG1        0.0936
      6 N          -4.3228   -0.5414    1.1452 N.ar    1  LIG1       -0.2500
      7 H          -2.5277   -2.0664   -1.9104 H       1  LIG1        0.0637
      8 H          -2.1637   -2.9989    0.3660 H       1  LIG1        0.0636
      9 C          -3.3435   -2.1126    2.7157 C.3     1  LIG1       -0.0223
     10 H          -2.5995   -2.9123    2.7651 H       1  LIG1        0.0292
     11 H          -4.2948   -2.5060    3.0905 H       1  LIG1        0.0292
     12 H          -3.0388   -1.3112    3.3960 H       1  LIG1        0.0292
     13 N          -4.0799    0.0177   -2.4974 N.pl3   1  LIG1       -0.3563
     14 H          -3.9201   -0.6248   -3.2624 H       1  LIG1        0.1424
     15 H          -4.9482    0.5252   -2.6070 H       1  LIG1        0.1424
     16 C          -6.7498    1.1388    0.3609 C.ar    1  LIG1        0.0482
     17 C          -5.4294    1.1665   -0.1478 C.ar    1  LIG1        0.0249
     18 C          -4.9770    2.3565   -0.7195 C.ar    1  LIG1       -0.0280
     19 C          -5.7929    3.4941   -0.7674 C.ar    1  LIG1        0.0516
     20 C          -7.0903    3.3757   -0.2188 C.ar    1  LIG1        0.0936
     21 N          -7.5308    2.2224    0.3058 N.ar    1  LIG1       -0.2493
     22 H          -3.9692    2.4070   -1.1244 H       1  LIG1        0.0644
     23 C          -7.3608   -0.0952    0.9780 C.3     1  LIG1       -0.0217
     24 H          -6.8553   -0.3566    1.9115 H       1  LIG1        0.0293
     25 H          -7.2710   -0.9650    0.3174 H       1  LIG1        0.0293
     26 H          -8.4167    0.0944    1.1771 H       1  LIG1        0.0293
     27 N          -5.3071    4.6926   -1.2973 N.pl3   1  LIG1       -0.3563
     28 H          -4.5620    4.5790   -1.9719 H       1  LIG1        0.1424
     29 H          -6.0226    5.3289   -1.6238 H       1  LIG1        0.1424
     30 C          -9.3455    4.4534   -0.7212 C.ar    1  LIG1        0.0482
     31 C          -8.0370    4.5301   -0.1871 C.ar    1  LIG1        0.0249
     32 C          -7.6447    5.7329    0.4028 C.ar    1  LIG1       -0.0280
     33 C          -8.5241    6.8200    0.4868 C.ar    1  LIG1        0.0516
     34 C          -9.8150    6.6440   -0.0618 C.ar    1  LIG1        0.0936
     35 N         -10.1794    5.4960   -0.6513 N.ar    1  LIG1       -0.2493
     36 H          -6.6443    5.8237    0.8186 H       1  LIG1        0.0644
     37 C          -9.8776    3.2183   -1.4057 C.3     1  LIG1       -0.0217
     38 H          -9.9986    2.3976   -0.6934 H       1  LIG1        0.0293
     39 H          -9.1944    2.8603   -2.1840 H       1  LIG1        0.0293
     40 H         -10.8431    3.4525   -1.8568 H       1  LIG1        0.0293
     41 N          -8.1356    7.9985    1.1288 N.pl3   1  LIG1       -0.3563
     42 H          -7.1371    8.1594    1.1411 H       1  LIG1        0.1424
     43 H          -8.6524    8.8215    0.8483 H       1  LIG1        0.1424
     44 C         -11.4911    8.2094   -1.1698 C.ar    1  LIG1        0.0475
     45 C         -10.8431    7.7272   -0.0077 C.ar    1  LIG1        0.0249
     46 C         -11.1998    8.2756    1.2280 C.ar    1  LIG1       -0.0286
     47 C         -12.1856    9.2674    1.3069 C.ar    1  LIG1        0.0435
     48 C         -12.7631    9.6723    0.0947 C.ar    1  LIG1        0.0485
     49 N         -12.4264    9.1675   -1.0922 N.ar    1  LIG1       -0.2577
     50 H         -10.7203    7.9142    2.1343 H       1  LIG1        0.0643
     51 H         -13.5349   10.4432    0.0928 H       1  LIG1        0.0848
     52 C         -11.1723    7.6994   -2.5537 C.3     1  LIG1       -0.0217
     53 H         -11.4870    6.6587   -2.6706 H       1  LIG1        0.0293
     54 H         -10.0960    7.7266   -2.7585 H       1  LIG1        0.0293
     55 H         -11.6910    8.3205   -3.2858 H       1  LIG1        0.0293
     56 N         -12.6180    9.7815    2.5296 N.pl3   1  LIG1       -0.3568
     57 H         -11.9433    9.7330    3.2807 H       1  LIG1        0.1424
     58 H         -13.0610   10.6888    2.4793 H       1  LIG1        0.1424
@<TRIPOS>BOND
     1    55    52    1
     2    14    13    1
     3    54    52    1
     4    53    52    1
     5    15    13    1
     6    52    44    1
     7    13     4    1
     8    39    37    1
     9    28    27    1
    10     7     3    1
    11    40    37    1
    12    29    27    1
    13    37    30    1
    14    37    38    1
    15    27    19    1
    16     4     3   ar
    17     4     5   ar
    18    44    49   ar
    19    44    45   ar
    20    22    18    1
    21    49    48   ar
    22     3     2   ar
    23    19    18   ar
    24    19    20   ar
    25    30    35   ar
    26    30    31   ar
    27    18    17   ar
    28    35    34   ar
    29    20    31    1
    30    20    21   ar
    31    31    32   ar
    32    17     5    1
    33    17    16   ar
    34     5     6   ar
    35    34    45    1
    36    34    33   ar
    37    45    46   ar
    38    51    48    1
    39    48    47   ar
    40     2     8    1
    41     2     1   ar
    42    21    16   ar
    43    25    23    1
    44    16    23    1
    45    32    33   ar
    46    32    36    1
    47    33    41    1
    48    43    41    1
    49    23    26    1
    50    23    24    1
    51    41    42    1
    52     6     1   ar
    53    46    47   ar
    54    46    50    1
    55    47    56    1
    56     1     9    1
    57    58    56    1
    58    56    57    1
    59     9    10    1
    60     9    11    1
    61     9    12    1
