@<TRIPOS>MOLECULE
mol_data/opt/b3lyp/geoms/mol2/6ih6ih6ih.out
 44 46 0 0 0
SMALL
GASTEIGER

@<TRIPOS>ATOM
      1 C          -3.9999   -1.8710    1.0080 C.ar    1  LIG1        0.0390
      2 C          -2.9901   -2.1428    0.0783 C.ar    1  LIG1       -0.0389
      3 C          -2.7855   -1.2678   -0.9808 C.ar    1  LIG1       -0.0373
      4 C          -3.5804   -0.1212   -1.1041 C.ar    1  LIG1        0.0510
      5 C          -4.5715    0.0864   -0.1106 C.ar    1  LIG1        0.0936
      6 N          -4.7643   -0.7761    0.8955 N.ar    1  LIG1       -0.2500
      7 H          -2.0119   -1.4673   -1.7188 H       1  LIG1        0.0637
      8 H          -2.3767   -3.0332    0.1784 H       1  LIG1        0.0636
      9 C          -4.2831   -2.7806    2.1781 C.3     1  LIG1       -0.0223
     10 H          -3.6352   -3.6613    2.1689 H       1  LIG1        0.0292
     11 H          -5.3250   -3.1170    2.1630 H       1  LIG1        0.0292
     12 H          -4.1320   -2.2515    3.1250 H       1  LIG1        0.0292
     13 N          -3.3654    0.7885   -2.1431 N.pl3   1  LIG1       -0.3563
     14 H          -2.9432    0.3839   -2.9688 H       1  LIG1        0.1424
     15 H          -4.1678    1.3605   -2.3721 H       1  LIG1        0.1424
     16 C          -6.8649    1.1993   -0.1151 C.ar    1  LIG1        0.0482
     17 C          -5.4530    1.2932   -0.1329 C.ar    1  LIG1        0.0249
     18 C          -4.8853    2.5680   -0.1512 C.ar    1  LIG1       -0.0280
     19 C          -5.6851    3.7177   -0.1276 C.ar    1  LIG1        0.0516
     20 C          -7.0850    3.5240   -0.0951 C.ar    1  LIG1        0.0936
     21 N          -7.6273    2.2975   -0.1043 N.ar    1  LIG1       -0.2493
     22 H          -3.8031    2.6723   -0.1708 H       1  LIG1        0.0644
     23 C          -7.5949   -0.1213   -0.1189 C.3     1  LIG1       -0.0217
     24 H          -7.4220   -0.6659    0.8134 H       1  LIG1        0.0293
     25 H          -7.2519   -0.7719   -0.9312 H       1  LIG1        0.0293
     26 H          -8.6634    0.0656   -0.2371 H       1  LIG1        0.0293
     27 N          -5.1022    4.9872   -0.0928 N.pl3   1  LIG1       -0.3563
     28 H          -4.1738    5.0323   -0.4916 H       1  LIG1        0.1424
     29 H          -5.6983    5.7326   -0.4277 H       1  LIG1        0.1424
     30 C          -9.0659    4.8468   -0.9962 C.ar    1  LIG1        0.0475
     31 C          -8.0332    4.6779   -0.0435 C.ar    1  LIG1        0.0249
     32 C          -7.9189    5.6166    0.9865 C.ar    1  LIG1       -0.0286
     33 C          -8.8177    6.6872    1.0744 C.ar    1  LIG1        0.0435
     34 C          -9.8023    6.7599    0.0783 C.ar    1  LIG1        0.0485
     35 N          -9.9177    5.8796   -0.9159 N.ar    1  LIG1       -0.2577
     36 H          -7.1373    5.5019    1.7334 H       1  LIG1        0.0643
     37 H         -10.5291    7.5732    0.0931 H       1  LIG1        0.0848
     38 C          -9.2698    3.9028   -2.1555 C.3     1  LIG1       -0.0217
     39 H          -9.6008    2.9200   -1.8084 H       1  LIG1        0.0293
     40 H          -8.3422    3.7418   -2.7163 H       1  LIG1        0.0293
     41 H         -10.0226    4.3238   -2.8240 H       1  LIG1        0.0293
     42 N          -8.7787    7.5983    2.1302 N.pl3   1  LIG1       -0.3568
     43 H          -7.8760    7.7094    2.5714 H       1  LIG1        0.1424
     44 H          -9.2184    8.4891    1.9426 H       1  LIG1        0.1424
@<TRIPOS>BOND
     1    14    13    1
     2    41    38    1
     3    40    38    1
     4    15    13    1
     5    38    39    1
     6    38    30    1
     7    13     4    1
     8     7     3    1
     9     4     3   ar
    10     4     5   ar
    11    30    35   ar
    12    30    31   ar
    13     3     2   ar
    14    25    23    1
    15    35    34   ar
    16    28    27    1
    17    29    27    1
    18    26    23    1
    19    22    18    1
    20    18    17   ar
    21    18    19   ar
    22    17    16   ar
    23    17     5    1
    24    19    20   ar
    25    19    27    1
    26    23    16    1
    27    23    24    1
    28    16    21   ar
    29     5     6   ar
    30    21    20   ar
    31    20    31    1
    32    31    32   ar
    33     2     8    1
    34     2     1   ar
    35    34    37    1
    36    34    33   ar
    37     6     1   ar
    38    32    33   ar
    39    32    36    1
    40     1     9    1
    41    33    42    1
    42    44    42    1
    43    42    43    1
    44    11     9    1
    45    10     9    1
    46     9    12    1
