@<TRIPOS>MOLECULE
mol_data/opt/b3lyp/geoms/mol2/6ih6ih-6ih-6ih-.out
 58 61 0 0 0
SMALL
GASTEIGER

@<TRIPOS>ATOM
      1 C          -4.5546   -2.2841    0.1125 C.ar    1  LIG1        0.0390
      2 C          -3.1590   -2.3816    0.0781 C.ar    1  LIG1       -0.0389
      3 C          -2.3966   -1.2243   -0.0122 C.ar    1  LIG1       -0.0373
      4 C          -3.0279    0.0255   -0.0535 C.ar    1  LIG1        0.0510
      5 C          -4.4434    0.0365    0.0233 C.ar    1  LIG1        0.0936
      6 N          -5.1654   -1.0911    0.0783 N.ar    1  LIG1       -0.2500
      7 H          -1.3117   -1.2809   -0.0619 H       1  LIG1        0.0637
      8 H          -2.6757   -3.3535    0.1087 H       1  LIG1        0.0636
      9 C          -5.4440   -3.5001    0.1979 C.3     1  LIG1       -0.0223
     10 H          -4.8746   -4.4251    0.0723 H       1  LIG1        0.0292
     11 H          -6.2226   -3.4609   -0.5700 H       1  LIG1        0.0292
     12 H          -5.9533   -3.5422    1.1673 H       1  LIG1        0.0292
     13 N          -2.2832    1.2016   -0.1390 N.pl3   1  LIG1       -0.3563
     14 H          -1.3682    1.0972   -0.5560 H       1  LIG1        0.1424
     15 H          -2.7857    1.9970   -0.5106 H       1  LIG1        0.1424
     16 C          -5.1369    2.3209    0.9547 C.ar    1  LIG1        0.0482
     17 C          -5.2227    1.3116   -0.0323 C.ar    1  LIG1        0.0249
     18 C          -6.1128    1.5043   -1.0886 C.ar    1  LIG1       -0.0280
     19 C          -6.8761    2.6722   -1.1873 C.ar    1  LIG1        0.0516
     20 C          -6.7007    3.6405   -0.1696 C.ar    1  LIG1        0.0936
     21 N          -5.8583    3.4448    0.8536 N.ar    1  LIG1       -0.2493
     22 H          -6.2144    0.7264   -1.8410 H       1  LIG1        0.0644
     23 C          -4.2894    2.1803    2.1965 C.3     1  LIG1       -0.0217
     24 H          -4.5182    3.0047    2.8735 H       1  LIG1        0.0293
     25 H          -3.2190    2.1951    1.9656 H       1  LIG1        0.0293
     26 H          -4.4940    1.2336    2.7082 H       1  LIG1        0.0293
     27 N          -7.7902    2.8409   -2.2302 N.pl3   1  LIG1       -0.3563
     28 H          -8.0056    3.8044   -2.4504 H       1  LIG1        0.1424
     29 H          -7.5840    2.2976   -3.0580 H       1  LIG1        0.1424
     30 C          -6.8207    6.1848   -0.1090 C.ar    1  LIG1        0.0482
     31 C          -7.4628    4.9254   -0.1718 C.ar    1  LIG1        0.0249
     32 C          -8.8574    4.9077   -0.2207 C.ar    1  LIG1       -0.0280
     33 C          -9.5986    6.0959   -0.1836 C.ar    1  LIG1        0.0516
     34 C          -8.8695    7.3046   -0.1061 C.ar    1  LIG1        0.0936
     35 N          -7.5285    7.3185   -0.0860 N.ar    1  LIG1       -0.2493
     36 H          -9.3795    3.9555   -0.2745 H       1  LIG1        0.0644
     37 C          -5.3194    6.3334   -0.0764 C.3     1  LIG1       -0.0217
     38 H          -5.0666    7.3911   -0.1648 H       1  LIG1        0.0293
     39 H          -4.8402    5.7808   -0.8926 H       1  LIG1        0.0293
     40 H          -4.9069    5.9380    0.8560 H       1  LIG1        0.0293
     41 N         -10.9952    6.0602   -0.1795 N.pl3   1  LIG1       -0.3563
     42 H         -11.4396    6.9077   -0.5074 H       1  LIG1        0.1424
     43 H         -11.3939    5.2317   -0.6008 H       1  LIG1        0.1424
     44 C          -9.2756    9.6716   -0.9538 C.ar    1  LIG1        0.0475
     45 C          -9.5559    8.6302   -0.0374 C.ar    1  LIG1        0.0249
     46 C         -10.4911    8.8690    0.9742 C.ar    1  LIG1       -0.0286
     47 C         -11.1200   10.1160    1.0800 C.ar    1  LIG1        0.0435
     48 C         -10.7693   11.0762    0.1199 C.ar    1  LIG1        0.0485
     49 N          -9.8883   10.8607   -0.8569 N.ar    1  LIG1       -0.2577
     50 H         -10.7156    8.0857    1.6938 H       1  LIG1        0.0643
     51 H         -11.2283   12.0653    0.1499 H       1  LIG1        0.0848
     52 C          -8.2968    9.5177   -2.0918 C.3     1  LIG1       -0.0217
     53 H          -8.3786   10.3871   -2.7462 H       1  LIG1        0.0293
     54 H          -8.4898    8.6099   -2.6743 H       1  LIG1        0.0293
     55 H          -7.2714    9.4386   -1.7198 H       1  LIG1        0.0293
     56 N         -12.0005   10.4118    2.1210 N.pl3   1  LIG1       -0.3568
     57 H         -12.6374   11.1754    1.9383 H       1  LIG1        0.1424
     58 H         -12.4737    9.6153    2.5252 H       1  LIG1        0.1424
@<TRIPOS>BOND
     1    29    27    1
     2    53    52    1
     3    54    52    1
     4    28    27    1
     5    27    19    1
     6    52    55    1
     7    52    44    1
     8    22    18    1
     9    19    18   ar
    10    19    20   ar
    11    18    17   ar
    12    44    49   ar
    13    44    45   ar
    14    39    37    1
    15    49    48   ar
    16    43    41    1
    17    11     9    1
    18    14    13    1
    19    15    13    1
    20    42    41    1
    21    36    32    1
    22    32    33   ar
    23    32    31   ar
    24    33    41    1
    25    33    34   ar
    26    31    20    1
    27    31    30   ar
    28    20    21   ar
    29    38    37    1
    30    13     4    1
    31    30    35   ar
    32    30    37    1
    33    34    35   ar
    34    34    45    1
    35    37    40    1
    36     7     3    1
    37     4     3   ar
    38     4     5   ar
    39    45    46   ar
    40    17     5    1
    41    17    16   ar
    42     3     2   ar
    43     5     6   ar
    44    10     9    1
    45     2     8    1
    46     2     1   ar
    47     6     1   ar
    48     1     9    1
    49    48    51    1
    50    48    47   ar
    51     9    12    1
    52    21    16   ar
    53    16    23    1
    54    46    47   ar
    55    46    50    1
    56    47    56    1
    57    57    56    1
    58    25    23    1
    59    56    58    1
    60    23    26    1
    61    23    24    1
