@<TRIPOS>MOLECULE
mol_data/opt/b3lyp/geoms/mol2/6ih6ih-4ih6ih.out
 59 62 0 0 0
SMALL
GASTEIGER

@<TRIPOS>ATOM
      1 C          -4.4815   -2.2767   -0.0339 C.ar    1  LIG1        0.0390
      2 C          -3.0840   -2.3409   -0.0569 C.ar    1  LIG1       -0.0389
      3 C          -2.3482   -1.1638   -0.1041 C.ar    1  LIG1       -0.0373
      4 C          -3.0086    0.0713   -0.1139 C.ar    1  LIG1        0.0510
      5 C          -4.4249    0.0477   -0.0523 C.ar    1  LIG1        0.0936
      6 N          -5.1201   -1.0978   -0.0383 N.ar    1  LIG1       -0.2500
      7 H          -1.2618   -1.1934   -0.1434 H       1  LIG1        0.0637
      8 H          -2.5783   -3.3019   -0.0504 H       1  LIG1        0.0636
      9 C          -5.3434   -3.5148    0.0038 C.3     1  LIG1       -0.0223
     10 H          -4.7476   -4.4241   -0.1148 H       1  LIG1        0.0292
     11 H          -6.0960   -3.4838   -0.7902 H       1  LIG1        0.0292
     12 H          -5.8847   -3.5823    0.9541 H       1  LIG1        0.0292
     13 N          -2.2910    1.2670   -0.1549 N.pl3   1  LIG1       -0.3563
     14 H          -1.3730    1.1982   -0.5730 H       1  LIG1        0.1424
     15 H          -2.8120    2.0617   -0.5017 H       1  LIG1        0.1424
     16 C          -5.1832    2.2853    0.9390 C.ar    1  LIG1        0.0482
     17 C          -5.2322    1.3061   -0.0794 C.ar    1  LIG1        0.0249
     18 C          -6.1124    1.5125   -1.1416 C.ar    1  LIG1       -0.0280
     19 C          -6.9008    2.6657   -1.2144 C.ar    1  LIG1        0.0515
     20 C          -6.7601    3.6081   -0.1661 C.ar    1  LIG1        0.0922
     21 N          -5.9270    3.3966    0.8618 N.ar    1  LIG1       -0.2494
     22 H          -6.1870    0.7565   -1.9192 H       1  LIG1        0.0644
     23 C          -4.3504    2.1238    2.1888 C.3     1  LIG1       -0.0217
     24 H          -4.5949    2.9315    2.8805 H       1  LIG1        0.0293
     25 H          -3.2770    2.1511    1.9730 H       1  LIG1        0.0293
     26 H          -4.5554    1.1652    2.6778 H       1  LIG1        0.0293
     27 N          -7.8034    2.8433   -2.2650 N.pl3   1  LIG1       -0.3563
     28 H          -8.0681    3.8047   -2.4343 H       1  LIG1        0.1424
     29 H          -7.5599    2.3529   -3.1152 H       1  LIG1        0.1424
     30 C          -6.9113    6.1407   -0.0307 C.ar    1  LIG1       -0.0405
     31 C          -7.7276    7.2732    0.0047 C.ar    1  LIG1       -0.0487
     32 C          -7.5446    4.8824   -0.1441 C.ar    1  LIG1        0.0068
     33 C          -9.1271    7.2249   -0.0481 C.ar    1  LIG1        0.0048
     34 H          -7.2592    8.2509    0.0885 H       1  LIG1        0.0627
     35 C          -8.9407    4.8182   -0.2209 C.ar    1  LIG1       -0.0310
     36 C          -9.7490    5.9639   -0.1722 C.ar    1  LIG1        0.0330
     37 H          -9.4185    3.8455   -0.3066 H       1  LIG1        0.0643
     38 C          -5.4098    6.2913    0.0434 C.3     1  LIG1       -0.0391
     39 H          -5.1261    7.3464   -0.0083 H       1  LIG1        0.0278
     40 H          -4.9085    5.7671   -0.7784 H       1  LIG1        0.0278
     41 H          -5.0146    5.8675    0.9705 H       1  LIG1        0.0278
     42 N         -11.1405    5.8389   -0.2054 N.pl3   1  LIG1       -0.3575
     43 H         -11.6346    6.6582   -0.5327 H       1  LIG1        0.1423
     44 H         -11.4818    4.9875   -0.6295 H       1  LIG1        0.1423
     45 C         -10.7498    8.8527    1.0610 C.ar    1  LIG1        0.0461
     46 C          -9.9126    8.4945   -0.0235 C.ar    1  LIG1        0.0066
     47 C          -9.7943    9.3897   -1.0913 C.ar    1  LIG1       -0.0301
     48 C         -10.4989   10.5995   -1.0881 C.ar    1  LIG1        0.0435
     49 C         -11.3180   10.8424    0.0250 C.ar    1  LIG1        0.0485
     50 N         -11.4340   10.0078    1.0568 N.ar    1  LIG1       -0.2577
     51 H          -9.1474    9.1374   -1.9284 H       1  LIG1        0.0643
     52 H         -11.8980   11.7647    0.0791 H       1  LIG1        0.0848
     53 C         -10.8982    7.9854    2.2870 C.3     1  LIG1       -0.0218
     54 H          -9.9222    7.7272    2.7116 H       1  LIG1        0.0293
     55 H         -11.4036    7.0418    2.0538 H       1  LIG1        0.0293
     56 H         -11.4810    8.5261    3.0343 H       1  LIG1        0.0293
     57 N         -10.3559   11.5423   -2.1077 N.pl3   1  LIG1       -0.3568
     58 H         -10.0854   11.1648   -3.0057 H       1  LIG1        0.1424
     59 H         -11.1245   12.1938   -2.1939 H       1  LIG1        0.1424
@<TRIPOS>BOND
     1    29    27    1
     2    58    57    1
     3    28    27    1
     4    27    19    1
     5    59    57    1
     6    57    48    1
     7    51    47    1
     8    22    18    1
     9    19    18   ar
    10    19    20   ar
    11    18    17   ar
    12    47    48   ar
    13    47    46   ar
    14    48    49   ar
    15    11     9    1
    16    40    38    1
    17    44    42    1
    18    14    13    1
    19    43    42    1
    20    15    13    1
    21    37    35    1
    22    35    36   ar
    23    35    32   ar
    24    42    36    1
    25    36    33   ar
    26    20    32    1
    27    20    21   ar
    28    13     4    1
    29    32    30   ar
    30     7     3    1
    31    10     9    1
    32     4     3   ar
    33     4     5   ar
    34     3     2   ar
    35    17     5    1
    36    17    16   ar
    37     2     8    1
    38     2     1   ar
    39     5     6   ar
    40    33    46    1
    41    33    31   ar
    42     6     1   ar
    43     1     9    1
    44    30    31   ar
    45    30    38    1
    46    46    45   ar
    47    39    38    1
    48     9    12    1
    49    31    34    1
    50    49    52    1
    51    49    50   ar
    52    38    41    1
    53    21    16   ar
    54    16    23    1
    55    50    45   ar
    56    45    53    1
    57    25    23    1
    58    55    53    1
    59    23    26    1
    60    23    24    1
    61    53    54    1
    62    53    56    1
