@<TRIPOS>MOLECULE
mol_data/opt/b3lyp/geoms/mol2/6ih6ih-6ih-6ih.out
 58 61 0 0 0
SMALL
GASTEIGER

@<TRIPOS>ATOM
      1 C          -4.5111   -2.2758    0.0204 C.ar    1  LIG1        0.0390
      2 C          -3.1138   -2.3513   -0.0028 C.ar    1  LIG1       -0.0389
      3 C          -2.3689   -1.1811   -0.0658 C.ar    1  LIG1       -0.0373
      4 C          -3.0190    0.0595   -0.0910 C.ar    1  LIG1        0.0510
      5 C          -4.4352    0.0477   -0.0262 C.ar    1  LIG1        0.0936
      6 N          -5.1398   -1.0920    0.0020 N.ar    1  LIG1       -0.2500
      7 H          -1.2828   -1.2200   -0.1070 H       1  LIG1        0.0637
      8 H          -2.6158   -3.3161    0.0152 H       1  LIG1        0.0636
      9 C          -5.3820   -3.5068    0.0764 C.3     1  LIG1       -0.0223
     10 H          -4.7989   -4.4198   -0.0721 H       1  LIG1        0.0292
     11 H          -6.1618   -3.4601   -0.6897 H       1  LIG1        0.0292
     12 H          -5.8897   -3.5807    1.0449 H       1  LIG1        0.0292
     13 N          -2.2912    1.2477   -0.1510 N.pl3   1  LIG1       -0.3563
     14 H          -1.3718    1.1636   -0.5632 H       1  LIG1        0.1424
     15 H          -2.8026    2.0419   -0.5128 H       1  LIG1        0.1424
     16 C          -5.1675    2.3091    0.9326 C.ar    1  LIG1        0.0482
     17 C          -5.2342    1.3109   -0.0670 C.ar    1  LIG1        0.0249
     18 C          -6.1252    1.5021   -1.1230 C.ar    1  LIG1       -0.0280
     19 C          -6.9064    2.6589   -1.2097 C.ar    1  LIG1        0.0516
     20 C          -6.7470    3.6187   -0.1815 C.ar    1  LIG1        0.0936
     21 N          -5.9047    3.4237    0.8418 N.ar    1  LIG1       -0.2493
     22 H          -6.2130    0.7313   -1.8844 H       1  LIG1        0.0644
     23 C          -4.3252    2.1655    2.1777 C.3     1  LIG1       -0.0217
     24 H          -4.5710    2.9774    2.8638 H       1  LIG1        0.0293
     25 H          -3.2536    2.1996    1.9542 H       1  LIG1        0.0293
     26 H          -4.5186    1.2092    2.6757 H       1  LIG1        0.0293
     27 N          -7.8221    2.8251   -2.2520 N.pl3   1  LIG1       -0.3563
     28 H          -8.0505    3.7879   -2.4620 H       1  LIG1        0.1424
     29 H          -7.6068    2.2937   -3.0851 H       1  LIG1        0.1424
     30 C          -6.8941    6.1597   -0.0990 C.ar    1  LIG1        0.0482
     31 C          -7.5240    4.8948   -0.1724 C.ar    1  LIG1        0.0249
     32 C          -8.9181    4.8639   -0.2257 C.ar    1  LIG1       -0.0280
     33 C          -9.6696    6.0455   -0.1765 C.ar    1  LIG1        0.0516
     34 C          -8.9535    7.2580   -0.0611 C.ar    1  LIG1        0.0936
     35 N          -7.6118    7.2872   -0.0557 N.ar    1  LIG1       -0.2493
     36 H          -9.4312    3.9082   -0.2991 H       1  LIG1        0.0644
     37 C          -5.3941    6.3235   -0.0782 C.3     1  LIG1       -0.0217
     38 H          -5.1535    7.3836   -0.1729 H       1  LIG1        0.0293
     39 H          -4.9144    5.7713   -0.8944 H       1  LIG1        0.0293
     40 H          -4.9713    5.9376    0.8537 H       1  LIG1        0.0293
     41 N         -11.0630    6.0031   -0.2089 N.pl3   1  LIG1       -0.3563
     42 H         -11.5096    6.8580   -0.5129 H       1  LIG1        0.1424
     43 H         -11.4571    5.1815   -0.6462 H       1  LIG1        0.1424
     44 C         -10.5188    8.9723    1.0161 C.ar    1  LIG1        0.0475
     45 C          -9.6404    8.5852   -0.0229 C.ar    1  LIG1        0.0249
     46 C          -9.3642    9.5033   -1.0397 C.ar    1  LIG1       -0.0286
     47 C          -9.9777   10.7599   -1.0453 C.ar    1  LIG1        0.0435
     48 C         -10.8679   11.0257    0.0078 C.ar    1  LIG1        0.0485
     49 N         -11.1177   10.1752    1.0010 N.ar    1  LIG1       -0.2577
     50 H          -8.6562    9.2322   -1.8185 H       1  LIG1        0.0643
     51 H         -11.3869   11.9845    0.0480 H       1  LIG1        0.0848
     52 C         -10.7919    8.1056    2.2221 C.3     1  LIG1       -0.0217
     53 H          -9.8586    7.7631    2.6816 H       1  LIG1        0.0293
     54 H         -11.3686    7.2108    1.9643 H       1  LIG1        0.0293
     55 H         -11.3532    8.6898    2.9531 H       1  LIG1        0.0293
     56 N          -9.6847   11.7247   -2.0100 N.pl3   1  LIG1       -0.3568
     57 H          -9.3484   11.3630   -2.8918 H       1  LIG1        0.1424
     58 H         -10.3989   12.4284   -2.1406 H       1  LIG1        0.1424
@<TRIPOS>BOND
     1    29    27    1
     2    57    56    1
     3    28    27    1
     4    27    19    1
     5    58    56    1
     6    56    47    1
     7    22    18    1
     8    50    46    1
     9    19    18   ar
    10    19    20   ar
    11    18    17   ar
    12    47    46   ar
    13    47    48   ar
    14    46    45   ar
    15    39    37    1
    16    11     9    1
    17    43    41    1
    18    14    13    1
    19    42    41    1
    20    15    13    1
    21    36    32    1
    22    32    33   ar
    23    32    31   ar
    24    41    33    1
    25    20    31    1
    26    20    21   ar
    27    33    34   ar
    28    38    37    1
    29    31    30   ar
    30    13     4    1
    31     7     3    1
    32    30    37    1
    33    30    35   ar
    34     4     3   ar
    35     4     5   ar
    36    37    40    1
    37    10     9    1
    38    17     5    1
    39    17    16   ar
    40     3     2   ar
    41    34    35   ar
    42    34    45    1
    43     5     6   ar
    44    45    44   ar
    45     2     8    1
    46     2     1   ar
    47     6     1   ar
    48    48    51    1
    49    48    49   ar
    50     1     9    1
    51     9    12    1
    52    21    16   ar
    53    16    23    1
    54    49    44   ar
    55    44    52    1
    56    25    23    1
    57    54    52    1
    58    23    26    1
    59    23    24    1
    60    52    53    1
    61    52    55    1
