@<TRIPOS>MOLECULE
mol_data/opt/b3lyp/geoms/mol2/6ih6ih-.out
 30 31 0 0 0
SMALL
GASTEIGER

@<TRIPOS>ATOM
      1 C          -4.3741   -2.0105    0.4508 C.ar    1  LIG1        0.0390
      2 C          -3.1193   -2.0986   -0.1617 C.ar    1  LIG1       -0.0389
      3 C          -2.5831   -0.9774   -0.7819 C.ar    1  LIG1       -0.0373
      4 C          -3.2935    0.2297   -0.7761 C.ar    1  LIG1        0.0510
      5 C          -4.5411    0.2416   -0.1023 C.ar    1  LIG1        0.0936
      6 N          -5.0577   -0.8571    0.4642 N.ar    1  LIG1       -0.2500
      7 H          -1.6180   -1.0313   -1.2806 H       1  LIG1        0.0637
      8 H          -2.5739   -3.0376   -0.1632 H       1  LIG1        0.0636
      9 C          -5.0237   -3.1918    1.1287 C.3     1  LIG1       -0.0223
     10 H          -4.4372   -4.1050    0.9958 H       1  LIG1        0.0292
     11 H          -6.0283   -3.3614    0.7282 H       1  LIG1        0.0292
     12 H          -5.1357   -3.0093    2.2031 H       1  LIG1        0.0292
     13 N          -2.7722    1.3709   -1.3853 N.pl3   1  LIG1       -0.3563
     14 H          -2.1158    1.1929   -2.1333 H       1  LIG1        0.1424
     15 H          -3.4590    2.0703   -1.6347 H       1  LIG1        0.1424
     16 C          -4.9991    2.6580    0.6053 C.ar    1  LIG1        0.0475
     17 C          -5.3940    1.4697   -0.0522 C.ar    1  LIG1        0.0249
     18 C          -6.6584    1.4231   -0.6448 C.ar    1  LIG1       -0.0286
     19 C          -7.4944    2.5440   -0.6179 C.ar    1  LIG1        0.0435
     20 C          -6.9881    3.6866    0.0229 C.ar    1  LIG1        0.0485
     21 N          -5.7987    3.7377    0.6189 N.ar    1  LIG1       -0.2577
     22 H          -6.9883    0.5007   -1.1156 H       1  LIG1        0.0643
     23 H          -7.5902    4.5954    0.0630 H       1  LIG1        0.0848
     24 C          -3.7040    2.7765    1.3728 C.3     1  LIG1       -0.0217
     25 H          -3.7101    3.7167    1.9266 H       1  LIG1        0.0293
     26 H          -2.8312    2.7598    0.7113 H       1  LIG1        0.0293
     27 H          -3.5862    1.9484    2.0800 H       1  LIG1        0.0293
     28 N          -8.7849    2.5196   -1.1469 N.pl3   1  LIG1       -0.3568
     29 H          -9.1646    3.4243   -1.3908 H       1  LIG1        0.1424
     30 H          -8.9389    1.8377   -1.8769 H       1  LIG1        0.1424
@<TRIPOS>BOND
     1    14    13    1
     2    30    28    1
     3    15    13    1
     4    29    28    1
     5    13     4    1
     6     7     3    1
     7    28    19    1
     8    22    18    1
     9     3     4   ar
    10     3     2   ar
    11     4     5   ar
    12    18    19   ar
    13    18    17   ar
    14    19    20   ar
    15     8     2    1
    16     2     1   ar
    17     5    17    1
    18     5     6   ar
    19    17    16   ar
    20    20    23    1
    21    20    21   ar
    22     1     6   ar
    23     1     9    1
    24    16    21   ar
    25    16    24    1
    26    26    24    1
    27    11     9    1
    28    10     9    1
    29     9    12    1
    30    24    25    1
    31    24    27    1
