@<TRIPOS>MOLECULE
mol_data/opt/b3lyp/geoms/mol2/6ih6ih6ih-6ih-.out
 58 61 0 0 0
SMALL
GASTEIGER

@<TRIPOS>ATOM
      1 C          -4.0010   -1.9670    0.9650 C.ar    1  LIG1        0.0390
      2 C          -2.9919   -2.2712    0.0446 C.ar    1  LIG1       -0.0389
      3 C          -2.7509   -1.4040   -1.0132 C.ar    1  LIG1       -0.0373
      4 C          -3.5074   -0.2325   -1.1436 C.ar    1  LIG1        0.0510
      5 C          -4.4991    0.0081   -0.1582 C.ar    1  LIG1        0.0936
      6 N          -4.7281   -0.8479    0.8461 N.ar    1  LIG1       -0.2500
      7 H          -1.9773   -1.6279   -1.7441 H       1  LIG1        0.0637
      8 H          -2.4075   -3.1802    0.1507 H       1  LIG1        0.0636
      9 C          -4.3308   -2.8716    2.1267 C.3     1  LIG1       -0.0223
     10 H          -3.6441   -3.7207    2.1830 H       1  LIG1        0.0292
     11 H          -5.3510   -3.2609    2.0379 H       1  LIG1        0.0292
     12 H          -4.2805   -2.3201    3.0707 H       1  LIG1        0.0292
     13 N          -3.2541    0.6689   -2.1818 N.pl3   1  LIG1       -0.3563
     14 H          -2.8364    0.2494   -3.0022 H       1  LIG1        0.1424
     15 H          -4.0376    1.2631   -2.4200 H       1  LIG1        0.1424
     16 C          -6.7560    1.1917   -0.1618 C.ar    1  LIG1        0.0482
     17 C          -5.3417    1.2422   -0.1847 C.ar    1  LIG1        0.0249
     18 C          -4.7356    2.4989   -0.2153 C.ar    1  LIG1       -0.0280
     19 C          -5.5008    3.6722   -0.1910 C.ar    1  LIG1        0.0516
     20 C          -6.9037    3.5216   -0.1193 C.ar    1  LIG1        0.0936
     21 N          -7.4856    2.3123   -0.1389 N.ar    1  LIG1       -0.2493
     22 H          -3.6514    2.5707   -0.2526 H       1  LIG1        0.0644
     23 C          -7.5276   -0.1050   -0.1738 C.3     1  LIG1       -0.0217
     24 H          -7.3971   -0.6457    0.7678 H       1  LIG1        0.0293
     25 H          -7.1847   -0.7746   -0.9702 H       1  LIG1        0.0293
     26 H          -8.5862    0.1157   -0.3201 H       1  LIG1        0.0293
     27 N          -4.8848    4.9232   -0.2052 N.pl3   1  LIG1       -0.3563
     28 H          -3.9591    4.9403   -0.6107 H       1  LIG1        0.1424
     29 H          -5.4667    5.6818   -0.5349 H       1  LIG1        0.1424
     30 C          -7.8456    5.6586    0.9343 C.ar    1  LIG1        0.0482
     31 C          -7.8290    4.6946   -0.1007 C.ar    1  LIG1        0.0249
     32 C          -8.7572    4.8290   -1.1335 C.ar    1  LIG1       -0.0280
     33 C          -9.6552    5.9006   -1.1642 C.ar    1  LIG1        0.0516
     34 C          -9.5740    6.8355   -0.1043 C.ar    1  LIG1        0.0936
     35 N          -8.6959    6.6930    0.8969 N.ar    1  LIG1       -0.2493
     36 H          -8.7822    4.0793   -1.9202 H       1  LIG1        0.0644
     37 C          -6.9706    5.5584    2.1609 C.3     1  LIG1       -0.0217
     38 H          -7.2954    6.3065    2.8857 H       1  LIG1        0.0293
     39 H          -5.9137    5.7244    1.9266 H       1  LIG1        0.0293
     40 H          -7.0444    4.5655    2.6172 H       1  LIG1        0.0293
     41 N         -10.6054    6.0069   -2.1831 N.pl3   1  LIG1       -0.3563
     42 H         -10.9413    6.9463   -2.3500 H       1  LIG1        0.1424
     43 H         -10.3531    5.5335   -3.0404 H       1  LIG1        0.1424
     44 C          -9.9853    9.3418    0.0641 C.ar    1  LIG1        0.0475
     45 C         -10.4823    8.0207   -0.0360 C.ar    1  LIG1        0.0249
     46 C         -11.8673    7.8307   -0.0502 C.ar    1  LIG1       -0.0286
     47 C         -12.7347    8.9263    0.0472 C.ar    1  LIG1        0.0435
     48 C         -12.1364   10.1913    0.1406 C.ar    1  LIG1        0.0485
     49 N         -10.8182   10.3897    0.1447 N.ar    1  LIG1       -0.2577
     50 H         -12.2708    6.8236   -0.1188 H       1  LIG1        0.0643
     51 H         -12.7614   11.0821    0.2157 H       1  LIG1        0.0848
     52 C          -8.5101    9.6591    0.0745 C.3     1  LIG1       -0.0217
     53 H          -8.3821   10.7412    0.0157 H       1  LIG1        0.0293
     54 H          -7.9884    9.1905   -0.7678 H       1  LIG1        0.0293
     55 H          -8.0346    9.2858    0.9860 H       1  LIG1        0.0293
     56 N         -14.1191    8.7668    0.1120 N.pl3   1  LIG1       -0.3568
     57 H         -14.6563    9.5816   -0.1518 H       1  LIG1        0.1424
     58 H         -14.4769    7.9246   -0.3174 H       1  LIG1        0.1424
@<TRIPOS>BOND
     1    43    41    1
     2    14    13    1
     3    15    13    1
     4    42    41    1
     5    41    33    1
     6    13     4    1
     7    36    32    1
     8     7     3    1
     9    33    32   ar
    10    33    34   ar
    11     4     3   ar
    12     4     5   ar
    13    32    31   ar
    14     3     2   ar
    15    25    23    1
    16    54    52    1
    17    28    27    1
    18    29    27    1
    19    26    23    1
    20    58    56    1
    21    22    18    1
    22    18    19   ar
    23    18    17   ar
    24    27    19    1
    25    19    20   ar
    26    17    16   ar
    27    17     5    1
    28    23    16    1
    29    23    24    1
    30    16    21   ar
    31     5     6   ar
    32    57    56    1
    33    21    20   ar
    34    20    31    1
    35    50    46    1
    36    34    45    1
    37    34    35   ar
    38    31    30   ar
    39    46    45   ar
    40    46    47   ar
    41    45    44   ar
    42    53    52    1
    43     2     8    1
    44     2     1   ar
    45    47    56    1
    46    47    48   ar
    47    44    52    1
    48    44    49   ar
    49    52    55    1
    50    48    49   ar
    51    48    51    1
    52     6     1   ar
    53    35    30   ar
    54    30    37    1
    55     1     9    1
    56    39    37    1
    57    11     9    1
    58     9    10    1
    59     9    12    1
    60    37    40    1
    61    37    38    1
