@<TRIPOS>MOLECULE
mol_data/opt/b3lyp/geoms/mol2/6ih6ih-6ih6ih-.out
 58 61 0 0 0
SMALL
GASTEIGER

@<TRIPOS>ATOM
      1 C          -4.2892   -2.1678    0.5075 C.ar    1  LIG1        0.0390
      2 C          -3.0174   -2.2881   -0.0636 C.ar    1  LIG1       -0.0389
      3 C          -2.4503   -1.1927   -0.7020 C.ar    1  LIG1       -0.0373
      4 C          -3.1473    0.0210   -0.7557 C.ar    1  LIG1        0.0510
      5 C          -4.4136    0.0672   -0.1208 C.ar    1  LIG1        0.0936
      6 N          -4.9598   -1.0076    0.4637 N.ar    1  LIG1       -0.2500
      7 H          -1.4717   -1.2724   -1.1698 H       1  LIG1        0.0637
      8 H          -2.4830   -3.2324   -0.0198 H       1  LIG1        0.0636
      9 C          -4.9708   -3.3198    1.2039 C.3     1  LIG1       -0.0223
     10 H          -4.4120   -4.2518    1.0816 H       1  LIG1        0.0292
     11 H          -5.9815   -3.4634    0.8096 H       1  LIG1        0.0292
     12 H          -5.0722   -3.1203    2.2765 H       1  LIG1        0.0292
     13 N          -2.5954    1.1373   -1.3852 N.pl3   1  LIG1       -0.3563
     14 H          -1.9176    0.9273   -2.1054 H       1  LIG1        0.1424
     15 H          -3.2690    1.8307   -1.6832 H       1  LIG1        0.1424
     16 C          -4.8767    2.5080    0.5062 C.ar    1  LIG1        0.0482
     17 C          -5.2545    1.3044   -0.1324 C.ar    1  LIG1        0.0249
     18 C          -6.4942    1.2626   -0.7702 C.ar    1  LIG1       -0.0280
     19 C          -7.3295    2.3843   -0.7964 C.ar    1  LIG1        0.0516
     20 C          -6.8672    3.5449   -0.1330 C.ar    1  LIG1        0.0936
     21 N          -5.6752    3.5841    0.4780 N.ar    1  LIG1       -0.2493
     22 H          -6.8104    0.3404   -1.2509 H       1  LIG1        0.0644
     23 C          -3.6002    2.6461    1.3014 C.3     1  LIG1       -0.0217
     24 H          -3.5994    3.6180    1.7970 H       1  LIG1        0.0293
     25 H          -2.7106    2.5666    0.6677 H       1  LIG1        0.0293
     26 H          -3.5238    1.8613    2.0620 H       1  LIG1        0.0293
     27 N          -8.5725    2.3370   -1.4273 N.pl3   1  LIG1       -0.3563
     28 H          -8.9388    3.2346   -1.7150 H       1  LIG1        0.1424
     29 H          -8.6609    1.6328   -2.1468 H       1  LIG1        0.1424
     30 C          -8.9073    4.9476    0.5214 C.ar    1  LIG1        0.0482
     31 C          -7.6545    4.8165   -0.1212 C.ar    1  LIG1        0.0249
     32 C          -7.1149    5.9442   -0.7393 C.ar    1  LIG1       -0.0280
     33 C          -7.8004    7.1637   -0.7412 C.ar    1  LIG1        0.0516
     34 C          -9.0468    7.2003   -0.0731 C.ar    1  LIG1        0.0936
     35 N          -9.5658    6.1148    0.5173 N.ar    1  LIG1       -0.2493
     36 H          -6.1447    5.8691   -1.2241 H       1  LIG1        0.0644
     37 C          -9.5497    3.8209    1.2948 C.3     1  LIG1       -0.0217
     38 H          -8.8670    3.4280    2.0564 H       1  LIG1        0.0293
     39 H          -9.8242    2.9818    0.6469 H       1  LIG1        0.0293
     40 H         -10.4462    4.2002    1.7877 H       1  LIG1        0.0293
     41 N          -7.2536    8.2904   -1.3545 N.pl3   1  LIG1       -0.3563
     42 H          -6.5813    8.0977   -2.0840 H       1  LIG1        0.1424
     43 H          -7.9237    8.9996   -1.6206 H       1  LIG1        0.1424
     44 C          -9.4824    9.6274    0.6084 C.ar    1  LIG1        0.0475
     45 C          -9.8885    8.4362   -0.0373 C.ar    1  LIG1        0.0249
     46 C         -11.1524    8.3968   -0.6315 C.ar    1  LIG1       -0.0286
     47 C         -11.9768    9.5266   -0.6183 C.ar    1  LIG1        0.0435
     48 C         -11.4588   10.6710    0.0094 C.ar    1  LIG1        0.0485
     49 N         -10.2701   10.7160    0.6071 N.ar    1  LIG1       -0.2577
     50 H         -11.4924    7.4730   -1.0925 H       1  LIG1        0.0643
     51 H         -12.0510   11.5868    0.0377 H       1  LIG1        0.0848
     52 C          -8.1899    9.7382    1.3812 C.3     1  LIG1       -0.0217
     53 H          -8.1797   10.6920    1.9110 H       1  LIG1        0.0293
     54 H          -7.3132    9.6850    0.7269 H       1  LIG1        0.0293
     55 H          -8.0952    8.9261    2.1101 H       1  LIG1        0.0293
     56 N         -13.2674    9.5099   -1.1481 N.pl3   1  LIG1       -0.3568
     57 H         -13.6371   10.4162   -1.4015 H       1  LIG1        0.1424
     58 H         -13.4275    8.8230   -1.8720 H       1  LIG1        0.1424
@<TRIPOS>BOND
     1    29    27    1
     2    14    13    1
     3    42    41    1
     4    58    56    1
     5    28    27    1
     6    15    13    1
     7    43    41    1
     8    27    19    1
     9    57    56    1
    10    13     4    1
    11    41    33    1
    12    22    18    1
    13    36    32    1
    14     7     3    1
    15    56    47    1
    16    50    46    1
    17    19    18   ar
    18    19    20   ar
    19    18    17   ar
    20     4     3   ar
    21     4     5   ar
    22    33    32   ar
    23    33    34   ar
    24    32    31   ar
    25     3     2   ar
    26    46    47   ar
    27    46    45   ar
    28    47    48   ar
    29    20    31    1
    30    20    21   ar
    31    17     5    1
    32    17    16   ar
    33    31    30   ar
    34     5     6   ar
    35    34    45    1
    36    34    35   ar
    37     2     8    1
    38     2     1   ar
    39    45    44   ar
    40    48    51    1
    41    48    49   ar
    42     6     1   ar
    43    21    16   ar
    44    16    23    1
    45     1     9    1
    46    35    30   ar
    47    30    37    1
    48    49    44   ar
    49    44    52    1
    50    39    37    1
    51    25    23    1
    52    54    52    1
    53    11     9    1
    54    10     9    1
    55     9    12    1
    56    37    40    1
    57    37    38    1
    58    23    24    1
    59    23    26    1
    60    52    53    1
    61    52    55    1
