@<TRIPOS>MOLECULE
mol_data/opt/b3lyp/geoms/mol2/6ih6ih.out
 30 31 0 0 0
SMALL
GASTEIGER

@<TRIPOS>ATOM
      1 C          -4.3698   -2.0224    0.5596 C.ar    1  LIG1        0.0390
      2 C          -3.0851   -2.0776    0.0083 C.ar    1  LIG1       -0.0389
      3 C          -2.5611   -0.9510   -0.6127 C.ar    1  LIG1       -0.0373
      4 C          -3.3145    0.2281   -0.6727 C.ar    1  LIG1        0.0510
      5 C          -4.6014    0.2025   -0.0762 C.ar    1  LIG1        0.0936
      6 N          -5.0962   -0.8975    0.5051 N.ar    1  LIG1       -0.2500
      7 H          -1.5679   -0.9773   -1.0552 H       1  LIG1        0.0637
      8 H          -2.5052   -2.9943    0.0578 H       1  LIG1        0.0636
      9 C          -5.0070   -3.2105    1.2373 C.3     1  LIG1       -0.0223
     10 H          -4.3402   -4.0770    1.2410 H       1  LIG1        0.0292
     11 H          -5.9363   -3.4924    0.7311 H       1  LIG1        0.0292
     12 H          -5.2680   -2.9704    2.2733 H       1  LIG1        0.0292
     13 N          -2.7898    1.3820   -1.2615 N.pl3   1  LIG1       -0.3563
     14 H          -2.0896    1.2050   -1.9698 H       1  LIG1        0.1424
     15 H          -3.4863    2.0448   -1.5765 H       1  LIG1        0.1424
     16 C          -6.7865    1.4061   -0.5884 C.ar    1  LIG1        0.0475
     17 C          -5.4732    1.4175   -0.0619 C.ar    1  LIG1        0.0249
     18 C          -4.9948    2.6013    0.5078 C.ar    1  LIG1       -0.0286
     19 C          -5.8073    3.7408    0.5640 C.ar    1  LIG1        0.0435
     20 C          -7.0906    3.6208    0.0113 C.ar    1  LIG1        0.0485
     21 N          -7.5576    2.5027   -0.5441 N.ar    1  LIG1       -0.2577
     22 H          -3.9911    2.6296    0.9244 H       1  LIG1        0.0643
     23 H          -7.7677    4.4759    0.0230 H       1  LIG1        0.0848
     24 C          -7.3962    0.1870   -1.2357 C.3     1  LIG1       -0.0217
     25 H          -7.5591   -0.6066   -0.5011 H       1  LIG1        0.0293
     26 H          -6.7440   -0.2312   -2.0105 H       1  LIG1        0.0293
     27 H          -8.3504    0.4671   -1.6848 H       1  LIG1        0.0293
     28 N          -5.3894    4.9147    1.1918 N.pl3   1  LIG1       -0.3568
     29 H          -4.3888    5.0552    1.2214 H       1  LIG1        0.1424
     30 H          -5.8779    5.7509    0.9016 H       1  LIG1        0.1424
@<TRIPOS>BOND
     1    26    24    1
     2    14    13    1
     3    27    24    1
     4    15    13    1
     5    13     4    1
     6    24    16    1
     7    24    25    1
     8     7     3    1
     9     4     3   ar
    10     4     5   ar
    11     3     2   ar
    12    16    21   ar
    13    16    17   ar
    14    21    20   ar
    15     5    17    1
    16     5     6   ar
    17    17    18   ar
    18     2     8    1
    19     2     1   ar
    20    20    23    1
    21    20    19   ar
    22     6     1   ar
    23    18    19   ar
    24    18    22    1
    25     1     9    1
    26    19    28    1
    27    11     9    1
    28    30    28    1
    29    28    29    1
    30     9    10    1
    31     9    12    1
