@<TRIPOS>MOLECULE
mol_data/opt/b3lyp/geoms/mol2/6ih6ih6ih6ih-.out
 58 61 0 0 0
SMALL
GASTEIGER

@<TRIPOS>ATOM
      1 C          -3.4455   -1.5603    1.2154 C.ar    1  LIG1        0.0390
      2 C          -2.8144   -2.1387    0.1085 C.ar    1  LIG1       -0.0389
      3 C          -3.0544   -1.6237   -1.1588 C.ar    1  LIG1       -0.0373
      4 C          -3.9127   -0.5284   -1.3176 C.ar    1  LIG1        0.0510
      5 C          -4.4979    0.0081   -0.1420 C.ar    1  LIG1        0.0936
      6 N          -4.2671   -0.5117    1.0704 N.ar    1  LIG1       -0.2500
      7 H          -2.5808   -2.0662   -2.0322 H       1  LIG1        0.0637
      8 H          -2.1495   -2.9876    0.2370 H       1  LIG1        0.0636
      9 C          -3.2462   -2.0790    2.6181 C.3     1  LIG1       -0.0223
     10 H          -2.5169   -2.8931    2.6461 H       1  LIG1        0.0292
     11 H          -4.1903   -2.4495    3.0324 H       1  LIG1        0.0292
     12 H          -2.8996   -1.2786    3.2795 H       1  LIG1        0.0292
     13 N          -4.1381    0.0248   -2.5814 N.pl3   1  LIG1       -0.3563
     14 H          -4.0090   -0.6241   -3.3468 H       1  LIG1        0.1424
     15 H          -5.0067    0.5369   -2.6651 H       1  LIG1        0.1424
     16 C          -6.7083    1.1801    0.3495 C.ar    1  LIG1        0.0482
     17 C          -5.4031    1.1961   -0.1974 C.ar    1  LIG1        0.0249
     18 C          -4.9594    2.3801   -0.7880 C.ar    1  LIG1       -0.0280
     19 C          -5.7687    3.5229   -0.8185 C.ar    1  LIG1        0.0516
     20 C          -7.0513    3.4155   -0.2340 C.ar    1  LIG1        0.0936
     21 N          -7.4840    2.2681    0.3096 N.ar    1  LIG1       -0.2493
     22 H          -3.9632    2.4215   -1.2216 H       1  LIG1        0.0644
     23 C          -7.3084   -0.0457    0.9932 C.3     1  LIG1       -0.0217
     24 H          -6.7792   -0.3014    1.9151 H       1  LIG1        0.0293
     25 H          -7.2406   -0.9216    0.3382 H       1  LIG1        0.0293
     26 H          -8.3576    0.1511    1.2192 H       1  LIG1        0.0293
     27 N          -5.2901    4.7158   -1.3677 N.pl3   1  LIG1       -0.3563
     28 H          -4.5644    4.5938   -2.0618 H       1  LIG1        0.1424
     29 H          -6.0107    5.3543   -1.6781 H       1  LIG1        0.1424
     30 C          -9.3126    4.4990   -0.6893 C.ar    1  LIG1        0.0482
     31 C          -7.9920    4.5745   -0.1858 C.ar    1  LIG1        0.0249
     32 C          -7.5808    5.7807    0.3835 C.ar    1  LIG1       -0.0280
     33 C          -8.4563    6.8701    0.4817 C.ar    1  LIG1        0.0516
     34 C          -9.7687    6.6851   -0.0074 C.ar    1  LIG1        0.0936
     35 N         -10.1469    5.5400   -0.5963 N.ar    1  LIG1       -0.2493
     36 H          -6.5671    5.8755    0.7647 H       1  LIG1        0.0644
     37 C          -9.8595    3.2669   -1.3675 C.3     1  LIG1       -0.0217
     38 H          -9.9798    2.4479   -0.6529 H       1  LIG1        0.0293
     39 H          -9.1866    2.9026   -2.1518 H       1  LIG1        0.0293
     40 H         -10.8282    3.5077   -1.8084 H       1  LIG1        0.0293
     41 N          -8.0410    8.0647    1.0691 N.pl3   1  LIG1       -0.3563
     42 H          -7.0440    8.2294    1.0476 H       1  LIG1        0.1424
     43 H          -8.5757    8.8804    0.8017 H       1  LIG1        0.1424
     44 C         -11.2818    8.3433    1.2224 C.ar    1  LIG1        0.0475
     45 C         -10.7897    7.7765    0.0232 C.ar    1  LIG1        0.0249
     46 C         -11.3157    8.2252   -1.1913 C.ar    1  LIG1       -0.0286
     47 C         -12.2768    9.2405   -1.2155 C.ar    1  LIG1        0.0435
     48 C         -12.6627    9.7658    0.0285 C.ar    1  LIG1        0.0485
     49 N         -12.1957    9.3282    1.1958 N.ar    1  LIG1       -0.2577
     50 H         -10.9771    7.7649   -2.1159 H       1  LIG1        0.0643
     51 H         -13.3989   10.5697    0.0711 H       1  LIG1        0.0848
     52 C         -10.8716    7.8511    2.5898 C.3     1  LIG1       -0.0217
     53 H         -11.5168    8.3162    3.3368 H       1  LIG1        0.0293
     54 H          -9.8289    8.0949    2.8199 H       1  LIG1        0.0293
     55 H         -10.9689    6.7627    2.6638 H       1  LIG1        0.0293
     56 N         -12.8671    9.6757   -2.4028 N.pl3   1  LIG1       -0.3568
     57 H         -13.2627   10.6055   -2.3666 H       1  LIG1        0.1424
     58 H         -12.3108    9.5369   -3.2352 H       1  LIG1        0.1424
@<TRIPOS>BOND
     1    14    13    1
     2    58    56    1
     3    15    13    1
     4    13     4    1
     5    56    57    1
     6    56    47    1
     7    39    37    1
     8    50    46    1
     9    28    27    1
    10     7     3    1
    11    40    37    1
    12    29    27    1
    13    27    19    1
    14    37    30    1
    15    37    38    1
    16     4     3   ar
    17     4     5   ar
    18    22    18    1
    19    47    46   ar
    20    47    48   ar
    21    46    45   ar
    22     3     2   ar
    23    19    18   ar
    24    19    20   ar
    25    18    17   ar
    26    30    35   ar
    27    30    31   ar
    28    35    34   ar
    29    20    31    1
    30    20    21   ar
    31    17     5    1
    32    17    16   ar
    33    31    32   ar
    34     5     6   ar
    35    34    45    1
    36    34    33   ar
    37    45    44   ar
    38    48    51    1
    39    48    49   ar
    40     2     8    1
    41     2     1   ar
    42    21    16   ar
    43    25    23    1
    44    16    23    1
    45    32    33   ar
    46    32    36    1
    47    33    41    1
    48    43    41    1
    49    23    26    1
    50    23    24    1
    51    42    41    1
    52     6     1   ar
    53    49    44   ar
    54     1     9    1
    55    44    52    1
    56    52    55    1
    57    52    54    1
    58    52    53    1
    59     9    10    1
    60     9    11    1
    61     9    12    1
