@<TRIPOS>MOLECULE
mol_data/opt/b3lyp/geoms/mol2/6ih6ih6ih-6ih.out
 58 61 0 0 0
SMALL
GASTEIGER

@<TRIPOS>ATOM
      1 C          -3.9512   -1.9385    0.9784 C.ar    1  LIG1        0.0390
      2 C          -2.9483   -2.2381    0.0497 C.ar    1  LIG1       -0.0389
      3 C          -2.7294   -1.3770   -1.0178 C.ar    1  LIG1       -0.0373
      4 C          -3.5015   -0.2160   -1.1497 C.ar    1  LIG1        0.0510
      5 C          -4.4851    0.0212   -0.1552 C.ar    1  LIG1        0.0936
      6 N          -4.6929   -0.8291    0.8583 N.ar    1  LIG1       -0.2500
      7 H          -1.9612   -1.5979   -1.7554 H       1  LIG1        0.0637
      8 H          -2.3520   -3.1392    0.1569 H       1  LIG1        0.0636
      9 C          -4.2573   -2.8371    2.1512 C.3     1  LIG1       -0.0223
     10 H          -3.5671   -3.6836    2.2003 H       1  LIG1        0.0292
     11 H          -5.2779   -3.2295    2.0829 H       1  LIG1        0.0292
     12 H          -4.1917   -2.2799    3.0911 H       1  LIG1        0.0292
     13 N          -3.2709    0.6791   -2.1988 N.pl3   1  LIG1       -0.3563
     14 H          -2.8582    0.2564   -3.0202 H       1  LIG1        0.1424
     15 H          -4.0648    1.2606   -2.4338 H       1  LIG1        0.1424
     16 C          -6.7552    1.1795   -0.1447 C.ar    1  LIG1        0.0482
     17 C          -5.3420    1.2454   -0.1828 C.ar    1  LIG1        0.0249
     18 C          -4.7500    2.5084   -0.2295 C.ar    1  LIG1       -0.0280
     19 C          -5.5281    3.6729   -0.2076 C.ar    1  LIG1        0.0516
     20 C          -6.9285    3.5077   -0.1237 C.ar    1  LIG1        0.0936
     21 N          -7.4971    2.2922   -0.1256 N.ar    1  LIG1       -0.2493
     22 H          -3.6670    2.5916   -0.2770 H       1  LIG1        0.0644
     23 C          -7.5123   -0.1257   -0.1353 C.3     1  LIG1       -0.0217
     24 H          -7.3712   -0.6516    0.8131 H       1  LIG1        0.0293
     25 H          -7.1655   -0.8025   -0.9239 H       1  LIG1        0.0293
     26 H          -8.5740    0.0811   -0.2791 H       1  LIG1        0.0293
     27 N          -4.9267    4.9315   -0.2342 N.pl3   1  LIG1       -0.3563
     28 H          -4.0073    4.9574   -0.6534 H       1  LIG1        0.1424
     29 H          -5.5230    5.6799   -0.5615 H       1  LIG1        0.1424
     30 C          -7.8996    5.6329    0.9267 C.ar    1  LIG1        0.0482
     31 C          -7.8666    4.6715   -0.1101 C.ar    1  LIG1        0.0249
     32 C          -8.7854    4.8007   -1.1517 C.ar    1  LIG1       -0.0280
     33 C          -9.6962    5.8616   -1.1831 C.ar    1  LIG1        0.0516
     34 C          -9.6530    6.7770   -0.1052 C.ar    1  LIG1        0.0936
     35 N          -8.7697    6.6521    0.8947 N.ar    1  LIG1       -0.2493
     36 H          -8.7890    4.0605   -1.9478 H       1  LIG1        0.0644
     37 C          -7.0186    5.5466    2.1503 C.3     1  LIG1       -0.0217
     38 H          -7.3255    6.3180    2.8582 H       1  LIG1        0.0293
     39 H          -5.9603    5.6852    1.9055 H       1  LIG1        0.0293
     40 H          -7.1100    4.5670    2.6320 H       1  LIG1        0.0293
     41 N         -10.6171    5.9834   -2.2232 N.pl3   1  LIG1       -0.3563
     42 H         -10.9747    6.9178   -2.3705 H       1  LIG1        0.1424
     43 H         -10.3519    5.5283   -3.0857 H       1  LIG1        0.1424
     44 C         -11.9564    7.8784    0.0656 C.ar    1  LIG1        0.0475
     45 C         -10.5496    7.9730   -0.0472 C.ar    1  LIG1        0.0249
     46 C          -9.9652    9.2420   -0.0614 C.ar    1  LIG1       -0.0286
     47 C         -10.7623   10.3897   -0.0030 C.ar    1  LIG1        0.0435
     48 C         -12.1498   10.1844    0.0629 C.ar    1  LIG1        0.0485
     49 N         -12.7210    8.9826    0.1076 N.ar    1  LIG1       -0.2577
     50 H          -8.8823    9.3259   -0.1050 H       1  LIG1        0.0643
     51 H         -12.8223   11.0427    0.0964 H       1  LIG1        0.0848
     52 C         -12.6781    6.5594    0.2037 C.3     1  LIG1       -0.0217
     53 H         -12.2457    5.9550    1.0083 H       1  LIG1        0.0293
     54 H         -12.6204    5.9617   -0.7122 H       1  LIG1        0.0293
     55 H         -13.7265    6.7562    0.4332 H       1  LIG1        0.0293
     56 N         -10.2143   11.6722    0.0442 N.pl3   1  LIG1       -0.3568
     57 H          -9.2929   11.7618   -0.3613 H       1  LIG1        0.1424
     58 H         -10.8324   12.4121   -0.2604 H       1  LIG1        0.1424
@<TRIPOS>BOND
     1    43    41    1
     2    14    13    1
     3    15    13    1
     4    42    41    1
     5    41    33    1
     6    13     4    1
     7    36    32    1
     8     7     3    1
     9    33    32   ar
    10    33    34   ar
    11    32    31   ar
    12     4     3   ar
    13     4     5   ar
    14     3     2   ar
    15    25    23    1
    16    54    52    1
    17    28    27    1
    18    29    27    1
    19    57    56    1
    20    26    23    1
    21    22    18    1
    22    58    56    1
    23    27    19    1
    24    18    19   ar
    25    18    17   ar
    26    19    20   ar
    27    17     5    1
    28    17    16   ar
    29     5     6   ar
    30    16    23    1
    31    16    21   ar
    32    23    24    1
    33    21    20   ar
    34    20    31    1
    35    31    30   ar
    36    34    45    1
    37    34    35   ar
    38    50    46    1
    39    46    45   ar
    40    46    47   ar
    41    45    44   ar
    42    47    56    1
    43    47    48   ar
    44     2     8    1
    45     2     1   ar
    46    48    51    1
    47    48    49   ar
    48    44    49   ar
    49    44    52    1
    50    52    55    1
    51    52    53    1
    52     6     1   ar
    53    35    30   ar
    54    30    37    1
    55     1     9    1
    56    39    37    1
    57    11     9    1
    58    37    40    1
    59    37    38    1
    60     9    10    1
    61     9    12    1
