@<TRIPOS>MOLECULE
mol_data/opt/b3lyp/geoms/mol2/6ii.out
 17 17 0 0 0
SMALL
GASTEIGER

@<TRIPOS>ATOM
      1 C          -4.5739   -2.0491    0.0026 C.ar    1  LIG1        0.0382
      2 C          -3.1732   -2.0267    0.0014 C.ar    1  LIG1       -0.0404
      3 C          -2.5102   -0.8032   -0.0012 C.ar    1  LIG1       -0.0557
      4 C          -3.2472    0.3855   -0.0026 C.ar    1  LIG1       -0.0323
      5 C          -4.6405    0.2492   -0.0013 C.ar    1  LIG1        0.0308
      6 N          -5.2946   -0.9159    0.0013 N.ar    1  LIG1       -0.2599
      7 H          -1.4229   -0.7716   -0.0021 H       1  LIG1        0.0621
      8 H          -2.6139   -2.9576    0.0026 H       1  LIG1        0.0635
      9 H          -5.2651    1.1429   -0.0023 H       1  LIG1        0.0832
     10 C          -5.3516   -3.3415    0.0055 C.3     1  LIG1       -0.0224
     11 H          -4.6915   -4.2128    0.0064 H       1  LIG1        0.0292
     12 H          -6.0021   -3.3975   -0.8734 H       1  LIG1        0.0292
     13 H          -6.0005   -3.3945    0.8857 H       1  LIG1        0.0292
     14 C          -2.5866    1.7411   -0.0055 C.3     1  LIG1       -0.0383
     15 H          -3.3302    2.5429   -0.0061 H       1  LIG1        0.0278
     16 H          -1.9508    1.8758   -0.8880 H       1  LIG1        0.0278
     17 H          -1.9491    1.8787    0.8753 H       1  LIG1        0.0278
@<TRIPOS>BOND
     1    16    14    1
     2    12    10    1
     3    15    14    1
     4    14     4    1
     5    14    17    1
     6     4     5   ar
     7     4     3   ar
     8     9     5    1
     9     7     3    1
    10     5     6   ar
    11     3     2   ar
    12     6     1   ar
    13     2     8    1
    14     2     1   ar
    15     1    10    1
    16    10    11    1
    17    10    13    1
