@<TRIPOS>MOLECULE
mol_data/opt/b3lyp/geoms/mol2/6ii13fd6fd-6hf-4af4he-12hf-6fi-.out
 98 105 0 0 0
SMALL
GASTEIGER

@<TRIPOS>ATOM
      1 C          -3.8611   -0.7626   -2.0632 C.ar    1  LIG1        0.0390
      2 C          -2.4936   -1.0123   -1.9225 C.ar    1  LIG1       -0.0404
      3 C          -1.7751   -0.2663   -0.9943 C.ar    1  LIG1       -0.0551
      4 C          -2.3839    0.7333   -0.2302 C.ar    1  LIG1       -0.0229
      5 C          -3.7572    0.9581   -0.4858 C.ar    1  LIG1        0.0939
      6 N          -4.4615    0.2033   -1.3593 N.ar    1  LIG1       -0.2500
      7 H          -0.7194   -0.4728   -0.8385 H       1  LIG1        0.0621
      8 H          -2.0110   -1.7873   -2.5087 H       1  LIG1        0.0635
      9 C          -4.7310   -1.5556   -3.0057 C.3     1  LIG1       -0.0223
     10 H          -4.1584   -2.3246   -3.5296 H       1  LIG1        0.0292
     11 H          -5.1912   -0.8982   -3.7505 H       1  LIG1        0.0292
     12 H          -5.5453   -2.0424   -2.4590 H       1  LIG1        0.0292
     13 C          -1.5847    1.4530    0.8258 C.3     1  LIG1       -0.0376
     14 H          -2.1226    1.4937    1.7770 H       1  LIG1        0.0278
     15 H          -1.3657    2.4863    0.5470 H       1  LIG1        0.0278
     16 H          -0.6369    0.9347    0.9934 H       1  LIG1        0.0278
     17 C          -4.6046    1.9639    0.1745 C.ar    1  LIG1        0.1089
     18 C          -4.4521    3.1543    0.8812 C.ar    1  LIG1        0.1616
     19 C          -5.7550    3.6506    1.2034 C.ar    1  LIG1        0.1191
     20 C          -6.6970    2.7592    0.6670 C.ar    1  LIG1        0.0734
     21 N          -5.9777    1.7814    0.0505 N.ar    1  LIG1       -0.3488
     22 H          -6.3173    0.9319   -0.3856 H       1  LIG1        0.1661
     23 O          -3.2913    3.7898    1.1650 O.3     1  LIG1       -0.5034
     24 H          -3.4914    4.6064    1.6468 H       1  LIG1        0.2923
     25 N          -6.0654    5.8874    2.4474 N.1     1  LIG1       -0.1907
     26 C          -5.9757    4.8725    1.8798 C.1     1  LIG1        0.1050
     27 C          -8.9512    2.3820   -0.4088 C.ar    1  LIG1        0.2223
     28 C          -8.1564    2.7917    0.6936 C.ar    1  LIG1        0.0623
     29 C          -8.8625    3.2164    1.8183 C.ar    1  LIG1       -0.0280
     30 C         -10.2634    3.2225    1.8408 C.ar    1  LIG1        0.0786
     31 C         -10.9698    2.8000    0.6776 C.ar    1  LIG1        0.0955
     32 N         -10.2712    2.3842   -0.3972 N.ar    1  LIG1       -0.2111
     33 H          -8.3230    3.5178    2.7094 H       1  LIG1        0.0639
     34 O          -8.4108    1.9492   -1.5733 O.3     1  LIG1       -0.4919
     35 H          -7.4737    2.1947   -1.6148 H       1  LIG1        0.2937
     36 N         -11.3285    3.8422    4.1228 N.1     1  LIG1       -0.1908
     37 C         -10.8869    3.5695    3.0810 C.1     1  LIG1        0.1013
     38 C         -13.1384    1.8617   -0.2865 C.ar    1  LIG1        0.1264
     39 C         -12.4392    2.7896    0.5561 C.ar    1  LIG1        0.0447
     40 C         -13.2302    3.7072    1.2568 C.ar    1  LIG1       -0.0055
     41 C         -14.6158    3.7076    1.1457 C.ar    1  LIG1        0.1435
     42 C         -15.2157    2.7592    0.2938 C.ar    1  LIG1        0.1145
     43 N         -14.4736    1.8629   -0.3744 N.ar    1  LIG1       -0.2281
     44 H         -12.7876    4.4527    1.9046 H       1  LIG1        0.0662
     45 N         -12.5001    0.8836   -1.0084 N.pl3   1  LIG1       -0.3426
     46 H         -13.1007    0.4291   -1.6810 H       1  LIG1        0.1437
     47 H         -11.5542    1.0985   -1.2969 H       1  LIG1        0.1437
     48 O         -15.3021    4.6401    1.8771 O.3     1  LIG1       -0.5046
     49 H         -16.2296    4.3702    1.9397 H       1  LIG1        0.2922
     50 C         -17.5201    3.8000    0.0648 C.ar    1  LIG1       -0.0516
     51 C         -18.8922    3.6506   -0.1358 C.ar    1  LIG1       -0.0499
     52 C         -16.6865    2.6686    0.1011 C.ar    1  LIG1        0.0075
     53 C         -19.4944    2.3950   -0.3019 C.ar    1  LIG1        0.0254
     54 H         -19.5232    4.5332   -0.1653 H       1  LIG1        0.0625
     55 C         -17.2696    1.4076   -0.0832 C.ar    1  LIG1       -0.0103
     56 C         -18.6422    1.2656   -0.2758 C.ar    1  LIG1        0.1252
     57 H         -16.6223    0.5349   -0.0895 H       1  LIG1        0.0661
     58 H         -17.0998    4.7974    0.1382 H       1  LIG1        0.0624
     59 O         -19.2094    0.0365   -0.4547 O.3     1  LIG1       -0.5061
     60 H         -18.5168   -0.6362   -0.4098 H       1  LIG1        0.2922
     61 C         -21.6608    2.9804   -1.4890 C.ar    1  LIG1        0.0332
     62 C         -23.0532    2.8465   -1.5841 C.ar    1  LIG1       -0.0285
     63 C         -20.9664    2.2624   -0.4811 C.ar    1  LIG1        0.0074
     64 C         -23.7936    2.0182   -0.7294 C.ar    1  LIG1        0.0364
     65 H         -23.5826    3.4393   -2.3248 H       1  LIG1        0.0643
     66 C         -21.7063    1.4292    0.3588 C.ar    1  LIG1       -0.0361
     67 C         -23.0985    1.2767    0.2664 C.ar    1  LIG1        0.0361
     68 H         -21.1820    0.8563    1.1146 H       1  LIG1        0.0637
     69 N         -20.9996    3.8534   -2.3453 N.pl3   1  LIG1       -0.3575
     70 H         -20.0144    3.6750   -2.4821 H       1  LIG1        0.1423
     71 H         -21.4870    4.0717   -3.2026 H       1  LIG1        0.1423
     72 C         -23.7337    0.3437    1.1411 C.1     1  LIG1       -0.0689
     73 C         -24.1985   -0.4831    1.8956 C.1     1  LIG1       -0.1139
     74 H         -24.6441   -1.1840    2.5632 H       1  LIG1        0.1232
     75 C         -25.2316    1.9443   -0.9294 C.ar    1  LIG1        0.1612
     76 C         -26.0058    2.0387   -2.0676 C.ar    1  LIG1        0.1138
     77 C         -27.3609    1.9133   -1.6418 C.ar    1  LIG1        0.1846
     78 C         -27.3673    1.7703   -0.2744 C.ar    1  LIG1        0.1839
     79 O         -26.0639    1.7754    0.1626 O.2     1  LIG1       -0.4489
     80 N         -25.6199    2.2331   -3.3939 N.pl3   1  LIG1       -0.3522
     81 H         -24.7247    1.8144   -3.6179 H       1  LIG1        0.1425
     82 H         -26.3382    1.9291   -4.0415 H       1  LIG1        0.1425
     83 O         -28.3969    1.9128   -2.5350 O.3     1  LIG1       -0.5020
     84 H         -29.1371    1.4203   -2.1531 H       1  LIG1        0.2924
     85 C         -28.2639    0.9526    1.9506 C.ar    1  LIG1        0.2234
     86 C         -28.4397    1.5975    0.6890 C.ar    1  LIG1        0.0825
     87 C         -29.7364    2.0397    0.3871 C.ar    1  LIG1       -0.0415
     88 C         -30.8041    1.8169    1.2605 C.ar    1  LIG1       -0.0314
     89 C         -30.4967    1.1416    2.4434 C.ar    1  LIG1        0.0343
     90 N         -29.2718    0.7307    2.7851 N.ar    1  LIG1       -0.2206
     91 H         -29.9030    2.5976   -0.5316 H       1  LIG1        0.0629
     92 H         -31.2849    0.9262    3.1645 H       1  LIG1        0.0833
     93 O         -27.0690    0.5174    2.3937 O.3     1  LIG1       -0.4919
     94 H         -26.3505    0.7666    1.7867 H       1  LIG1        0.2937
     95 C         -32.2030    2.2902    0.9541 C.3     1  LIG1       -0.0383
     96 H         -32.8927    2.0194    1.7584 H       1  LIG1        0.0278
     97 H         -32.5878    1.8499    0.0268 H       1  LIG1        0.0278
     98 H         -32.2440    3.3791    0.8357 H       1  LIG1        0.0278
@<TRIPOS>BOND
     1    82    80    1
     2    11     9    1
     3    81    80    1
     4    10     9    1
     5    80    76    1
     6    71    69    1
     7     9    12    1
     8     9     1    1
     9    83    84    1
    10    83    77    1
    11     8     2    1
    12    70    69    1
    13    69    61    1
    14    65    62    1
    15    76    77   ar
    16    76    75   ar
    17     1     2   ar
    18     1     6   ar
    19     2     3   ar
    20    46    45    1
    21    77    78   ar
    22    35    34    1
    23    62    61   ar
    24    62    64   ar
    25    34    27    1
    26    61    63   ar
    27     6     5   ar
    28    47    45    1
    29    45    38    1
    30     3     7    1
    31     3     4   ar
    32    75    64    1
    33    75    79   ar
    34    64    67   ar
    35    91    87    1
    36     5     4   ar
    37     5    17    1
    38    63    53    1
    39    63    66   ar
    40    59    60    1
    41    59    56    1
    42    27    32   ar
    43    27    28   ar
    44    32    31   ar
    45    22    21    1
    46    43    38   ar
    47    43    42   ar
    48    53    56   ar
    49    53    51   ar
    50    38    39   ar
    51    56    55   ar
    52    78    79   ar
    53    78    86    1
    54     4    13    1
    55    54    51    1
    56    51    50   ar
    57    57    55    1
    58    55    52   ar
    59    97    95    1
    60    21    17   ar
    61    21    20   ar
    62    50    52   ar
    63    50    58    1
    64    52    42    1
    65    17    18   ar
    66    67    66   ar
    67    67    72    1
    68    42    41   ar
    69    66    68    1
    70    87    86   ar
    71    87    88   ar
    72    15    13    1
    73    39    31    1
    74    39    40   ar
    75    20    28    1
    76    20    19   ar
    77    31    30   ar
    78    86    85   ar
    79    28    29   ar
    80    13    16    1
    81    13    14    1
    82    98    95    1
    83    18    23    1
    84    18    19   ar
    85    95    88    1
    86    95    96    1
    87    72    73    3
    88    41    40   ar
    89    41    48    1
    90    23    24    1
    91    19    26    1
    92    40    44    1
    93    88    89   ar
    94    94    93    1
    95    29    30   ar
    96    29    33    1
    97    30    37    1
    98    48    49    1
    99    26    25    3
   100    73    74    1
   101    85    93    1
   102    85    90   ar
   103    89    90   ar
   104    89    92    1
   105    37    36    3
