@<TRIPOS>MOLECULE
mol_data/opt/b3lyp/geoms/mol2/6ii6ii6ii6ii.out
 62 65 0 0 0
SMALL
GASTEIGER

@<TRIPOS>ATOM
      1 C          -3.5054   -1.4339   -1.7251 C.ar    1  LIG1        0.0389
      2 C          -2.8547   -2.1163   -0.6925 C.ar    1  LIG1       -0.0404
      3 C          -3.0629   -1.7032    0.6191 C.ar    1  LIG1       -0.0551
      4 C          -3.8928   -0.6139    0.8991 C.ar    1  LIG1       -0.0244
      5 C          -4.4909    0.0232   -0.2108 C.ar    1  LIG1        0.0759
      6 N          -4.3075   -0.3889   -1.4755 N.ar    1  LIG1       -0.2516
      7 H          -2.5847   -2.2349    1.4384 H       1  LIG1        0.0621
      8 H          -2.2102   -2.9617   -0.9127 H       1  LIG1        0.0635
      9 C          -3.3455   -1.8285   -3.1720 C.3     1  LIG1       -0.0223
     10 H          -2.7100   -2.7107   -3.2832 H       1  LIG1        0.0292
     11 H          -2.9036   -1.0071   -3.7458 H       1  LIG1        0.0292
     12 H          -4.3213   -2.0414   -3.6201 H       1  LIG1        0.0292
     13 C          -4.1347   -0.1844    2.3275 C.3     1  LIG1       -0.0377
     14 H          -5.1692    0.1306    2.4865 H       1  LIG1        0.0278
     15 H          -3.4963    0.6587    2.6166 H       1  LIG1        0.0278
     16 H          -3.9174   -1.0059    3.0163 H       1  LIG1        0.0278
     17 C          -6.7220    1.2233   -0.4741 C.ar    1  LIG1        0.0481
     18 C          -5.3733    1.2214   -0.0533 C.ar    1  LIG1        0.0219
     19 C          -4.8729    2.3983    0.5022 C.ar    1  LIG1       -0.0459
     20 C          -5.6588    3.5486    0.6207 C.ar    1  LIG1       -0.0238
     21 C          -6.9836    3.4508    0.1547 C.ar    1  LIG1        0.0759
     22 N          -7.4878    2.3136   -0.3565 N.ar    1  LIG1       -0.2509
     23 H          -3.8405    2.4272    0.8425 H       1  LIG1        0.0628
     24 C          -7.3826    0.0042   -1.0678 C.3     1  LIG1       -0.0217
     25 H          -7.2744   -0.8693   -0.4154 H       1  LIG1        0.0293
     26 H          -6.9212   -0.2562   -2.0245 H       1  LIG1        0.0293
     27 H          -8.4431    0.2101   -1.2187 H       1  LIG1        0.0293
     28 C          -5.0841    4.8034    1.2356 C.3     1  LIG1       -0.0377
     29 H          -5.8318    5.3484    1.8171 H       1  LIG1        0.0278
     30 H          -4.7034    5.4946    0.4743 H       1  LIG1        0.0278
     31 H          -4.2469    4.5592    1.8963 H       1  LIG1        0.0278
     32 C          -9.1450    4.5757    0.8970 C.ar    1  LIG1        0.0481
     33 C          -7.9267    4.6110    0.1825 C.ar    1  LIG1        0.0219
     34 C          -7.6340    5.7743   -0.5286 C.ar    1  LIG1       -0.0459
     35 C          -8.5146    6.8597   -0.5587 C.ar    1  LIG1       -0.0238
     36 C          -9.7078    6.7172    0.1743 C.ar    1  LIG1        0.0759
     37 N          -9.9907    5.6121    0.8862 N.ar    1  LIG1       -0.2509
     38 H          -6.7019    5.8351   -1.0855 H       1  LIG1        0.0628
     39 C          -9.5616    3.3834    1.7214 C.3     1  LIG1       -0.0217
     40 H          -8.7835    3.0997    2.4388 H       1  LIG1        0.0293
     41 H          -9.7338    2.5134    1.0815 H       1  LIG1        0.0293
     42 H         -10.4775    3.6255    2.2622 H       1  LIG1        0.0293
     43 C          -8.1609    8.1066   -1.3351 C.3     1  LIG1       -0.0377
     44 H          -8.4893    9.0122   -0.8186 H       1  LIG1        0.0278
     45 H          -8.6280    8.1169   -2.3269 H       1  LIG1        0.0278
     46 H          -7.0794    8.1711   -1.4867 H       1  LIG1        0.0278
     47 C         -11.1435    8.4168    1.4116 C.ar    1  LIG1        0.0474
     48 C         -10.7544    7.7862    0.2058 C.ar    1  LIG1        0.0219
     49 C         -11.4012    8.1678   -0.9701 C.ar    1  LIG1       -0.0465
     50 C         -12.4065    9.1404   -0.9536 C.ar    1  LIG1       -0.0317
     51 C         -12.7061    9.6932    0.2920 C.ar    1  LIG1        0.0308
     52 N         -12.1007    9.3539    1.4360 N.ar    1  LIG1       -0.2592
     53 H         -11.1313    7.6868   -1.9076 H       1  LIG1        0.0628
     54 H         -13.4809   10.4558    0.3732 H       1  LIG1        0.0832
     55 C         -10.5029    8.0816    2.7354 C.3     1  LIG1       -0.0217
     56 H          -9.4113    8.1649    2.6866 H       1  LIG1        0.0293
     57 H         -10.7286    7.0512    3.0246 H       1  LIG1        0.0293
     58 H         -10.8809    8.7654    3.4966 H       1  LIG1        0.0293
     59 C         -13.1294    9.5645   -2.2072 C.3     1  LIG1       -0.0383
     60 H         -13.8915   10.3175   -1.9876 H       1  LIG1        0.0278
     61 H         -13.6281    8.7157   -2.6887 H       1  LIG1        0.0278
     62 H         -12.4399    9.9934   -2.9435 H       1  LIG1        0.0278
@<TRIPOS>BOND
     1    11     9    1
     2    12     9    1
     3    10     9    1
     4     9     1    1
     5    62    59    1
     6    61    59    1
     7    45    43    1
     8    59    60    1
     9    59    50    1
    10    26    24    1
    11    53    49    1
    12     1     6   ar
    13     1     2   ar
    14    46    43    1
    15     6     5   ar
    16    43    44    1
    17    43    35    1
    18    27    24    1
    19    38    34    1
    20    24    17    1
    21    24    25    1
    22    49    50   ar
    23    49    48   ar
    24    50    51   ar
    25     8     2    1
    26     2     3   ar
    27    35    34   ar
    28    35    36   ar
    29    34    33   ar
    30    17    22   ar
    31    17    18   ar
    32    22    21   ar
    33     5    18    1
    34     5     4   ar
    35    18    19   ar
    36    21    33    1
    37    21    20   ar
    38    36    48    1
    39    36    37   ar
    40    33    32   ar
    41    48    47   ar
    42    51    54    1
    43    51    52   ar
    44    30    28    1
    45    19    20   ar
    46    19    23    1
    47     3     4   ar
    48     3     7    1
    49    20    28    1
    50    37    32   ar
    51    32    39    1
    52     4    13    1
    53    41    39    1
    54    28    29    1
    55    28    31    1
    56    47    52   ar
    57    47    55    1
    58    39    42    1
    59    39    40    1
    60    13    14    1
    61    13    15    1
    62    13    16    1
    63    56    55    1
    64    55    57    1
    65    55    58    1
