@<TRIPOS>MOLECULE
mol_data/opt/b3lyp/geoms/mol2/6ii6ii.out
 32 33 0 0 0
SMALL
GASTEIGER

@<TRIPOS>ATOM
      1 C          -4.4606   -2.0024   -0.7267 C.ar    1  LIG1        0.0389
      2 C          -3.1545   -2.1203   -0.2419 C.ar    1  LIG1       -0.0404
      3 C          -2.5798   -1.0323    0.4070 C.ar    1  LIG1       -0.0551
      4 C          -3.2890    0.1627    0.5557 C.ar    1  LIG1       -0.0244
      5 C          -4.5948    0.1919    0.0172 C.ar    1  LIG1        0.0759
      6 N          -5.1573   -0.8645   -0.5907 N.ar    1  LIG1       -0.2516
      7 H          -1.5730   -1.1101    0.8105 H       1  LIG1        0.0621
      8 H          -2.6059   -3.0497   -0.3598 H       1  LIG1        0.0635
      9 C          -5.1624   -3.1406   -1.4245 C.3     1  LIG1       -0.0223
     10 H          -4.5245   -4.0251   -1.4985 H       1  LIG1        0.0292
     11 H          -5.4644   -2.8421   -2.4335 H       1  LIG1        0.0292
     12 H          -6.0759   -3.4139   -0.8863 H       1  LIG1        0.0292
     13 C          -2.6715    1.3360    1.2803 C.3     1  LIG1       -0.0377
     14 H          -3.3981    1.8445    1.9198 H       1  LIG1        0.0278
     15 H          -2.2786    2.0871    0.5855 H       1  LIG1        0.0278
     16 H          -1.8376    1.0044    1.9057 H       1  LIG1        0.0278
     17 C          -6.6821    1.4439    0.7659 C.ar    1  LIG1        0.0474
     18 C          -5.4446    1.4230    0.0803 C.ar    1  LIG1        0.0219
     19 C          -5.0405    2.5855   -0.5768 C.ar    1  LIG1       -0.0465
     20 C          -5.8380    3.7346   -0.5594 C.ar    1  LIG1       -0.0317
     21 C          -7.0352    3.6401    0.1513 C.ar    1  LIG1        0.0308
     22 N          -7.4487    2.5425    0.7950 N.ar    1  LIG1       -0.2592
     23 H          -4.1006    2.5891   -1.1245 H       1  LIG1        0.0628
     24 H          -7.7019    4.5008    0.2046 H       1  LIG1        0.0832
     25 C          -7.2090    0.2412    1.5084 C.3     1  LIG1       -0.0217
     26 H          -6.4814   -0.1330    2.2374 H       1  LIG1        0.0293
     27 H          -7.4153   -0.5804    0.8165 H       1  LIG1        0.0293
     28 H          -8.1263    0.5191    2.0291 H       1  LIG1        0.0293
     29 C          -5.4333    5.0005   -1.2717 C.3     1  LIG1       -0.0383
     30 H          -6.1805    5.7868   -1.1334 H       1  LIG1        0.0278
     31 H          -5.3195    4.8349   -2.3491 H       1  LIG1        0.0278
     32 H          -4.4750    5.3822   -0.9010 H       1  LIG1        0.0278
@<TRIPOS>BOND
     1    11     9    1
     2    31    29    1
     3    10     9    1
     4     9    12    1
     5     9     1    1
     6    29    30    1
     7    29    32    1
     8    29    20    1
     9    23    19    1
    10     1     6   ar
    11     1     2   ar
    12     6     5   ar
    13    19    20   ar
    14    19    18   ar
    15    20    21   ar
    16     8     2    1
    17     2     3   ar
    18     5    18    1
    19     5     4   ar
    20    18    17   ar
    21    21    24    1
    22    21    22   ar
    23     3     4   ar
    24     3     7    1
    25     4    13    1
    26    15    13    1
    27    17    22   ar
    28    17    25    1
    29    27    25    1
    30    13    16    1
    31    13    14    1
    32    25    28    1
    33    25    26    1
