@<TRIPOS>MOLECULE
mol_data/opt/b3lyp/geoms/mol2/6ii6hf6fe6ha-.out
 52 55 0 0 0
SMALL
GASTEIGER

@<TRIPOS>ATOM
      1 C          -4.1517   -2.0852   -0.8943 C.ar    1  LIG1        0.0389
      2 C          -2.9469   -2.2370   -0.2026 C.ar    1  LIG1       -0.0404
      3 C          -2.5382   -1.2171    0.6474 C.ar    1  LIG1       -0.0551
      4 C          -3.2845   -0.0417    0.7826 C.ar    1  LIG1       -0.0243
      5 C          -4.4595    0.0540   -0.0032 C.ar    1  LIG1        0.0775
      6 N          -4.8760   -0.9650   -0.7835 N.ar    1  LIG1       -0.2515
      7 H          -1.6290   -1.3340    1.2320 H       1  LIG1        0.0621
      8 H          -2.3618   -3.1450   -0.3065 H       1  LIG1        0.0635
      9 C          -4.7106   -3.1705   -1.7797 C.3     1  LIG1       -0.0223
     10 H          -3.9707   -3.9506   -1.9750 H       1  LIG1        0.0292
     11 H          -5.0436   -2.7520   -2.7334 H       1  LIG1        0.0292
     12 H          -5.5817   -3.6417   -1.3094 H       1  LIG1        0.0292
     13 C          -2.8250    1.0020    1.7750 C.3     1  LIG1       -0.0377
     14 H          -3.6636    1.5397    2.2226 H       1  LIG1        0.0278
     15 H          -2.1643    1.7485    1.3187 H       1  LIG1        0.0278
     16 H          -2.2578    0.5254    2.5799 H       1  LIG1        0.0278
     17 C          -6.7534    1.1867   -0.0711 C.ar    1  LIG1        0.1263
     18 C          -5.3263    1.2660   -0.0290 C.ar    1  LIG1        0.0436
     19 C          -4.7869    2.5486   -0.0242 C.ar    1  LIG1       -0.0056
     20 C          -5.5844    3.6940   -0.0480 C.ar    1  LIG1        0.1436
     21 C          -6.9786    3.5375   -0.1100 C.ar    1  LIG1        0.1195
     22 N          -7.5096    2.2891   -0.0897 N.ar    1  LIG1       -0.2279
     23 H          -3.7144    2.6984   -0.0097 H       1  LIG1        0.0662
     24 N          -7.4142   -0.0175   -0.0437 N.pl3   1  LIG1       -0.3426
     25 H          -8.3882    0.0403   -0.3055 H       1  LIG1        0.1437
     26 H          -6.8858   -0.7767   -0.4610 H       1  LIG1        0.1437
     27 O          -4.9281    4.9001   -0.0100 O.3     1  LIG1       -0.5046
     28 H          -5.5084    5.5647    0.3866 H       1  LIG1        0.2922
     29 C          -9.2957    4.4902    0.2831 C.ar    1  LIG1        0.2225
     30 C          -7.9468    4.6531   -0.1661 C.ar    1  LIG1        0.0665
     31 C          -7.6378    5.9240   -0.6538 C.ar    1  LIG1       -0.0298
     32 C          -8.5576    6.9866   -0.6409 C.ar    1  LIG1        0.0516
     33 C          -9.8592    6.7269   -0.1205 C.ar    1  LIG1        0.0934
     34 N         -10.1667    5.4916    0.3165 N.ar    1  LIG1       -0.2111
     35 H          -6.6636    6.1170   -1.0881 H       1  LIG1        0.0639
     36 O          -9.7637    3.3137    0.6967 O.3     1  LIG1       -0.4919
     37 H          -9.0597    2.6404    0.4651 H       1  LIG1        0.2937
     38 C          -8.0807    8.2572   -1.0853 C.1     1  LIG1       -0.0675
     39 C          -7.5804    9.2936   -1.4633 C.1     1  LIG1       -0.1138
     40 H          -7.1702   10.2226   -1.7849 H       1  LIG1        0.1232
     41 C         -11.9577    7.6859    0.9789 C.ar    1  LIG1        0.1254
     42 C         -10.9331    7.7401   -0.0281 C.ar    1  LIG1        0.0412
     43 C         -11.0238    8.7929   -0.9477 C.ar    1  LIG1       -0.0478
     44 C         -12.0239    9.7544   -0.8463 C.ar    1  LIG1       -0.0428
     45 C         -12.9284    9.6322    0.2064 C.ar    1  LIG1        0.0297
     46 N         -12.9110    8.6342    1.0875 N.ar    1  LIG1       -0.2401
     47 H         -10.3090    8.8501   -1.7582 H       1  LIG1        0.0626
     48 H         -13.7213   10.3671    0.3417 H       1  LIG1        0.0830
     49 N         -12.0126    6.7009    1.9200 N.pl3   1  LIG1       -0.3426
     50 H         -12.8585    6.7010    2.4703 H       1  LIG1        0.1437
     51 H         -11.5765    5.8197    1.6743 H       1  LIG1        0.1437
     52 H         -12.1012   10.5662   -1.5608 H       1  LIG1        0.0633
@<TRIPOS>BOND
     1    11     9    1
     2    10     9    1
     3    40    39    1
     4     9    12    1
     5     9     1    1
     6    47    43    1
     7    52    44    1
     8    39    38    3
     9    35    31    1
    10    38    32    1
    11    43    44   ar
    12    43    42   ar
    13     1     6   ar
    14     1     2   ar
    15    44    45   ar
    16     6     5   ar
    17    31    32   ar
    18    31    30   ar
    19    32    33   ar
    20    26    24    1
    21     8     2    1
    22    25    24    1
    23     2     3   ar
    24    30    21    1
    25    30    29   ar
    26    33    42    1
    27    33    34   ar
    28    21    22   ar
    29    21    20   ar
    30    22    17   ar
    31    17    24    1
    32    17    18   ar
    33    20    19   ar
    34    20    27    1
    35    18    19   ar
    36    18     5    1
    37    42    41   ar
    38    19    23    1
    39    27    28    1
    40     5     4   ar
    41    45    48    1
    42    45    46   ar
    43    29    34   ar
    44    29    36    1
    45    37    36    1
    46     3     4   ar
    47     3     7    1
    48     4    13    1
    49    41    46   ar
    50    41    49    1
    51    15    13    1
    52    51    49    1
    53    13    14    1
    54    13    16    1
    55    49    50    1
