@<TRIPOS>MOLECULE
mol_data/opt/b3lyp/geoms/mol2/6il13ie-6id4he.out
 58 61 0 0 0
SMALL
GASTEIGER

@<TRIPOS>ATOM
      1 C          -4.4801   -1.9833   -0.7432 C.ar    1  LIG1        0.0392
      2 C          -3.1014   -2.0588   -0.9410 C.ar    1  LIG1       -0.0372
      3 C          -2.3309   -0.9036   -0.8086 C.ar    1  LIG1       -0.0161
      4 C          -2.9464    0.2981   -0.4624 C.ar    1  LIG1        0.1474
      5 C          -4.3426    0.2916   -0.2115 C.ar    1  LIG1        0.1291
      6 N          -5.0642   -0.8312   -0.3850 N.ar    1  LIG1       -0.2467
      7 H          -1.2642   -0.9448   -0.9936 H       1  LIG1        0.0655
      8 H          -2.6329   -2.9998   -1.2102 H       1  LIG1        0.0636
      9 C          -5.3850   -3.1781   -0.9116 C.3     1  LIG1       -0.0223
     10 H          -4.8239   -4.0683   -1.2064 H       1  LIG1        0.0292
     11 H          -6.1453   -2.9816   -1.6750 H       1  LIG1        0.0292
     12 H          -5.9148   -3.3965    0.0214 H       1  LIG1        0.0292
     13 O          -2.3009    1.4926   -0.3813 O.3     1  LIG1       -0.4929
     14 C          -0.9126    1.5360   -0.6793 C.3     1  LIG1        0.0789
     15 H          -0.6173    2.5802   -0.5722 H       1  LIG1        0.0660
     16 H          -0.3289    0.9227    0.0186 H       1  LIG1        0.0660
     17 H          -0.7116    1.2060   -1.7061 H       1  LIG1        0.0660
     18 C          -5.1383    1.4647    0.1771 C.ar    1  LIG1        0.0731
     19 C          -4.9194    2.6988    0.7965 C.ar    1  LIG1       -0.0076
     20 C          -6.1982    3.3368    0.8921 C.ar    1  LIG1        0.0535
     21 C          -7.1681    2.4698    0.3524 C.ar    1  LIG1        0.0645
     22 N          -6.4933    1.3601   -0.0573 N.ar    1  LIG1       -0.3516
     23 H          -6.8704    0.5130   -0.4570 H       1  LIG1        0.1660
     24 C          -3.6662    3.2971    1.3642 C.3     1  LIG1       -0.0365
     25 H          -3.9295    4.0732    2.0874 H       1  LIG1        0.0279
     26 H          -3.0468    3.7583    0.5888 H       1  LIG1        0.0279
     27 H          -3.0503    2.5488    1.8666 H       1  LIG1        0.0279
     28 C          -6.4318    4.6028    1.4876 C.1     1  LIG1       -0.0673
     29 C          -6.6050    5.6886    1.9977 C.1     1  LIG1       -0.1138
     30 H          -6.7704    6.6382    2.4516 H       1  LIG1        0.1232
     31 C          -9.5640    1.5955    0.2911 C.ar    1  LIG1        0.0481
     32 C          -8.6125    2.6474    0.1911 C.ar    1  LIG1        0.0218
     33 C          -9.1214    3.9282   -0.0495 C.ar    1  LIG1       -0.0314
     34 C         -10.4947    4.1305   -0.2233 C.ar    1  LIG1        0.0784
     35 C         -11.3620    3.0100   -0.1925 C.ar    1  LIG1        0.0904
     36 N         -10.8718    1.7950    0.0891 N.ar    1  LIG1       -0.2499
     37 H          -8.4503    4.7775   -0.0869 H       1  LIG1        0.0638
     38 C          -9.1946    0.1765    0.6490 C.3     1  LIG1       -0.0217
     39 H          -8.3833    0.1318    1.3797 H       1  LIG1        0.0293
     40 H          -8.8808   -0.3931   -0.2359 H       1  LIG1        0.0293
     41 H         -10.0787   -0.3222    1.0483 H       1  LIG1        0.0293
     42 N         -11.3410    6.5637   -0.5493 N.1     1  LIG1       -0.1908
     43 C         -10.9762    5.4692   -0.3954 C.1     1  LIG1        0.1013
     44 C         -13.4530    3.6896   -1.5075 C.ar    1  LIG1        0.0339
     45 C         -14.8613    3.7307   -1.5559 C.ar    1  LIG1       -0.0393
     46 C         -12.8370    3.0999   -0.3738 C.ar    1  LIG1        0.0234
     47 C         -15.6379    3.1929   -0.5461 C.ar    1  LIG1       -0.0446
     48 H         -15.3396    4.1821   -2.4211 H       1  LIG1        0.0636
     49 C         -13.6397    2.5267    0.6191 C.ar    1  LIG1       -0.0353
     50 C         -15.0388    2.5667    0.5658 C.ar    1  LIG1        0.0254
     51 H         -13.1529    2.0490    1.4617 H       1  LIG1        0.0637
     52 H         -16.7200    3.2433   -0.6096 H       1  LIG1        0.0630
     53 N         -12.7357    4.1358   -2.6081 N.pl3   1  LIG1       -0.3575
     54 H         -11.7614    4.3532   -2.4683 H       1  LIG1        0.1423
     55 H         -13.2015    4.8348   -3.1694 H       1  LIG1        0.1423
     56 C         -15.8318    1.9960    1.6068 C.1     1  LIG1       -0.0696
     57 C         -16.5091    1.5130    2.4867 C.1     1  LIG1       -0.1139
     58 H         -17.1023    1.0888    3.2628 H       1  LIG1        0.1232
@<TRIPOS>BOND
     1    55    53    1
     2    53    54    1
     3    53    44    1
     4    48    45    1
     5    17    14    1
     6    11     9    1
     7    45    44   ar
     8    45    47   ar
     9    44    46   ar
    10     8     2    1
    11    10     9    1
    12     7     3    1
    13     2     3   ar
    14     2     1   ar
    15     9     1    1
    16     9    12    1
    17     3     4   ar
    18     1     6   ar
    19    14    15    1
    20    14    13    1
    21    14    16    1
    22    52    47    1
    23    42    43    3
    24    47    50   ar
    25     4    13    1
    26     4     5   ar
    27    23    22    1
    28    43    34    1
    29     6     5   ar
    30    46    35    1
    31    46    49   ar
    32    40    38    1
    33    34    35   ar
    34    34    33   ar
    35     5    18    1
    36    35    36   ar
    37    37    33    1
    38    22    18   ar
    39    22    21   ar
    40    33    32   ar
    41    36    31   ar
    42    18    19   ar
    43    32    31   ar
    44    32    21    1
    45    31    38    1
    46    21    20   ar
    47    50    49   ar
    48    50    56    1
    49    26    24    1
    50    49    51    1
    51    38    41    1
    52    38    39    1
    53    19    20   ar
    54    19    24    1
    55    20    28    1
    56    24    27    1
    57    24    25    1
    58    28    29    3
    59    56    57    3
    60    29    30    1
    61    57    58    1
