@<TRIPOS>MOLECULE
mol_data/opt/b3lyp/geoms/mol2/6il13ad4de12di.out
 51 54 0 0 0
SMALL
GASTEIGER

@<TRIPOS>ATOM
      1 C          -4.5431   -2.0099   -0.7282 C.ar    1  LIG1        0.0392
      2 C          -3.1561   -2.1421   -0.6397 C.ar    1  LIG1       -0.0372
      3 C          -2.3800   -1.0379   -0.2859 C.ar    1  LIG1       -0.0161
      4 C          -3.0050    0.1803   -0.0262 C.ar    1  LIG1        0.1474
      5 C          -4.4165    0.2405   -0.1358 C.ar    1  LIG1        0.1288
      6 N          -5.1420   -0.8365   -0.4778 N.ar    1  LIG1       -0.2467
      7 H          -1.3032   -1.1353   -0.2168 H       1  LIG1        0.0655
      8 H          -2.6816   -3.0961   -0.8449 H       1  LIG1        0.0636
      9 C          -5.4390   -3.1622   -1.1071 C.3     1  LIG1       -0.0223
     10 H          -4.8643   -4.0725   -1.2941 H       1  LIG1        0.0292
     11 H          -6.0124   -2.9243   -2.0091 H       1  LIG1        0.0292
     12 H          -6.1617   -3.3678   -0.3105 H       1  LIG1        0.0292
     13 O          -2.3617    1.3251    0.3272 O.3     1  LIG1       -0.4929
     14 C          -0.9425    1.3001    0.4305 C.3     1  LIG1        0.0789
     15 H          -0.6463    2.3100    0.7147 H       1  LIG1        0.0660
     16 H          -0.6094    0.5940    1.2008 H       1  LIG1        0.0660
     17 H          -0.4762    1.0412   -0.5276 H       1  LIG1        0.0660
     18 C          -5.1894    1.4571    0.1045 C.ar    1  LIG1        0.0703
     19 C          -4.8785    2.7651    0.4454 C.ar    1  LIG1       -0.0168
     20 C          -6.0992    3.4941    0.4858 C.ar    1  LIG1        0.0776
     21 C          -7.1398    2.6059    0.1667 C.ar    1  LIG1        0.0658
     22 N          -6.5573    1.3890   -0.0388 N.ar    1  LIG1       -0.3518
     23 H          -7.0024    0.5349   -0.3489 H       1  LIG1        0.1660
     24 H          -3.8972    3.1563    0.6508 H       1  LIG1        0.0652
     25 N          -6.3313    5.9449    1.2720 N.1     1  LIG1       -0.1908
     26 C          -6.2394    4.8455    0.9006 C.1     1  LIG1        0.1013
     27 C          -9.2245    3.8375   -0.5756 C.ar    1  LIG1        0.0616
     28 C         -10.6190    3.9475   -0.5736 C.ar    1  LIG1       -0.0318
     29 C          -8.5939    2.7760    0.1208 C.ar    1  LIG1        0.0181
     30 C         -11.4372    3.0244    0.0907 C.ar    1  LIG1        0.0351
     31 H         -11.0691    4.7593   -1.1320 H       1  LIG1        0.0638
     32 C          -9.4145    1.8507    0.7735 C.ar    1  LIG1       -0.0353
     33 C         -10.8150    1.9450    0.7798 C.ar    1  LIG1        0.0361
     34 H          -8.9566    1.0445    1.3360 H       1  LIG1        0.0637
     35 N          -7.9108    5.4847   -2.0916 N.1     1  LIG1       -0.1908
     36 C          -8.4772    4.7548   -1.3852 C.1     1  LIG1        0.0998
     37 C         -11.5316    0.9683    1.5355 C.1     1  LIG1       -0.0689
     38 C         -12.0549    0.1136    2.2130 C.1     1  LIG1       -0.1139
     39 H         -12.5420   -0.6283    2.8028 H       1  LIG1        0.1232
     40 C         -12.8844    3.2019    0.0378 C.ar    1  LIG1        0.1535
     41 C         -13.6941    4.3190   -0.0927 C.ar    1  LIG1        0.1003
     42 C         -15.0635    3.8581   -0.1060 C.ar    1  LIG1        0.0053
     43 C         -14.9756    2.5070    0.0161 C.ar    1  LIG1        0.0967
     44 O         -13.6746    2.1012    0.1021 O.2     1  LIG1       -0.4613
     45 H         -15.7148    1.7223    0.0540 H       1  LIG1        0.1032
     46 N         -13.0025    6.8028   -0.2438 N.1     1  LIG1       -0.1907
     47 C         -13.2934    5.6775   -0.1700 C.1     1  LIG1        0.1032
     48 C         -16.2907    4.7062   -0.2224 C.3     1  LIG1       -0.0355
     49 H         -17.1940    4.0917   -0.2010 H       1  LIG1        0.0279
     50 H         -16.2891    5.2776   -1.1565 H       1  LIG1        0.0279
     51 H         -16.3508    5.4291    0.5979 H       1  LIG1        0.0279
@<TRIPOS>BOND
     1    35    36    3
     2    11     9    1
     3    36    27    1
     4    10     9    1
     5    50    48    1
     6    31    28    1
     7     9     1    1
     8     9    12    1
     9     8     2    1
    10     1     2   ar
    11     1     6   ar
    12     2     3   ar
    13    27    28   ar
    14    27    29   ar
    15    28    30   ar
    16    17    14    1
    17     6     5   ar
    18    23    22    1
    19     3     7    1
    20     3     4   ar
    21    46    47    3
    22    48    49    1
    23    48    42    1
    24    48    51    1
    25    47    41    1
    26     5     4   ar
    27     5    18    1
    28    42    41   ar
    29    42    43   ar
    30    41    40   ar
    31    22    18   ar
    32    22    21   ar
    33     4    13    1
    34    43    45    1
    35    43    44   ar
    36    40    30    1
    37    40    44   ar
    38    30    33   ar
    39    18    19   ar
    40    29    21    1
    41    29    32   ar
    42    21    20   ar
    43    13    14    1
    44    14    15    1
    45    14    16    1
    46    19    20   ar
    47    19    24    1
    48    20    26    1
    49    32    33   ar
    50    32    34    1
    51    33    37    1
    52    26    25    3
    53    37    38    3
    54    38    39    1
