@<TRIPOS>MOLECULE
mol_data/opt/b3lyp/geoms/mol2/6il6il6il6il.out
 66 69 0 0 0
SMALL
GASTEIGER

@<TRIPOS>ATOM
      1 C          -3.6313   -1.5437   -1.9408 C.ar    1  LIG1        0.0392
      2 C          -2.7491   -2.0817   -1.0036 C.ar    1  LIG1       -0.0372
      3 C          -2.6711   -1.5157    0.2684 C.ar    1  LIG1       -0.0161
      4 C          -3.4733   -0.4161    0.5718 C.ar    1  LIG1        0.1460
      5 C          -4.3410    0.0837   -0.4334 C.ar    1  LIG1        0.1145
      6 N          -4.4015   -0.4847   -1.6423 N.ar    1  LIG1       -0.2482
      7 H          -1.9955   -1.9345    1.0049 H       1  LIG1        0.0655
      8 H          -2.1299   -2.9366   -1.2571 H       1  LIG1        0.0636
      9 C          -3.7758   -2.1125   -3.3303 C.3     1  LIG1       -0.0223
     10 H          -3.0813   -2.9390   -3.5017 H       1  LIG1        0.0292
     11 H          -3.5907   -1.3395   -4.0829 H       1  LIG1        0.0292
     12 H          -4.7951   -2.4790   -3.4925 H       1  LIG1        0.0292
     13 O          -3.4898    0.2125    1.7839 O.3     1  LIG1       -0.4930
     14 C          -2.7012   -0.3304    2.8337 C.3     1  LIG1        0.0789
     15 H          -2.8970    0.2921    3.7075 H       1  LIG1        0.0660
     16 H          -2.9860   -1.3660    3.0571 H       1  LIG1        0.0660
     17 H          -1.6300   -0.2948    2.5975 H       1  LIG1        0.0660
     18 C          -6.5923    1.2566   -0.5425 C.ar    1  LIG1        0.0484
     19 C          -5.2230    1.2638   -0.2014 C.ar    1  LIG1        0.0284
     20 C          -4.6899    2.4401    0.3390 C.ar    1  LIG1       -0.0068
     21 C          -5.4921    3.5660    0.5041 C.ar    1  LIG1        0.1466
     22 C          -6.8505    3.4845    0.1216 C.ar    1  LIG1        0.1146
     23 N          -7.3538    2.3458   -0.3703 N.ar    1  LIG1       -0.2475
     24 H          -3.6479    2.4585    0.6285 H       1  LIG1        0.0662
     25 C          -7.3028    0.0465   -1.0986 C.3     1  LIG1       -0.0217
     26 H          -7.0466   -0.8639   -0.5480 H       1  LIG1        0.0293
     27 H          -7.0240   -0.1275   -2.1415 H       1  LIG1        0.0293
     28 H          -8.3795    0.2138   -1.0399 H       1  LIG1        0.0293
     29 O          -5.0491    4.7511    1.0241 O.3     1  LIG1       -0.4929
     30 C          -3.7160    4.8161    1.5078 C.3     1  LIG1        0.0789
     31 H          -3.5948    5.8201    1.9168 H       1  LIG1        0.0660
     32 H          -3.5379    4.0786    2.3004 H       1  LIG1        0.0660
     33 H          -2.9830    4.6629    0.7051 H       1  LIG1        0.0660
     34 C          -9.0698    4.5181    0.8071 C.ar    1  LIG1        0.0484
     35 C          -7.7840    4.6403    0.2382 C.ar    1  LIG1        0.0284
     36 C          -7.4055    5.8944   -0.2566 C.ar    1  LIG1       -0.0068
     37 C          -8.2899    6.9682   -0.2054 C.ar    1  LIG1        0.1466
     38 C          -9.5668    6.7600    0.3628 C.ar    1  LIG1        0.1146
     39 N          -9.9077    5.5633    0.8556 N.ar    1  LIG1       -0.2475
     40 H          -6.4156    6.0142   -0.6758 H       1  LIG1        0.0662
     41 C          -9.5913    3.2381    1.4133 C.3     1  LIG1       -0.0217
     42 H          -8.8467    2.7606    2.0576 H       1  LIG1        0.0293
     43 H          -9.8462    2.5116    0.6370 H       1  LIG1        0.0293
     44 H         -10.4843    3.4656    1.9979 H       1  LIG1        0.0293
     45 O          -7.9978    8.2235   -0.6648 O.3     1  LIG1       -0.4929
     46 C          -6.6860    8.4736   -1.1449 C.3     1  LIG1        0.0789
     47 H          -6.6595    9.5326   -1.4056 H       1  LIG1        0.0660
     48 H          -5.9291    8.2709   -0.3767 H       1  LIG1        0.0660
     49 H          -6.4572    7.8771   -2.0377 H       1  LIG1        0.0660
     50 C         -11.2905    8.1283    1.6312 C.ar    1  LIG1        0.0477
     51 C         -10.5913    7.8416    0.4388 C.ar    1  LIG1        0.0284
     52 C         -10.9016    8.5787   -0.7135 C.ar    1  LIG1       -0.0074
     53 C         -11.8940    9.5538   -0.6576 C.ar    1  LIG1        0.1387
     54 C         -12.5396    9.7604    0.5674 C.ar    1  LIG1        0.0695
     55 N         -12.2428    9.0783    1.6697 N.ar    1  LIG1       -0.2559
     56 H         -10.3631    8.3761   -1.6300 H       1  LIG1        0.0662
     57 H         -13.3197   10.5165    0.6348 H       1  LIG1        0.0867
     58 C         -11.0217    7.4244    2.9389 C.3     1  LIG1       -0.0217
     59 H          -9.9499    7.3403    3.1435 H       1  LIG1        0.0293
     60 H         -11.4195    6.4059    2.9264 H       1  LIG1        0.0293
     61 H         -11.5007    7.9870    3.7422 H       1  LIG1        0.0293
     62 O         -12.3011   10.3355   -1.7018 O.3     1  LIG1       -0.4936
     63 C         -11.6648   10.1473   -2.9552 C.3     1  LIG1        0.0789
     64 H         -12.1295   10.8581   -3.6402 H       1  LIG1        0.0660
     65 H         -10.5877   10.3522   -2.8983 H       1  LIG1        0.0660
     66 H         -11.8136    9.1289   -3.3372 H       1  LIG1        0.0660
@<TRIPOS>BOND
     1    11     9    1
     2    64    63    1
     3    10     9    1
     4    12     9    1
     5    66    63    1
     6     9     1    1
     7    63    65    1
     8    63    62    1
     9    27    25    1
    10    49    46    1
    11     1     6   ar
    12     1     2   ar
    13    62    53    1
    14     6     5   ar
    15    56    52    1
    16    47    46    1
    17     8     2    1
    18    46    45    1
    19    46    48    1
    20    25    28    1
    21    25    26    1
    22    25    18    1
    23     2     3   ar
    24    52    53   ar
    25    52    51   ar
    26    40    36    1
    27    45    37    1
    28    53    54   ar
    29    18    23   ar
    30    18    19   ar
    31     5    19    1
    32     5     4   ar
    33    23    22   ar
    34    36    37   ar
    35    36    35   ar
    36    37    38   ar
    37    19    20   ar
    38    22    35    1
    39    22    21   ar
    40    35    34   ar
    41     3     4   ar
    42     3     7    1
    43    20    21   ar
    44    20    24    1
    45    38    51    1
    46    38    39   ar
    47    51    50   ar
    48    21    29    1
    49    54    57    1
    50    54    55   ar
    51     4    13    1
    52    43    41    1
    53    33    30    1
    54    34    39   ar
    55    34    41    1
    56    29    30    1
    57    41    44    1
    58    41    42    1
    59    30    31    1
    60    30    32    1
    61    50    55   ar
    62    50    58    1
    63    13    14    1
    64    17    14    1
    65    14    16    1
    66    14    15    1
    67    60    58    1
    68    58    59    1
    69    58    61    1
