@<TRIPOS>MOLECULE
mol_data/opt/b3lyp/geoms/mol2/6il6il-.out
 34 35 0 0 0
SMALL
GASTEIGER

@<TRIPOS>ATOM
      1 C          -4.4502   -2.0340    0.5984 C.ar    1  LIG1        0.0392
      2 C          -3.1429   -2.1360    0.1228 C.ar    1  LIG1       -0.0372
      3 C          -2.5044   -1.0030   -0.3815 C.ar    1  LIG1       -0.0161
      4 C          -3.1886    0.2122   -0.3841 C.ar    1  LIG1        0.1460
      5 C          -4.4995    0.2478    0.1502 C.ar    1  LIG1        0.1145
      6 N          -5.1008   -0.8575    0.6023 N.ar    1  LIG1       -0.2482
      7 H          -1.4971   -1.0796   -0.7737 H       1  LIG1        0.0655
      8 H          -2.6263   -3.0909    0.1340 H       1  LIG1        0.0636
      9 C          -5.2076   -3.2226    1.1357 C.3     1  LIG1       -0.0223
     10 H          -4.6118   -4.1378    1.0834 H       1  LIG1        0.0292
     11 H          -6.1322   -3.3767    0.5700 H       1  LIG1        0.0292
     12 H          -5.4961   -3.0556    2.1787 H       1  LIG1        0.0292
     13 O          -2.6951    1.3773   -0.8933 O.3     1  LIG1       -0.4930
     14 C          -1.4060    1.3576   -1.4892 C.3     1  LIG1        0.0789
     15 H          -1.2266    2.3718   -1.8476 H       1  LIG1        0.0660
     16 H          -0.6276    1.0877   -0.7642 H       1  LIG1        0.0660
     17 H          -1.3654    0.6615   -2.3366 H       1  LIG1        0.0660
     18 C          -4.9289    2.6677    0.8845 C.ar    1  LIG1        0.0477
     19 C          -5.3120    1.5012    0.1779 C.ar    1  LIG1        0.0284
     20 C          -6.5420    1.4975   -0.4737 C.ar    1  LIG1       -0.0074
     21 C          -7.3430    2.6418   -0.4581 C.ar    1  LIG1        0.1387
     22 C          -6.8707    3.7572    0.2387 C.ar    1  LIG1        0.0695
     23 N          -5.7055    3.7569    0.8984 N.ar    1  LIG1       -0.2559
     24 H          -6.8883    0.6114   -0.9947 H       1  LIG1        0.0662
     25 H          -7.4428    4.6794    0.2869 H       1  LIG1        0.0867
     26 C          -3.6585    2.7537    1.6939 C.3     1  LIG1       -0.0217
     27 H          -3.7439    3.5803    2.4010 H       1  LIG1        0.0293
     28 H          -2.7933    2.9351    1.0483 H       1  LIG1        0.0293
     29 H          -3.4660    1.8275    2.2445 H       1  LIG1        0.0293
     30 O          -8.5293    2.5694   -1.1297 O.3     1  LIG1       -0.4936
     31 C          -9.3640    3.7179   -1.1250 C.3     1  LIG1        0.0789
     32 H         -10.2477    3.4505   -1.7062 H       1  LIG1        0.0660
     33 H          -9.6704    3.9919   -0.1074 H       1  LIG1        0.0660
     34 H          -8.8710    4.5794   -1.5936 H       1  LIG1        0.0660
@<TRIPOS>BOND
     1    17    14    1
     2    15    14    1
     3    32    31    1
     4    34    31    1
     5    14    13    1
     6    14    16    1
     7    30    31    1
     8    30    21    1
     9    31    33    1
    10    24    20    1
    11    13     4    1
    12     7     3    1
    13    20    21   ar
    14    20    19   ar
    15    21    22   ar
    16     4     3   ar
    17     4     5   ar
    18     3     2   ar
    19     2     8    1
    20     2     1   ar
    21     5    19    1
    22     5     6   ar
    23    19    18   ar
    24    22    25    1
    25    22    23   ar
    26    11     9    1
    27     1     6   ar
    28     1     9    1
    29    18    23   ar
    30    18    26    1
    31    28    26    1
    32    10     9    1
    33     9    12    1
    34    26    29    1
    35    26    27    1
