@<TRIPOS>MOLECULE
mol_data/opt/b3lyp/geoms/mol2/6la12fh12fi-4de-.out
 49 52 0 0 0
SMALL
GASTEIGER

@<TRIPOS>ATOM
      1 C          -4.0685   -2.0184   -0.0692 C.ar    1  LIG1        0.2150
      2 C          -2.6697   -1.9027   -0.1654 C.ar    1  LIG1        0.0000
      3 C          -2.1484   -0.6214   -0.2705 C.ar    1  LIG1       -0.0546
      4 C          -3.0013    0.4839   -0.2786 C.ar    1  LIG1       -0.0323
      5 C          -4.3816    0.2528   -0.1760 C.ar    1  LIG1        0.1135
      6 N          -4.9033   -0.9911   -0.0717 N.ar    1  LIG1       -0.2097
      7 H          -1.0745   -0.4770   -0.3477 H       1  LIG1        0.0620
      8 H          -2.0496   -2.7910   -0.1566 H       1  LIG1        0.0671
      9 O          -4.5674   -3.2744    0.0305 O.3     1  LIG1       -0.4796
     10 C          -5.9887   -3.3995    0.1198 C.3     1  LIG1        0.0804
     11 H          -6.1805   -4.4718    0.1825 H       1  LIG1        0.0660
     12 H          -6.3764   -2.8909    1.0072 H       1  LIG1        0.0660
     13 H          -6.4802   -2.9754   -0.7603 H       1  LIG1        0.0660
     14 H          -2.6192    1.4937   -0.3601 H       1  LIG1        0.0640
     15 C          -5.3187    1.3599   -0.1767 C.ar    1  LIG1        0.1971
     16 C          -5.1701    2.7281   -0.2642 C.ar    1  LIG1        0.1861
     17 C          -6.4647    3.3161   -0.2291 C.ar    1  LIG1        0.1170
     18 C          -7.3497    2.2631   -0.0961 C.ar    1  LIG1        0.1985
     19 O          -6.6640    1.0853   -0.0629 O.2     1  LIG1       -0.4443
     20 O          -4.0246    3.4436   -0.3660 O.3     1  LIG1       -0.5019
     21 H          -4.2913    4.3726   -0.2443 H       1  LIG1        0.2924
     22 N          -6.6307    4.7214   -0.3071 N.pl3   1  LIG1       -0.3521
     23 H          -6.7281    5.0280   -1.2732 H       1  LIG1        0.1425
     24 H          -7.4619    5.0227    0.1949 H       1  LIG1        0.1425
     25 C          -8.7743    2.2019    0.0430 C.ar    1  LIG1        0.2139
     26 C          -9.7364    3.1326    0.3713 C.ar    1  LIG1        0.1694
     27 C         -11.0092    2.4891    0.3495 C.ar    1  LIG1        0.0376
     28 C         -10.7464    1.1829   -0.0134 C.ar    1  LIG1        0.1436
     29 O          -9.3976    1.0049   -0.1836 O.2     1  LIG1       -0.4475
     30 O          -9.4738    4.4260    0.7315 O.3     1  LIG1       -0.5029
     31 H         -10.3052    4.9161    0.7719 H       1  LIG1        0.2923
     32 C         -12.2956    3.1349    0.7681 C.3     1  LIG1       -0.0326
     33 H         -13.0063    2.3972    1.1469 H       1  LIG1        0.0280
     34 H         -12.7895    3.6592   -0.0567 H       1  LIG1        0.0280
     35 H         -12.1156    3.8513    1.5795 H       1  LIG1        0.0280
     36 C         -12.8423   -0.0382   -0.7382 C.ar    1  LIG1        0.0625
     37 C         -13.5792   -1.2358   -0.7994 C.ar    1  LIG1       -0.0425
     38 C         -11.5500   -0.0257   -0.1510 C.ar    1  LIG1        0.0361
     39 C         -13.0464   -2.4221   -0.3242 C.ar    1  LIG1       -0.0451
     40 H         -14.5664   -1.2209   -1.2484 H       1  LIG1        0.0631
     41 C         -11.0169   -1.2446    0.2983 C.ar    1  LIG1       -0.0344
     42 C         -11.7442   -2.4393    0.2182 C.ar    1  LIG1        0.0254
     43 H         -10.0214   -1.2541    0.7255 H       1  LIG1        0.0637
     44 H         -13.6168   -3.3423   -0.3786 H       1  LIG1        0.0630
     45 N         -13.8733    2.0451   -1.8917 N.1     1  LIG1       -0.1908
     46 C         -13.3996    1.1240   -1.3595 C.1     1  LIG1        0.0999
     47 C         -11.1773   -3.6602    0.6958 C.1     1  LIG1       -0.0696
     48 C         -10.7028   -4.6976    1.0986 C.1     1  LIG1       -0.1139
     49 H         -10.2825   -5.6097    1.4553 H       1  LIG1        0.1232
@<TRIPOS>BOND
     1    45    46    3
     2    46    36    1
     3    23    22    1
     4    40    37    1
     5    37    36   ar
     6    37    39   ar
     7    13    10    1
     8    36    38   ar
     9    44    39    1
    10    20    16    1
    11    20    21    1
    12    14     4    1
    13     7     3    1
    14    39    42   ar
    15    22    17    1
    16    22    24    1
    17     4     3   ar
    18     4     5   ar
    19     3     2   ar
    20    16    17   ar
    21    16    15   ar
    22    17    18   ar
    23    29    28   ar
    24    29    25   ar
    25    15     5    1
    26    15    19   ar
    27     5     6   ar
    28     2     8    1
    29     2     1   ar
    30    38    28    1
    31    38    41   ar
    32    18    19   ar
    33    18    25    1
    34     6     1   ar
    35     1     9    1
    36    34    32    1
    37    28    27   ar
    38     9    10    1
    39    25    26   ar
    40    10    11    1
    41    10    12    1
    42    42    41   ar
    43    42    47    1
    44    41    43    1
    45    27    26   ar
    46    27    32    1
    47    26    30    1
    48    47    48    3
    49    30    31    1
    50    32    33    1
    51    32    35    1
    52    48    49    1
