@<TRIPOS>MOLECULE
mol_data/opt/b3lyp/geoms/mol2/6la12ha13ff13ef-.out
 45 48 0 0 0
SMALL
GASTEIGER

@<TRIPOS>ATOM
      1 C          -4.2313   -2.0511    0.1100 C.ar    1  LIG1        0.2150
      2 C          -2.8742   -1.9823    0.4748 C.ar    1  LIG1        0.0000
      3 C          -2.3570   -0.7203    0.7251 C.ar    1  LIG1       -0.0546
      4 C          -3.1680    0.4082    0.5932 C.ar    1  LIG1       -0.0324
      5 C          -4.5047    0.2317    0.1901 C.ar    1  LIG1        0.1116
      6 N          -5.0242   -1.0019   -0.0362 N.ar    1  LIG1       -0.2097
      7 H          -1.3225   -0.6093    1.0381 H       1  LIG1        0.0620
      8 H          -2.2876   -2.8886    0.5633 H       1  LIG1        0.0671
      9 O          -4.7318   -3.2932   -0.1060 O.3     1  LIG1       -0.4796
     10 C          -6.1061   -3.3821   -0.4805 C.3     1  LIG1        0.0804
     11 H          -6.3013   -4.4474   -0.6144 H       1  LIG1        0.0660
     12 H          -6.7564   -2.9731    0.2988 H       1  LIG1        0.0660
     13 H          -6.3000   -2.8395   -1.4105 H       1  LIG1        0.0660
     14 H          -2.7951    1.3906    0.8557 H       1  LIG1        0.0640
     15 C          -5.3867    1.3614    0.0015 C.ar    1  LIG1        0.1745
     16 C          -5.1731    2.7231   -0.1647 C.ar    1  LIG1        0.0732
     17 C          -6.4531    3.3317   -0.3055 C.ar    1  LIG1        0.0072
     18 C          -7.3750    2.3138   -0.2309 C.ar    1  LIG1        0.1574
     19 O          -6.7489    1.1188   -0.0564 O.2     1  LIG1       -0.4498
     20 N          -3.9511    3.3977   -0.1720 N.pl3   1  LIG1       -0.3550
     21 H          -3.1943    2.8639   -0.5829 H       1  LIG1        0.1424
     22 H          -4.0115    4.3119   -0.6025 H       1  LIG1        0.1424
     23 H          -6.6756    4.3787   -0.4493 H       1  LIG1        0.0675
     24 C          -8.8027    2.2848   -0.2876 C.ar    1  LIG1        0.1284
     25 C          -9.7292    3.3145   -0.3833 C.ar    1  LIG1        0.1879
     26 C         -11.0257    2.7504   -0.3252 C.ar    1  LIG1        0.1864
     27 C         -10.8861    1.3691   -0.1891 C.ar    1  LIG1        0.1105
     28 N          -9.5211    1.0972   -0.2116 N.ar    1  LIG1       -0.3447
     29 H          -9.1144    0.2851    0.2304 H       1  LIG1        0.1663
     30 O          -9.4457    4.6344   -0.5490 O.3     1  LIG1       -0.5018
     31 H         -10.2956    5.0996   -0.5764 H       1  LIG1        0.2924
     32 O         -12.1262    3.5315   -0.4999 O.3     1  LIG1       -0.5019
     33 H         -12.8905    3.1414   -0.0344 H       1  LIG1        0.2924
     34 C         -11.8639    0.3166   -0.1510 C.ar    1  LIG1        0.0858
     35 C         -13.2011    0.3193    0.2795 C.ar    1  LIG1        0.0928
     36 C         -13.7098   -1.0031    0.0537 C.ar    1  LIG1        0.1501
     37 C         -12.7012   -1.7673   -0.4828 C.ar    1  LIG1        0.0454
     38 N         -11.5768   -0.9550   -0.5784 N.ar    1  LIG1       -0.3554
     39 H         -10.7634   -1.1745   -1.1316 H       1  LIG1        0.1655
     40 H         -12.6774   -2.8049   -0.7778 H       1  LIG1        0.0845
     41 C         -13.8852    1.3976    0.8827 C.1     1  LIG1       -0.0638
     42 C         -14.4592    2.3441    1.3834 C.1     1  LIG1       -0.1137
     43 H         -14.9704    3.1306    1.8887 H       1  LIG1        0.1232
     44 O         -14.9846   -1.3522    0.3779 O.3     1  LIG1       -0.5040
     45 H         -15.1199   -2.2842    0.1653 H       1  LIG1        0.2923
@<TRIPOS>BOND
     1    13    10    1
     2    39    38    1
     3    40    37    1
     4    11    10    1
     5    22    20    1
     6    21    20    1
     7    38    37   ar
     8    38    34   ar
     9    31    30    1
    10    30    25    1
    11    32    26    1
    12    32    33    1
    13    37    36   ar
    14    10     9    1
    15    10    12    1
    16    23    17    1
    17    25    26   ar
    18    25    24   ar
    19    26    27   ar
    20    17    18   ar
    21    17    16   ar
    22    24    18    1
    23    24    28   ar
    24    18    19   ar
    25    28    27   ar
    26    28    29    1
    27    27    34    1
    28    20    16    1
    29    16    15   ar
    30    34    35   ar
    31     9     1    1
    32    19    15   ar
    33     6     1   ar
    34     6     5   ar
    35    15     5    1
    36    36    35   ar
    37    36    44    1
    38     1     2   ar
    39    45    44    1
    40     5     4   ar
    41    35    41    1
    42     2     8    1
    43     2     3   ar
    44     4     3   ar
    45     4    14    1
    46     3     7    1
    47    41    42    3
    48    42    43    1
