@<TRIPOS>MOLECULE
mol_data/opt/b3lyp/geoms/mol2/6la6fi-4de12ld-13la12ah12il13ee.out
 100 107 0 0 0
SMALL
GASTEIGER

@<TRIPOS>ATOM
      1 C          -5.0054   -2.4083   -1.4034 C.ar    1  LIG1        0.2149
      2 C          -3.7860   -2.8358   -0.8541 C.ar    1  LIG1        0.0000
      3 C          -3.1324   -1.9569   -0.0058 C.ar    1  LIG1       -0.0547
      4 C          -3.6848   -0.7059    0.2800 C.ar    1  LIG1       -0.0353
      5 C          -4.9114   -0.3575   -0.2957 C.ar    1  LIG1        0.0799
      6 N          -5.5448   -1.2244   -1.1322 N.ar    1  LIG1       -0.2127
      7 H          -2.1817   -2.2390    0.4367 H       1  LIG1        0.0620
      8 H          -3.3936   -3.8128   -1.1078 H       1  LIG1        0.0671
      9 O          -5.6314   -3.2584   -2.2395 O.3     1  LIG1       -0.4796
     10 C          -6.8455   -2.8225   -2.8667 C.3     1  LIG1        0.0804
     11 H          -7.1418   -3.6449   -3.5178 H       1  LIG1        0.0660
     12 H          -7.6307   -2.6296   -2.1296 H       1  LIG1        0.0660
     13 H          -6.6771   -1.9197   -3.4616 H       1  LIG1        0.0660
     14 H          -3.1582   -0.0225    0.9327 H       1  LIG1        0.0639
     15 C          -6.8167    1.2849   -0.6965 C.ar    1  LIG1        0.2223
     16 C          -5.5896    0.9350   -0.0525 C.ar    1  LIG1        0.0621
     17 C          -5.0921    1.8842    0.8452 C.ar    1  LIG1       -0.0425
     18 C          -5.7111    3.1157    1.0761 C.ar    1  LIG1       -0.0236
     19 C          -6.8802    3.3638    0.3302 C.ar    1  LIG1        0.0790
     20 N          -7.4158    2.4534   -0.4994 N.ar    1  LIG1       -0.2122
     21 H          -4.1952    1.6605    1.4143 H       1  LIG1        0.0629
     22 O          -7.4555    0.4632   -1.5328 O.3     1  LIG1       -0.4919
     23 H          -6.9208   -0.3780   -1.5620 H       1  LIG1        0.2937
     24 C          -5.1515    4.0503    2.1227 C.3     1  LIG1       -0.0377
     25 H          -5.9246    4.7024    2.5369 H       1  LIG1        0.0278
     26 H          -4.3637    4.6932    1.7182 H       1  LIG1        0.0278
     27 H          -4.7237    3.4769    2.9510 H       1  LIG1        0.0278
     28 C          -7.2267    5.9237    0.2125 C.ar    1  LIG1        0.0617
     29 C          -8.1127    7.0077    0.1773 C.ar    1  LIG1       -0.0317
     30 C          -7.7032    4.6065    0.4130 C.ar    1  LIG1        0.0193
     31 C          -9.5000    6.8414    0.3241 C.ar    1  LIG1        0.0376
     32 H          -7.7208    7.9984   -0.0134 H       1  LIG1        0.0638
     33 C          -9.0784    4.4500    0.5784 C.ar    1  LIG1       -0.0352
     34 C          -9.9873    5.5160    0.5444 C.ar    1  LIG1        0.0361
     35 H          -9.4652    3.4487    0.7220 H       1  LIG1        0.0637
     36 N          -4.7349    6.4467   -0.3038 N.1     1  LIG1       -0.1908
     37 C          -5.8461    6.1950   -0.0676 C.1     1  LIG1        0.0998
     38 C         -11.3600    5.1594    0.7362 C.1     1  LIG1       -0.0689
     39 C         -12.4757    4.7197    0.9198 C.1     1  LIG1       -0.1139
     40 H         -13.4685    4.3607    1.0755 H       1  LIG1        0.1232
     41 C         -10.3744    7.9842    0.1930 C.ar    1  LIG1        0.1797
     42 C         -10.1985    9.3544    0.1579 C.ar    1  LIG1        0.1838
     43 C         -11.4972    9.9547   -0.0624 C.ar    1  LIG1        0.1412
     44 C         -12.3938    8.8865   -0.1569 C.ar    1  LIG1        0.1764
     45 O         -11.7107    7.7276   -0.0055 O.2     1  LIG1       -0.4481
     46 O          -8.9855    9.9314    0.2767 O.3     1  LIG1       -0.4901
     47 C          -8.8920   11.2788    0.7626 C.3     1  LIG1        0.0790
     48 H          -7.8337   11.4373    0.9715 H       1  LIG1        0.0660
     49 H          -9.2329   11.9961    0.0133 H       1  LIG1        0.0660
     50 H          -9.4725   11.4041    1.6819 H       1  LIG1        0.0660
     51 N         -11.9905   12.4769   -0.3001 N.1     1  LIG1       -0.1906
     52 C         -11.7921   11.3335   -0.1950 C.1     1  LIG1        0.1068
     53 C         -13.7842    8.6782   -0.3775 C.ar    1  LIG1        0.1262
     54 C         -14.8829    9.5061   -0.6726 C.ar    1  LIG1        0.1490
     55 C         -16.0190    8.6881   -0.8422 C.ar    1  LIG1        0.0092
     56 C         -15.6002    7.3639   -0.6476 C.ar    1  LIG1        0.0863
     57 N         -14.2677    7.3810   -0.3692 N.ar    1  LIG1       -0.3464
     58 H         -13.6925    6.5668   -0.1940 H       1  LIG1        0.1662
     59 O         -14.7596   10.8451   -0.7583 O.3     1  LIG1       -0.4929
     60 C         -15.9334   11.5831   -1.0744 C.3     1  LIG1        0.0789
     61 H         -15.6292   12.6292   -1.1048 H       1  LIG1        0.0660
     62 H         -16.3358   11.2873   -2.0512 H       1  LIG1        0.0660
     63 H         -16.7055   11.4462   -0.3070 H       1  LIG1        0.0660
     64 H         -17.0258    9.0051   -1.0648 H       1  LIG1        0.0677
     65 C         -16.3186    6.1215   -0.7002 C.ar    1  LIG1        0.1539
     66 C         -17.5806    5.7672   -1.1095 C.ar    1  LIG1        0.0071
     67 C         -17.6789    4.3509   -0.9655 C.ar    1  LIG1        0.0747
     68 C         -16.4691    3.9189   -0.4505 C.ar    1  LIG1        0.1915
     69 O         -15.6323    5.0126   -0.2911 O.2     1  LIG1       -0.4483
     70 H         -18.3386    6.4317   -1.4988 H       1  LIG1        0.0675
     71 N         -18.7949    3.5712   -1.2677 N.pl3   1  LIG1       -0.3549
     72 H         -19.3616    3.9566   -2.0127 H       1  LIG1        0.1424
     73 H         -18.5632    2.6044   -1.4619 H       1  LIG1        0.1424
     74 C         -15.9907    2.6282   -0.0450 C.ar    1  LIG1        0.1790
     75 C         -16.6072    1.5668    0.5770 C.ar    1  LIG1        0.0408
     76 C         -15.6005    0.5539    0.7042 C.ar    1  LIG1        0.1707
     77 C         -14.4259    1.0464    0.1738 C.ar    1  LIG1        0.1947
     78 O         -14.6646    2.3239   -0.2899 O.2     1  LIG1       -0.4461
     79 C         -17.9862    1.4988    1.1589 C.3     1  LIG1       -0.0325
     80 H         -17.9655    0.9065    2.0786 H       1  LIG1        0.0280
     81 H         -18.7116    1.0245    0.4861 H       1  LIG1        0.0280
     82 H         -18.3657    2.4963    1.3912 H       1  LIG1        0.0280
     83 O         -15.7622   -0.6238    1.3668 O.3     1  LIG1       -0.4910
     84 C         -16.5054   -1.6224    0.6609 C.3     1  LIG1        0.0790
     85 H         -16.6199   -2.4609    1.3495 H       1  LIG1        0.0660
     86 H         -17.4971   -1.2545    0.3708 H       1  LIG1        0.0660
     87 H         -15.9601   -1.9579   -0.2269 H       1  LIG1        0.0660
     88 C         -13.0693    0.5778    0.0413 C.ar    1  LIG1        0.1026
     89 C         -12.4561   -0.6694    0.2322 C.ar    1  LIG1        0.0684
     90 C         -11.0507   -0.4951   -0.0642 C.ar    1  LIG1        0.0580
     91 C         -10.8676    0.8276   -0.4328 C.ar    1  LIG1        0.0189
     92 N         -12.0802    1.4513   -0.3672 N.ar    1  LIG1       -0.3560
     93 H         -12.2376    2.4353   -0.5318 H       1  LIG1        0.1655
     94 H          -9.9676    1.3420   -0.7397 H       1  LIG1        0.0820
     95 C         -13.0249   -1.9099    0.6035 C.1     1  LIG1       -0.0662
     96 C         -13.4176   -3.0189    0.8926 C.1     1  LIG1       -0.1138
     97 H         -13.7675   -3.9836    1.1760 H       1  LIG1        0.1232
     98 C         -10.0545   -1.4976    0.0423 C.1     1  LIG1       -0.0669
     99 C          -9.2278   -2.3741    0.1660 C.1     1  LIG1       -0.1138
    100 H          -8.5008   -3.1370    0.3188 H       1  LIG1        0.1232
@<TRIPOS>BOND
     1    11    10    1
     2    13    10    1
     3    10     9    1
     4    10    12    1
     5     9     1    1
     6    62    60    1
     7    72    71    1
     8    23    22    1
     9    22    15    1
    10    70    66    1
    11    73    71    1
    12     1     6   ar
    13     1     2   ar
    14    71    67    1
    15     6     5   ar
    16    66    67   ar
    17    66    65   ar
    18     8     2    1
    19    61    60    1
    20    60    59    1
    21    60    63    1
    22    64    55    1
    23    67    68   ar
    24     2     3   ar
    25    55    54   ar
    26    55    56   ar
    27    59    54    1
    28    94    91    1
    29    65    56    1
    30    65    69   ar
    31    15    20   ar
    32    15    16   ar
    33    54    53   ar
    34    56    57   ar
    35    93    92    1
    36    20    19   ar
    37    68    69   ar
    38    68    74    1
    39    91    92   ar
    40    91    90   ar
    41    53    57   ar
    42    53    44    1
    43    57    58    1
    44    92    88   ar
    45    36    37    3
    46    51    52    3
    47     5    16    1
    48     5     4   ar
    49    78    74   ar
    50    78    77   ar
    51    87    84    1
    52    52    43    1
    53    44    43   ar
    54    44    45   ar
    55    37    28    1
    56    90    98    1
    57    90    89   ar
    58    43    42   ar
    59    16    17   ar
    60    74    75   ar
    61    32    29    1
    62     3     4   ar
    63     3     7    1
    64    45    41   ar
    65    49    47    1
    66    88    77    1
    67    88    89   ar
    68    98    99    3
    69    42    41   ar
    70    42    46    1
    71    99   100    1
    72    77    76   ar
    73    29    28   ar
    74    29    31   ar
    75    41    31    1
    76    28    30   ar
    77    89    95    1
    78    46    47    1
    79     4    14    1
    80    31    34   ar
    81    19    30    1
    82    19    18   ar
    83    86    84    1
    84    30    33   ar
    85    81    79    1
    86    34    33   ar
    87    34    38    1
    88    75    76   ar
    89    75    79    1
    90    33    35    1
    91    95    96    3
    92    84    85    1
    93    84    83    1
    94    76    83    1
    95    38    39    3
    96    47    48    1
    97    47    50    1
    98    17    18   ar
    99    17    21    1
   100    96    97    1
   101    39    40    1
   102    18    24    1
   103    79    82    1
   104    79    80    1
   105    26    24    1
   106    24    25    1
   107    24    27    1
