@<TRIPOS>MOLECULE
mol_data/opt/b3lyp/geoms/mol2/6la6la6la6la.out
 54 57 0 0 0
SMALL
GASTEIGER

@<TRIPOS>ATOM
      1 C          -4.1299   -2.2380   -0.0006 C.ar    1  LIG1        0.2149
      2 C          -2.7279   -2.1505   -0.0002 C.ar    1  LIG1        0.0000
      3 C          -2.1889   -0.8746    0.0004 C.ar    1  LIG1       -0.0547
      4 C          -3.0274    0.2422    0.0005 C.ar    1  LIG1       -0.0353
      5 C          -4.4200    0.0539    0.0000 C.ar    1  LIG1        0.0799
      6 N          -4.9399   -1.1919   -0.0005 N.ar    1  LIG1       -0.2127
      7 H          -1.1111   -0.7388    0.0008 H       1  LIG1        0.0620
      8 H          -2.1212   -3.0483   -0.0003 H       1  LIG1        0.0671
      9 O          -4.6631   -3.4828   -0.0012 O.3     1  LIG1       -0.4796
     10 C          -6.0913   -3.5707   -0.0017 C.3     1  LIG1        0.0804
     11 H          -6.3133   -4.6389   -0.0021 H       1  LIG1        0.0660
     12 H          -6.5165   -3.0902    0.8837 H       1  LIG1        0.0660
     13 H          -6.5159   -3.0896   -0.8871 H       1  LIG1        0.0660
     14 H          -2.5840    1.2288    0.0010 H       1  LIG1        0.0639
     15 C          -6.7886    1.1146   -0.0000 C.ar    1  LIG1        0.2244
     16 C          -5.3623    1.2053    0.0001 C.ar    1  LIG1        0.0620
     17 C          -4.8872    2.5240    0.0003 C.ar    1  LIG1       -0.0454
     18 C          -5.7289    3.6268    0.0003 C.ar    1  LIG1       -0.0347
     19 C          -7.1179    3.4206    0.0002 C.ar    1  LIG1        0.0799
     20 N          -7.5967    2.1663    0.0000 N.ar    1  LIG1       -0.2122
     21 H          -3.8199    2.7093    0.0004 H       1  LIG1        0.0626
     22 O          -7.3774   -0.0973   -0.0002 O.3     1  LIG1       -0.4792
     23 C          -8.8090   -0.1183   -0.0003 C.3     1  LIG1        0.0804
     24 H          -9.0732   -1.1771   -0.0004 H       1  LIG1        0.0660
     25 H          -9.2133    0.3803    0.8843 H       1  LIG1        0.0660
     26 H          -9.2132    0.3804   -0.8848 H       1  LIG1        0.0660
     27 H          -5.2900    4.6156    0.0005 H       1  LIG1        0.0639
     28 C          -9.5053    4.4318    0.0003 C.ar    1  LIG1        0.2244
     29 C          -8.0813    4.5499    0.0002 C.ar    1  LIG1        0.0620
     30 C          -7.6301    5.8772    0.0001 C.ar    1  LIG1       -0.0454
     31 C          -8.4926    6.9636    0.0000 C.ar    1  LIG1       -0.0347
     32 C          -9.8774    6.7311    0.0001 C.ar    1  LIG1        0.0799
     33 N         -10.3325    5.4686    0.0003 N.ar    1  LIG1       -0.2122
     34 H          -6.5662    6.0811   -0.0001 H       1  LIG1        0.0626
     35 O         -10.0701    3.2088    0.0005 O.3     1  LIG1       -0.4792
     36 C         -11.5014    3.1593    0.0006 C.3     1  LIG1        0.0804
     37 H         -11.7445    2.0956    0.0008 H       1  LIG1        0.0660
     38 H         -11.9148    3.6498    0.8855 H       1  LIG1        0.0660
     39 H         -11.9149    3.6496   -0.8842 H       1  LIG1        0.0660
     40 H          -8.0715    7.9599   -0.0000 H       1  LIG1        0.0639
     41 C         -12.2882    7.6855    0.0006 C.ar    1  LIG1        0.2239
     42 C         -10.8646    7.8452    0.0001 C.ar    1  LIG1        0.0619
     43 C         -10.4278    9.1768   -0.0005 C.ar    1  LIG1       -0.0460
     44 C         -11.3174   10.2485   -0.0005 C.ar    1  LIG1       -0.0427
     45 C         -12.6737    9.9575   -0.0001 C.ar    1  LIG1        0.0314
     46 N         -13.1438    8.7064    0.0005 N.ar    1  LIG1       -0.2208
     47 H          -9.3663    9.3921   -0.0009 H       1  LIG1        0.0626
     48 H         -13.4208   10.7492   -0.0001 H       1  LIG1        0.0831
     49 O         -12.8174    6.4482    0.0012 O.3     1  LIG1       -0.4792
     50 C         -14.2455    6.3493    0.0017 C.3     1  LIG1        0.0804
     51 H         -14.4525    5.2782    0.0021 H       1  LIG1        0.0660
     52 H         -14.6765    6.8215    0.8884 H       1  LIG1        0.0660
     53 H         -14.6771    6.8209   -0.8851 H       1  LIG1        0.0660
     54 H         -10.9624   11.2732   -0.0010 H       1  LIG1        0.0633
@<TRIPOS>BOND
     1    13    10    1
     2    53    50    1
     3    26    23    1
     4    39    36    1
     5    11    10    1
     6    10     9    1
     7    10    12    1
     8     9     1    1
     9    54    44    1
    10    47    43    1
    11     1     6   ar
    12     1     2   ar
    13    44    43   ar
    14    44    45   ar
    15     6     5   ar
    16    43    42   ar
    17    24    23    1
    18     8     2    1
    19    23    22    1
    20    23    25    1
    21     2     3   ar
    22    22    15    1
    23    48    45    1
    24    45    46   ar
    25    34    30    1
    26    15    20   ar
    27    15    16   ar
    28    40    31    1
    29    20    19   ar
    30     5    16    1
    31     5     4   ar
    32    31    30   ar
    33    31    32   ar
    34    30    29   ar
    35    42    32    1
    36    42    41   ar
    37    16    17   ar
    38    32    33   ar
    39    19    29    1
    40    19    18   ar
    41    29    28   ar
    42    33    28   ar
    43    17    18   ar
    44    17    21    1
    45    28    35    1
    46    18    27    1
    47     3     4   ar
    48     3     7    1
    49    46    41   ar
    50    35    36    1
    51     4    14    1
    52    41    49    1
    53    36    37    1
    54    36    38    1
    55    49    50    1
    56    50    51    1
    57    50    52    1
