@<TRIPOS>MOLECULE
mol_data/opt/b3lyp/geoms/mol2/6ld12fd13dh-6df.out
 47 50 0 0 0
SMALL
GASTEIGER

@<TRIPOS>ATOM
      1 C          -4.3320   -2.0115   -0.0286 C.ar    1  LIG1        0.2151
      2 C          -3.0122   -2.0382    0.4742 C.ar    1  LIG1        0.0012
      3 C          -2.4714   -0.8469    0.9021 C.ar    1  LIG1       -0.0371
      4 C          -3.2218    0.3476    0.8122 C.ar    1  LIG1        0.0811
      5 C          -4.5100    0.2704    0.2374 C.ar    1  LIG1        0.1308
      6 N          -5.0478   -0.9016   -0.1515 N.ar    1  LIG1       -0.2084
      7 H          -1.4745   -0.8121    1.3282 H       1  LIG1        0.0633
      8 H          -2.4716   -2.9752    0.5267 H       1  LIG1        0.0671
      9 O          -4.8574   -3.1847   -0.4056 O.3     1  LIG1       -0.4796
     10 C          -6.1970   -3.1746   -0.9315 C.3     1  LIG1        0.0804
     11 H          -6.4128   -4.2135   -1.1790 H       1  LIG1        0.0660
     12 H          -6.9065   -2.8020   -0.1910 H       1  LIG1        0.0660
     13 H          -6.2657   -2.5443   -1.8198 H       1  LIG1        0.0660
     14 N          -2.2332    2.4859    1.8906 N.1     1  LIG1       -0.1908
     15 C          -2.6893    1.5437    1.3815 C.1     1  LIG1        0.1014
     16 C          -5.3498    1.4414    0.0228 C.ar    1  LIG1        0.1977
     17 C          -5.1189    2.7418   -0.3648 C.ar    1  LIG1        0.1827
     18 C          -6.4001    3.3810   -0.5009 C.ar    1  LIG1        0.1409
     19 C          -7.3459    2.4143   -0.1904 C.ar    1  LIG1        0.1742
     20 O          -6.7162    1.2548    0.1086 O.2     1  LIG1       -0.4466
     21 O          -3.9220    3.2776   -0.6455 O.3     1  LIG1       -0.5023
     22 H          -4.0123    4.2297   -0.8026 H       1  LIG1        0.2923
     23 N          -6.4968    5.7847   -1.4185 N.1     1  LIG1       -0.1906
     24 C          -6.5322    4.7031   -0.9874 C.1     1  LIG1        0.1067
     25 C          -8.7795    2.3646   -0.1356 C.ar    1  LIG1        0.1034
     26 C          -9.7693    3.3613   -0.0576 C.ar    1  LIG1        0.1012
     27 C         -11.0347    2.7052   -0.0170 C.ar    1  LIG1        0.0686
     28 C         -10.7962    1.3210   -0.0569 C.ar    1  LIG1        0.0721
     29 N          -9.4194    1.1639   -0.1392 N.ar    1  LIG1       -0.3491
     30 H          -8.9325    0.2828   -0.2401 H       1  LIG1        0.1661
     31 N          -9.6499    5.9277    0.1331 N.1     1  LIG1       -0.1907
     32 C          -9.6368    4.7663    0.0367 C.1     1  LIG1        0.1033
     33 N         -12.2508    3.3633    0.0948 N.pl3   1  LIG1       -0.3553
     34 H         -12.1756    4.3659   -0.0352 H       1  LIG1        0.1424
     35 H         -13.0022    2.9749   -0.4616 H       1  LIG1        0.1424
     36 C         -11.5036   -1.1051   -0.4335 C.ar    1  LIG1        0.1494
     37 C         -11.7494    0.2232    0.0214 C.ar    1  LIG1        0.0394
     38 C         -13.0155    0.4460    0.5939 C.ar    1  LIG1       -0.0068
     39 C         -13.9437   -0.5868    0.6666 C.ar    1  LIG1        0.1356
     40 C         -13.5911   -1.8543    0.1694 C.ar    1  LIG1        0.0705
     41 N         -12.4006   -2.1012   -0.3545 N.ar    1  LIG1       -0.2403
     42 H         -13.2687    1.4080    1.0227 H       1  LIG1        0.0662
     43 H         -14.2968   -2.6842    0.2074 H       1  LIG1        0.0867
     44 N          -9.2181   -1.7798   -1.4774 N.1     1  LIG1       -0.1893
     45 C         -10.2487   -1.4874   -1.0211 C.1     1  LIG1        0.1198
     46 O         -15.1472   -0.3254    1.2297 O.3     1  LIG1       -0.5052
     47 H         -15.6855   -1.1291    1.2455 H       1  LIG1        0.2922
@<TRIPOS>BOND
     1    13    10    1
     2    44    45    3
     3    23    24    3
     4    11    10    1
     5    45    36    1
     6    24    18    1
     7    10     9    1
     8    10    12    1
     9    22    21    1
    10    21    17    1
    11    18    17   ar
    12    18    19   ar
    13    35    33    1
    14    36    41   ar
    15    36    37   ar
    16     9     1    1
    17    17    16   ar
    18    41    40   ar
    19    30    29    1
    20    19    25    1
    21    19    20   ar
    22     6     1   ar
    23     6     5   ar
    24    29    25   ar
    25    29    28   ar
    26    25    26   ar
    27    26    27   ar
    28    26    32    1
    29    28    27   ar
    30    28    37    1
    31    34    33    1
    32     1     2   ar
    33    27    33    1
    34    37    38   ar
    35    16    20   ar
    36    16     5    1
    37    32    31    3
    38    40    43    1
    39    40    39   ar
    40     5     4   ar
    41     2     8    1
    42     2     3   ar
    43    38    39   ar
    44    38    42    1
    45    39    46    1
    46     4     3   ar
    47     4    15    1
    48     3     7    1
    49    46    47    1
    50    15    14    3
