@<TRIPOS>MOLECULE
mol_data/opt/b3lyp/geoms/mol2/6ld12ae12ee-13fh.out
 47 50 0 0 0
SMALL
GASTEIGER

@<TRIPOS>ATOM
      1 C          -4.3822   -1.9769    0.6204 C.ar    1  LIG1        0.2151
      2 C          -2.9832   -2.0378    0.4543 C.ar    1  LIG1        0.0012
      3 C          -2.3504   -0.8782    0.0648 C.ar    1  LIG1       -0.0371
      4 C          -3.0923    0.3031   -0.1498 C.ar    1  LIG1        0.0809
      5 C          -4.4966    0.2572    0.0470 C.ar    1  LIG1        0.1271
      6 N          -5.1050   -0.8860    0.4242 N.ar    1  LIG1       -0.2085
      7 H          -1.2758   -0.8565   -0.0818 H       1  LIG1        0.0633
      8 H          -2.4504   -2.9635    0.6322 H       1  LIG1        0.0671
      9 O          -4.9926   -3.1120    1.0053 O.3     1  LIG1       -0.4796
     10 C          -6.4114   -3.0608    1.2057 C.3     1  LIG1        0.0804
     11 H          -6.6904   -4.0637    1.5296 H       1  LIG1        0.0660
     12 H          -6.6733   -2.3232    1.9681 H       1  LIG1        0.0660
     13 H          -6.9274   -2.8003    0.2777 H       1  LIG1        0.0660
     14 N          -1.7952    2.4202   -0.8884 N.1     1  LIG1       -0.1908
     15 C          -2.3922    1.4765   -0.5568 C.1     1  LIG1        0.1014
     16 C          -5.3702    1.4081   -0.1300 C.ar    1  LIG1        0.1565
     17 C          -5.1759    2.7332   -0.4364 C.ar    1  LIG1        0.0019
     18 C          -6.4611    3.3563   -0.4576 C.ar    1  LIG1        0.0741
     19 C          -7.3722    2.3526   -0.1375 C.ar    1  LIG1        0.1872
     20 O          -6.7120    1.1779    0.0516 O.2     1  LIG1       -0.4488
     21 H          -4.2401    3.2255   -0.6455 H       1  LIG1        0.0668
     22 C          -6.7251    4.6946   -0.8357 C.1     1  LIG1       -0.0657
     23 C          -6.9138    5.8355   -1.1907 C.1     1  LIG1       -0.1138
     24 H          -7.1010    6.8361   -1.5041 H       1  LIG1        0.1232
     25 C          -8.7975    2.3073    0.0006 C.ar    1  LIG1        0.1884
     26 C          -9.7645    3.2023    0.4163 C.ar    1  LIG1        0.0895
     27 C         -11.0368    2.5110    0.3247 C.ar    1  LIG1        0.0880
     28 C         -10.7472    1.2304   -0.1247 C.ar    1  LIG1        0.1721
     29 O          -9.3962    1.1111   -0.3152 O.2     1  LIG1       -0.4476
     30 C          -9.5808    4.5065    0.9288 C.1     1  LIG1       -0.0645
     31 C          -9.4519    5.6140    1.3973 C.1     1  LIG1       -0.1138
     32 H          -9.3218    6.5870    1.8106 H       1  LIG1        0.1232
     33 C         -12.2862    3.0792    0.6610 C.1     1  LIG1       -0.0646
     34 C         -13.3270    3.6176    0.9613 C.1     1  LIG1       -0.1138
     35 H         -14.2564    4.0683    1.2196 H       1  LIG1        0.1232
     36 C         -11.4849    0.0450   -0.4383 C.ar    1  LIG1        0.1272
     37 C         -12.8320   -0.3182   -0.3988 C.ar    1  LIG1        0.1659
     38 C         -12.9464   -1.6609   -0.8473 C.ar    1  LIG1        0.0849
     39 C         -11.6685   -2.1026   -1.1557 C.ar    1  LIG1        0.0268
     40 N         -10.8042   -1.0801   -0.9068 N.ar    1  LIG1       -0.3536
     41 H          -9.8065   -1.0926   -1.0431 H       1  LIG1        0.1656
     42 H         -11.3235   -3.0558   -1.5287 H       1  LIG1        0.0827
     43 O         -13.8890    0.4236   -0.0110 O.3     1  LIG1       -0.5030
     44 H         -14.6539   -0.1725   -0.1201 H       1  LIG1        0.2923
     45 N         -14.2295   -2.2813   -0.9034 N.pl3   1  LIG1       -0.3540
     46 H         -14.4864   -2.5590   -1.8463 H       1  LIG1        0.1425
     47 H         -14.2918   -3.1020   -0.3081 H       1  LIG1        0.1425
@<TRIPOS>BOND
     1    46    45    1
     2    42    39    1
     3    24    23    1
     4    23    22    3
     5    39    40   ar
     6    39    38   ar
     7    41    40    1
     8    40    36   ar
     9    45    38    1
    10    45    47    1
    11    14    15    3
    12    38    37   ar
    13    22    18    1
    14    21    17    1
    15    15     4    1
    16    18    17   ar
    17    18    19   ar
    18    36    37   ar
    19    36    28    1
    20    17    16   ar
    21    37    43    1
    22    29    28   ar
    23    29    25   ar
    24     4     5   ar
    25     4     3   ar
    26    19    25    1
    27    19    20   ar
    28    16     5    1
    29    16    20   ar
    30    28    27   ar
    31    44    43    1
    32     7     3    1
    33    25    26   ar
    34     5     6   ar
    35     3     2   ar
    36    13    10    1
    37    27    26   ar
    38    27    33    1
    39    26    30    1
    40     6     1   ar
    41     2     1   ar
    42     2     8    1
    43     1     9    1
    44    33    34    3
    45    30    31    3
    46    34    35    1
    47     9    10    1
    48    10    11    1
    49    10    12    1
    50    31    32    1
