@<TRIPOS>MOLECULE
mol_data/opt/b3lyp/geoms/mol2/6ld13ia6ad-13he.out
 49 52 0 0 0
SMALL
GASTEIGER

@<TRIPOS>ATOM
      1 C          -4.7376   -2.0482    0.5544 C.ar    1  LIG1        0.2151
      2 C          -3.3964   -2.3663    0.2530 C.ar    1  LIG1        0.0012
      3 C          -2.6243   -1.3654   -0.2910 C.ar    1  LIG1       -0.0372
      4 C          -3.1630   -0.0738   -0.4911 C.ar    1  LIG1        0.0794
      5 C          -4.4909    0.1727   -0.0667 C.ar    1  LIG1        0.1085
      6 N          -5.2587   -0.8401    0.4106 N.ar    1  LIG1       -0.2101
      7 H          -1.6013   -1.5604   -0.5953 H       1  LIG1        0.0633
      8 H          -3.0232   -3.3685    0.4220 H       1  LIG1        0.0671
      9 O          -5.4989   -3.0538    1.0230 O.3     1  LIG1       -0.4796
     10 C          -6.8597   -2.7624    1.3585 C.3     1  LIG1        0.0804
     11 H          -7.2630   -3.6934    1.7569 H       1  LIG1        0.0660
     12 H          -6.9188   -1.9687    2.1077 H       1  LIG1        0.0660
     13 H          -7.4253   -2.4582    0.4728 H       1  LIG1        0.0660
     14 N          -1.7309    1.5875   -1.8684 N.1     1  LIG1       -0.1908
     15 C          -2.3877    0.8706   -1.2271 C.1     1  LIG1        0.1014
     16 C          -5.1669    1.4617   -0.1259 C.ar    1  LIG1        0.0697
     17 C          -4.7732    2.8022    0.0234 C.ar    1  LIG1       -0.0231
     18 C          -5.9586    3.5724   -0.0195 C.ar    1  LIG1       -0.0328
     19 C          -7.0481    2.7191   -0.1811 C.ar    1  LIG1        0.0487
     20 N          -6.5437    1.4489   -0.2427 N.ar    1  LIG1       -0.3527
     21 H          -7.0624    0.5850   -0.1921 H       1  LIG1        0.1660
     22 C          -3.4083    3.3706    0.2798 C.3     1  LIG1       -0.0376
     23 H          -3.4988    4.3111    0.8311 H       1  LIG1        0.0278
     24 H          -2.8585    3.5705   -0.6448 H       1  LIG1        0.0278
     25 H          -2.7900    2.6931    0.8755 H       1  LIG1        0.0278
     26 H          -6.0046    4.6510    0.0433 H       1  LIG1        0.0642
     27 C          -9.3721    2.1076   -0.9151 C.ar    1  LIG1        0.0375
     28 C          -8.4719    3.0018   -0.2970 C.ar    1  LIG1        0.0177
     29 C          -9.0322    4.1999    0.1525 C.ar    1  LIG1       -0.0316
     30 C         -10.4072    4.4351    0.0334 C.ar    1  LIG1        0.0798
     31 C         -11.2551    3.4089   -0.4842 C.ar    1  LIG1        0.1062
     32 N         -10.6802    2.2866   -0.9949 N.ar    1  LIG1       -0.2515
     33 H          -8.4039    4.9715    0.5846 H       1  LIG1        0.0638
     34 H          -8.9946    1.2008   -1.3862 H       1  LIG1        0.0836
     35 N         -11.2592    6.8180    0.5881 N.1     1  LIG1       -0.1908
     36 C         -10.8842    5.7395    0.3536 C.1     1  LIG1        0.1014
     37 C         -12.6959    3.4227   -0.5600 C.ar    1  LIG1        0.0884
     38 C         -13.7649    4.0848    0.0861 C.ar    1  LIG1        0.0673
     39 C         -14.9811    3.4947   -0.4072 C.ar    1  LIG1        0.0632
     40 C         -14.6224    2.4970   -1.3091 C.ar    1  LIG1        0.0195
     41 N         -13.2806    2.4634   -1.3938 N.ar    1  LIG1       -0.3568
     42 H         -12.7023    1.8121   -1.9032 H       1  LIG1        0.1655
     43 H         -15.2533    1.8384   -1.8868 H       1  LIG1        0.0820
     44 N         -13.7650    5.0154    1.0970 N.pl3   1  LIG1       -0.3553
     45 H         -13.0503    5.7308    1.0988 H       1  LIG1        0.1424
     46 H         -14.6888    5.3715    1.3075 H       1  LIG1        0.1424
     47 C         -16.2832    3.8851   -0.0130 C.1     1  LIG1       -0.0663
     48 C         -17.3746    4.2605    0.3579 C.1     1  LIG1       -0.1138
     49 H         -18.3441    4.5729    0.6693 H       1  LIG1        0.1232
@<TRIPOS>BOND
     1    42    41    1
     2    43    40    1
     3    14    15    3
     4    41    40   ar
     5    41    37   ar
     6    34    27    1
     7    40    39   ar
     8    15     4    1
     9    32    27   ar
    10    32    31   ar
    11    27    28   ar
    12    24    22    1
    13     7     3    1
    14    37    31    1
    15    37    38   ar
    16     4     3   ar
    17     4     5   ar
    18    31    30   ar
    19    39    47    1
    20    39    38   ar
    21    28    19    1
    22    28    29   ar
    23     3     2   ar
    24    20    21    1
    25    20    19   ar
    26    20    16   ar
    27    19    18   ar
    28    16     5    1
    29    16    17   ar
    30     5     6   ar
    31    18    17   ar
    32    18    26    1
    33    47    48    3
    34    17    22    1
    35    30    29   ar
    36    30    36    1
    37    38    44    1
    38    29    33    1
    39     2     8    1
    40     2     1   ar
    41    22    23    1
    42    22    25    1
    43    36    35    3
    44    48    49    1
    45     6     1   ar
    46    13    10    1
    47     1     9    1
    48     9    10    1
    49    44    45    1
    50    44    46    1
    51    10    11    1
    52    10    12    1
