@<TRIPOS>MOLECULE
mol_data/opt/b3lyp/geoms/mol2/6ld6ld6ld.out
 44 46 0 0 0
SMALL
GASTEIGER

@<TRIPOS>ATOM
      1 C          -4.4492   -2.1687   -0.0003 C.ar    1  LIG1        0.2150
      2 C          -3.0453   -2.2483   -0.0002 C.ar    1  LIG1        0.0012
      3 C          -2.3677   -1.0516    0.0000 C.ar    1  LIG1       -0.0372
      4 C          -3.0621    0.1811    0.0000 C.ar    1  LIG1        0.0781
      5 C          -4.4867    0.1584   -0.0001 C.ar    1  LIG1        0.0972
      6 N          -5.1188   -1.0280   -0.0003 N.ar    1  LIG1       -0.2114
      7 H          -1.2831   -1.0330    0.0001 H       1  LIG1        0.0633
      8 H          -2.5427   -3.2075   -0.0002 H       1  LIG1        0.0671
      9 O          -5.1252   -3.3297   -0.0005 O.3     1  LIG1       -0.4796
     10 C          -6.5583   -3.2561   -0.0007 C.3     1  LIG1        0.0804
     11 H          -6.8963   -4.2924   -0.0009 H       1  LIG1        0.0660
     12 H          -6.9206   -2.7311    0.8864 H       1  LIG1        0.0660
     13 H          -6.9204   -2.7309   -0.8878 H       1  LIG1        0.0660
     14 N          -1.4570    2.2157    0.0005 N.1     1  LIG1       -0.1908
     15 C          -2.2199    1.3350    0.0003 C.1     1  LIG1        0.1013
     16 C          -6.8019    1.3241   -0.0002 C.ar    1  LIG1        0.2245
     17 C          -5.3670    1.3626   -0.0002 C.ar    1  LIG1        0.0645
     18 C          -4.8586    2.6603   -0.0002 C.ar    1  LIG1       -0.0279
     19 C          -5.6597    3.8148   -0.0002 C.ar    1  LIG1        0.0787
     20 C          -7.0732    3.6577   -0.0002 C.ar    1  LIG1        0.0973
     21 N          -7.5587    2.4122   -0.0002 N.ar    1  LIG1       -0.2109
     22 H          -3.7922    2.8266   -0.0002 H       1  LIG1        0.0639
     23 O          -7.4480    0.1518   -0.0002 O.3     1  LIG1       -0.4792
     24 C          -8.8837    0.1913   -0.0001 C.3     1  LIG1        0.0804
     25 H          -9.1890   -0.8556   -0.0001 H       1  LIG1        0.0660
     26 H          -9.2611    0.7058    0.8859 H       1  LIG1        0.0660
     27 H          -9.2612    0.7059   -0.8861 H       1  LIG1        0.0660
     28 N          -4.2725    6.0065   -0.0002 N.1     1  LIG1       -0.1908
     29 C          -4.9299    5.0451   -0.0002 C.1     1  LIG1        0.1013
     30 C          -9.5007    4.5595    0.0001 C.ar    1  LIG1        0.2240
     31 C          -8.0747    4.7646   -0.0002 C.ar    1  LIG1        0.0644
     32 C          -7.6811    6.1067   -0.0006 C.ar    1  LIG1       -0.0285
     33 C          -8.6132    7.1546   -0.0007 C.ar    1  LIG1        0.0707
     34 C          -9.9687    6.8191   -0.0003 C.ar    1  LIG1        0.0488
     35 N         -10.3854    5.5583    0.0000 N.ar    1  LIG1       -0.2195
     36 H          -6.6358    6.3744   -0.0009 H       1  LIG1        0.0639
     37 H         -10.7339    7.5914   -0.0004 H       1  LIG1        0.0844
     38 O         -10.0087    3.3218    0.0004 O.3     1  LIG1       -0.4792
     39 C         -11.4406    3.1942    0.0007 C.3     1  LIG1        0.0804
     40 H         -11.6226    2.1193    0.0010 H       1  LIG1        0.0660
     41 H         -11.8765    3.6576    0.8885 H       1  LIG1        0.0660
     42 H         -11.8769    3.6572   -0.8870 H       1  LIG1        0.0660
     43 N          -7.8930    9.6462   -0.0014 N.1     1  LIG1       -0.1908
     44 C          -8.2017    8.5246   -0.0010 C.1     1  LIG1        0.1007
@<TRIPOS>BOND
     1    13    10    1
     2    42    39    1
     3    27    24    1
     4    43    44    3
     5    44    33    1
     6    36    32    1
     7    11    10    1
     8    10     9    1
     9    10    12    1
    10    33    32   ar
    11    33    34   ar
    12    32    31   ar
    13     9     1    1
    14    37    34    1
    15     1     6   ar
    16     1     2   ar
    17    34    35   ar
    18     6     5   ar
    19    31    20    1
    20    31    30   ar
    21     8     2    1
    22    20    19   ar
    23    20    21   ar
    24    19    18   ar
    25    19    29    1
    26     2     3   ar
    27    22    18    1
    28    18    17   ar
    29    21    16   ar
    30    29    28    3
    31    16    17   ar
    32    16    23    1
    33    17     5    1
    34    23    24    1
    35     5     4   ar
    36    25    24    1
    37    24    26    1
    38     3     4   ar
    39     3     7    1
    40    35    30   ar
    41     4    15    1
    42    30    38    1
    43    15    14    3
    44    38    39    1
    45    39    40    1
    46    39    41    1
