@<TRIPOS>MOLECULE
mol_data/opt/b3lyp/geoms/mol2/6ld6ld6ld6ld.out
 58 61 0 0 0
SMALL
GASTEIGER

@<TRIPOS>ATOM
      1 C          -4.3852   -2.2896   -0.0009 C.ar    1  LIG1        0.2150
      2 C          -2.9822   -2.3837   -0.0006 C.ar    1  LIG1        0.0012
      3 C          -2.2924   -1.1942   -0.0000 C.ar    1  LIG1       -0.0372
      4 C          -2.9739    0.0458    0.0002 C.ar    1  LIG1        0.0781
      5 C          -4.3987    0.0378   -0.0002 C.ar    1  LIG1        0.0972
      6 N          -5.0431   -1.1421   -0.0007 N.ar    1  LIG1       -0.2114
      7 H          -1.2077   -1.1866    0.0003 H       1  LIG1        0.0633
      8 H          -2.4896   -3.3481   -0.0008 H       1  LIG1        0.0671
      9 O          -5.0725   -3.4440   -0.0015 O.3     1  LIG1       -0.4796
     10 C          -6.5048   -3.3573   -0.0018 C.3     1  LIG1        0.0804
     11 H          -6.8522   -4.3906   -0.0023 H       1  LIG1        0.0660
     12 H          -6.8626   -2.8296    0.8855 H       1  LIG1        0.0660
     13 H          -6.8621   -2.8290   -0.8890 H       1  LIG1        0.0660
     14 N          -1.3468    2.0626    0.0015 N.1     1  LIG1       -0.1908
     15 C          -2.1193    1.1904    0.0009 C.1     1  LIG1        0.1013
     16 C          -6.7017    1.2275   -0.0001 C.ar    1  LIG1        0.2245
     17 C          -5.2660    1.2514   -0.0001 C.ar    1  LIG1        0.0645
     18 C          -4.7438    2.5440    0.0000 C.ar    1  LIG1       -0.0279
     19 C          -5.5335    3.7061    0.0001 C.ar    1  LIG1        0.0787
     20 C          -6.9482    3.5629    0.0001 C.ar    1  LIG1        0.0973
     21 N          -7.4481    2.3225    0.0000 N.ar    1  LIG1       -0.2109
     22 H          -3.6758    2.7000    0.0000 H       1  LIG1        0.0639
     23 O          -7.3594    0.0615   -0.0001 O.3     1  LIG1       -0.4792
     24 C          -8.7945    0.1159   -0.0001 C.3     1  LIG1        0.0804
     25 H          -9.1105   -0.9278   -0.0002 H       1  LIG1        0.0660
     26 H          -9.1667    0.6345    0.8859 H       1  LIG1        0.0660
     27 H          -9.1667    0.6346   -0.8860 H       1  LIG1        0.0660
     28 N          -4.1364    5.8913    0.0003 N.1     1  LIG1       -0.1908
     29 C          -4.7967    4.9320    0.0002 C.1     1  LIG1        0.1013
     30 C          -9.3609    4.5048    0.0004 C.ar    1  LIG1        0.2245
     31 C          -7.9362    4.6763    0.0001 C.ar    1  LIG1        0.0645
     32 C          -7.5493    6.0163   -0.0000 C.ar    1  LIG1       -0.0279
     33 C          -8.4543    7.0905    0.0000 C.ar    1  LIG1        0.0787
     34 C          -9.8477    6.8026    0.0002 C.ar    1  LIG1        0.0973
     35 N         -10.2155    5.5172    0.0004 N.ar    1  LIG1       -0.2109
     36 H          -6.5026    6.2795   -0.0002 H       1  LIG1        0.0639
     37 O          -9.8949    3.2769    0.0005 O.3     1  LIG1       -0.4792
     38 C         -11.3287    3.1841    0.0008 C.3     1  LIG1        0.0804
     39 H         -11.5366    2.1136    0.0009 H       1  LIG1        0.0660
     40 H         -11.7513    3.6620    0.8868 H       1  LIG1        0.0660
     41 H         -11.7516    3.6619   -0.8852 H       1  LIG1        0.0660
     42 N          -7.2804    9.4035   -0.0002 N.1     1  LIG1       -0.1908
     43 C          -7.8432    8.3840   -0.0001 C.1     1  LIG1        0.1013
     44 C         -12.3485    7.4735    0.0008 C.ar    1  LIG1        0.2240
     45 C         -10.9478    7.8109    0.0003 C.ar    1  LIG1        0.0644
     46 C         -10.6811    9.1842   -0.0003 C.ar    1  LIG1       -0.0285
     47 C         -11.7071   10.1401   -0.0003 C.ar    1  LIG1        0.0707
     48 C         -13.0254    9.6794    0.0003 C.ar    1  LIG1        0.0488
     49 N         -13.3225    8.3853    0.0009 N.ar    1  LIG1       -0.2195
     50 H          -9.6656    9.5486   -0.0008 H       1  LIG1        0.0639
     51 H         -13.8594   10.3770    0.0003 H       1  LIG1        0.0844
     52 O         -12.7390    6.1938    0.0015 O.3     1  LIG1       -0.4792
     53 C         -14.1530    5.9339    0.0020 C.3     1  LIG1        0.0804
     54 H         -14.2344    4.8466    0.0025 H       1  LIG1        0.0660
     55 H         -14.6299    6.3549    0.8898 H       1  LIG1        0.0660
     56 H         -14.6305    6.3542   -0.8857 H       1  LIG1        0.0660
     57 N         -11.2241   12.6884   -0.0014 N.1     1  LIG1       -0.1908
     58 C         -11.4257   11.5428   -0.0009 C.1     1  LIG1        0.1007
@<TRIPOS>BOND
     1    13    10    1
     2    27    24    1
     3    56    53    1
     4    41    38    1
     5    11    10    1
     6    10     9    1
     7    10    12    1
     8     9     1    1
     9    57    58    3
    10     1     6   ar
    11     1     2   ar
    12    58    47    1
    13     8     2    1
    14    50    46    1
    15     6     5   ar
    16     2     3   ar
    17    46    47   ar
    18    46    45   ar
    19    47    48   ar
    20    42    43    3
    21    36    32    1
    22     5    17    1
    23     5     4   ar
    24    25    24    1
    25    23    24    1
    26    23    16    1
    27    43    33    1
    28    24    26    1
    29    16    17   ar
    30    16    21   ar
    31    17    18   ar
    32     3     4   ar
    33     3     7    1
    34    32    33   ar
    35    32    31   ar
    36    21    20   ar
    37    33    34   ar
    38    22    18    1
    39    18    19   ar
    40    20    19   ar
    41    20    31    1
    42    19    29    1
    43    31    30   ar
    44    29    28    3
    45     4    15    1
    46    34    45    1
    47    34    35   ar
    48    45    44   ar
    49    48    51    1
    50    48    49   ar
    51    30    35   ar
    52    30    37    1
    53    37    38    1
    54    38    39    1
    55    38    40    1
    56    44    49   ar
    57    44    52    1
    58    15    14    3
    59    52    53    1
    60    53    54    1
    61    53    55    1
