@<TRIPOS>MOLECULE
mol_data/opt/b3lyp/geoms/mol2/6ld6ld.out
 30 31 0 0 0
SMALL
GASTEIGER

@<TRIPOS>ATOM
      1 C          -4.5207   -2.0258   -0.4145 C.ar    1  LIG1        0.2150
      2 C          -3.2489   -2.1375    0.1849 C.ar    1  LIG1        0.0012
      3 C          -2.7118   -1.0033    0.7510 C.ar    1  LIG1       -0.0372
      4 C          -3.4358    0.2100    0.7141 C.ar    1  LIG1        0.0781
      5 C          -4.6945    0.2144    0.0811 C.ar    1  LIG1        0.0972
      6 N          -5.2133   -0.8942   -0.4689 N.ar    1  LIG1       -0.2114
      7 H          -1.7406   -1.0295    1.2336 H       1  LIG1        0.0633
      8 H          -2.7344   -3.0906    0.1911 H       1  LIG1        0.0671
      9 O          -5.0334   -3.1417   -0.9564 O.3     1  LIG1       -0.4796
     10 C          -6.3309   -3.0465   -1.5633 C.3     1  LIG1        0.0804
     11 H          -6.5613   -4.0564   -1.9023 H       1  LIG1        0.0660
     12 H          -7.0747   -2.7028   -0.8405 H       1  LIG1        0.0660
     13 H          -6.3156   -2.3535   -2.4083 H       1  LIG1        0.0660
     14 N          -2.4205    2.3110    1.8462 N.1     1  LIG1       -0.1908
     15 C          -2.8902    1.3775    1.3333 C.1     1  LIG1        0.1013
     16 C          -6.8446    1.5189    0.4542 C.ar    1  LIG1        0.2240
     17 C          -5.5117    1.4535   -0.0370 C.ar    1  LIG1        0.0644
     18 C          -5.0150    2.5927   -0.6512 C.ar    1  LIG1       -0.0285
     19 C          -5.8295    3.7334   -0.7887 C.ar    1  LIG1        0.0707
     20 C          -7.1323    3.6688   -0.2843 C.ar    1  LIG1        0.0488
     21 N          -7.6238    2.5897    0.3276 N.ar    1  LIG1       -0.2195
     22 H          -4.0028    2.6053   -1.0401 H       1  LIG1        0.0639
     23 H          -7.7990    4.5223   -0.3781 H       1  LIG1        0.0844
     24 O          -7.3160    0.4446    1.1015 O.3     1  LIG1       -0.4792
     25 C          -8.6494    0.5192    1.6277 C.3     1  LIG1        0.0804
     26 H          -8.8168   -0.4435    2.1106 H       1  LIG1        0.0660
     27 H          -8.7383    1.3322    2.3522 H       1  LIG1        0.0660
     28 H          -9.3760    0.6793    0.8275 H       1  LIG1        0.0660
     29 N          -4.9804    5.8788   -1.9719 N.1     1  LIG1       -0.1908
     30 C          -5.3557    4.9156   -1.4379 C.1     1  LIG1        0.1007
@<TRIPOS>BOND
     1    13    10    1
     2    29    30    3
     3    11    10    1
     4    10     9    1
     5    10    12    1
     6    30    19    1
     7    22    18    1
     8     9     1    1
     9    19    18   ar
    10    19    20   ar
    11    18    17   ar
    12     6     1   ar
    13     6     5   ar
    14     1     2   ar
    15    23    20    1
    16    20    21   ar
    17    17     5    1
    18    17    16   ar
    19     5     4   ar
    20     2     8    1
    21     2     3   ar
    22    21    16   ar
    23    16    24    1
    24     4     3   ar
    25     4    15    1
    26     3     7    1
    27    28    25    1
    28    24    25    1
    29    15    14    3
    30    25    26    1
    31    25    27    1
