@<TRIPOS>MOLECULE
mol_data/opt/b3lyp/geoms/mol2/6le6le6le6le.out
 62 65 0 0 0
SMALL
GASTEIGER

@<TRIPOS>ATOM
      1 C          -3.7432   -1.6556   -1.3103 C.ar    1  LIG1        0.2150
      2 C          -3.0359   -2.2631   -0.2552 C.ar    1  LIG1        0.0012
      3 C          -3.1706   -1.7081    0.9990 C.ar    1  LIG1       -0.0392
      4 C          -3.9929   -0.5740    1.1972 C.ar    1  LIG1        0.0510
      5 C          -4.6482   -0.0446    0.0642 C.ar    1  LIG1        0.0952
      6 N          -4.5125   -0.5878   -1.1585 N.ar    1  LIG1       -0.2115
      7 H          -2.6554   -2.1382    1.8515 H       1  LIG1        0.0632
      8 H          -2.4187   -3.1334   -0.4439 H       1  LIG1        0.0671
      9 O          -3.6091   -2.2096   -2.5328 O.3     1  LIG1       -0.4796
     10 C          -4.3382   -1.6026   -3.6063 C.3     1  LIG1        0.0804
     11 H          -4.1227   -2.2157   -4.4820 H       1  LIG1        0.0660
     12 H          -5.4109   -1.5940   -3.3966 H       1  LIG1        0.0660
     13 H          -4.0087   -0.5731   -3.7716 H       1  LIG1        0.0660
     14 C          -4.1452   -0.0334    2.5090 C.1     1  LIG1       -0.0675
     15 C          -4.2471    0.3887    3.6390 C.1     1  LIG1       -0.1138
     16 H          -4.3514    0.7751    4.6262 H       1  LIG1        0.1232
     17 C          -6.8519    1.1688   -0.3310 C.ar    1  LIG1        0.2245
     18 C          -5.5143    1.1625    0.1449 C.ar    1  LIG1        0.0643
     19 C          -5.0509    2.3577    0.6703 C.ar    1  LIG1       -0.0299
     20 C          -5.8620    3.5119    0.7045 C.ar    1  LIG1        0.0516
     21 C          -7.1643    3.4012    0.1736 C.ar    1  LIG1        0.0953
     22 N          -7.6264    2.2425   -0.3225 N.ar    1  LIG1       -0.2109
     23 H          -4.0431    2.4158    1.0653 H       1  LIG1        0.0639
     24 O          -7.3579    0.0084   -0.7887 O.3     1  LIG1       -0.4792
     25 C          -8.7216    0.0195   -1.2260 C.3     1  LIG1        0.0804
     26 H          -8.9400   -1.0123   -1.5037 H       1  LIG1        0.0660
     27 H          -9.3882    0.3539   -0.4271 H       1  LIG1        0.0660
     28 H          -8.8520    0.6819   -2.0863 H       1  LIG1        0.0660
     29 C          -5.3496    4.7158    1.2748 C.1     1  LIG1       -0.0675
     30 C          -4.8777    5.7143    1.7703 C.1     1  LIG1       -0.1138
     31 H          -4.4793    6.6025    2.2031 H       1  LIG1        0.1232
     32 C          -9.4169    4.4989    0.6323 C.ar    1  LIG1        0.2245
     33 C          -8.0981    4.5568    0.1083 C.ar    1  LIG1        0.0643
     34 C          -7.7359    5.7510   -0.4940 C.ar    1  LIG1       -0.0299
     35 C          -8.6398    6.8297   -0.5955 C.ar    1  LIG1        0.0516
     36 C          -9.9325    6.6402   -0.0642 C.ar    1  LIG1        0.0953
     37 N         -10.2865    5.4930    0.5360 N.ar    1  LIG1       -0.2109
     38 H          -6.7378    5.8659   -0.9007 H       1  LIG1        0.0639
     39 O          -9.7833    3.3796    1.2841 O.3     1  LIG1       -0.4792
     40 C         -11.0993    3.3554    1.8485 C.3     1  LIG1        0.0804
     41 H         -11.1709    2.3962    2.3624 H       1  LIG1        0.0660
     42 H         -11.2413    4.1810    2.5504 H       1  LIG1        0.0660
     43 H         -11.8622    3.4287    1.0685 H       1  LIG1        0.0660
     44 C          -8.2176    8.0483   -1.2070 C.1     1  LIG1       -0.0675
     45 C          -7.8188    9.0649   -1.7292 C.1     1  LIG1       -0.1138
     46 H          -7.4841    9.9673   -2.1858 H       1  LIG1        0.1232
     47 C         -11.6849    8.1524    0.9927 C.ar    1  LIG1        0.2240
     48 C         -10.9891    7.6846   -0.1537 C.ar    1  LIG1        0.0643
     49 C         -11.3611    8.2325   -1.3731 C.ar    1  LIG1       -0.0305
     50 C         -12.3963    9.1868   -1.4495 C.ar    1  LIG1        0.0436
     51 C         -13.0164    9.5464   -0.2469 C.ar    1  LIG1        0.0468
     52 N         -12.6661    9.0479    0.9422 N.ar    1  LIG1       -0.2196
     53 H         -10.8579    7.9175   -2.2801 H       1  LIG1        0.0638
     54 H         -13.8281   10.2699   -0.2495 H       1  LIG1        0.0843
     55 O         -11.3004    7.6780    2.1922 O.3     1  LIG1       -0.4792
     56 C         -11.9857    8.1773    3.3453 C.3     1  LIG1        0.0804
     57 H         -11.5188    7.6754    4.1935 H       1  LIG1        0.0660
     58 H         -11.8719    9.2612    3.4334 H       1  LIG1        0.0660
     59 H         -13.0526    7.9423    3.3019 H       1  LIG1        0.0660
     60 C         -12.8050    9.7556   -2.6919 C.1     1  LIG1       -0.0681
     61 C         -13.1537   10.2400   -3.7448 C.1     1  LIG1       -0.1139
     62 H         -13.4615   10.6660   -4.6713 H       1  LIG1        0.1232
@<TRIPOS>BOND
     1    62    61    1
     2    11    10    1
     3    13    10    1
     4    61    60    3
     5    10    12    1
     6    10     9    1
     7    60    50    1
     8     9     1    1
     9    53    49    1
    10    46    45    1
    11    28    25    1
    12    45    44    3
    13    26    25    1
    14    50    49   ar
    15    50    51   ar
    16    49    48   ar
    17     1     6   ar
    18     1     2   ar
    19    25    24    1
    20    25    27    1
    21    44    35    1
    22     6     5   ar
    23    38    34    1
    24    24    17    1
    25    35    34   ar
    26    35    36   ar
    27    34    33   ar
    28     8     2    1
    29    17    22   ar
    30    17    18   ar
    31    22    21   ar
    32     2     3   ar
    33    54    51    1
    34    51    52   ar
    35    48    36    1
    36    48    47   ar
    37    36    37   ar
    38     5    18    1
    39     5     4   ar
    40    33    21    1
    41    33    32   ar
    42    18    19   ar
    43    21    20   ar
    44    37    32   ar
    45    32    39    1
    46    19    20   ar
    47    19    23    1
    48    20    29    1
    49    52    47   ar
    50    47    55    1
    51     3     4   ar
    52     3     7    1
    53    43    40    1
    54     4    14    1
    55    29    30    3
    56    39    40    1
    57    30    31    1
    58    40    41    1
    59    40    42    1
    60    55    56    1
    61    14    15    3
    62    59    56    1
    63    56    58    1
    64    56    57    1
    65    15    16    1
