@<TRIPOS>MOLECULE
mol_data/opt/b3lyp/geoms/mol2/6le6le6le.out
 47 49 0 0 0
SMALL
GASTEIGER

@<TRIPOS>ATOM
      1 C          -4.2023   -1.8907   -0.9805 C.ar    1  LIG1        0.2150
      2 C          -3.1676   -2.2180   -0.0834 C.ar    1  LIG1        0.0012
      3 C          -2.9106   -1.3289    0.9377 C.ar    1  LIG1       -0.0392
      4 C          -3.6686   -0.1408    1.0623 C.ar    1  LIG1        0.0510
      5 C          -4.6759    0.0872    0.0998 C.ar    1  LIG1        0.0952
      6 N          -4.9228   -0.7820   -0.8960 N.ar    1  LIG1       -0.2115
      7 H          -2.1299   -1.5319    1.6633 H       1  LIG1        0.0632
      8 H          -2.6106   -3.1391   -0.2078 H       1  LIG1        0.0671
      9 O          -4.4501   -2.7699   -1.9728 O.3     1  LIG1       -0.4796
     10 C          -5.5123   -2.4471   -2.8784 C.3     1  LIG1        0.0804
     11 H          -5.5699   -3.2916   -3.5659 H       1  LIG1        0.0660
     12 H          -6.4576   -2.3194   -2.3446 H       1  LIG1        0.0660
     13 H          -5.2953   -1.5251   -3.4249 H       1  LIG1        0.0660
     14 C          -3.4084    0.7522    2.1445 C.1     1  LIG1       -0.0675
     15 C          -3.1549    1.4783    3.0794 C.1     1  LIG1       -0.1138
     16 H          -2.9485    2.1302    3.8963 H       1  LIG1        0.1232
     17 C          -6.9331    1.2660    0.1070 C.ar    1  LIG1        0.2245
     18 C          -5.5142    1.3166    0.1088 C.ar    1  LIG1        0.0643
     19 C          -4.9511    2.5821    0.0920 C.ar    1  LIG1       -0.0299
     20 C          -5.7510    3.7439    0.0513 C.ar    1  LIG1        0.0516
     21 C          -7.1494    3.5636    0.0211 C.ar    1  LIG1        0.0953
     22 N          -7.7038    2.3415    0.0551 N.ar    1  LIG1       -0.2109
     23 H          -3.8727    2.6905    0.1078 H       1  LIG1        0.0639
     24 O          -7.5148    0.0549    0.1892 O.3     1  LIG1       -0.4792
     25 C          -8.9460    0.0204    0.2276 C.3     1  LIG1        0.0804
     26 H          -9.2024   -1.0338    0.3386 H       1  LIG1        0.0660
     27 H          -9.3312    0.6019    1.0691 H       1  LIG1        0.0660
     28 H          -9.3731    0.4219   -0.6954 H       1  LIG1        0.0660
     29 C          -5.1298    5.0289    0.0541 C.1     1  LIG1       -0.0675
     30 C          -4.5639    6.0989    0.0615 C.1     1  LIG1       -0.1138
     31 H          -4.0823    7.0491    0.0674 H       1  LIG1        0.1232
     32 C          -9.1472    4.8969    0.8612 C.ar    1  LIG1        0.2240
     33 C          -8.0952    4.7089   -0.0740 C.ar    1  LIG1        0.0643
     34 C          -8.0051    5.6353   -1.1030 C.ar    1  LIG1       -0.0305
     35 C          -8.9365    6.6888   -1.2088 C.ar    1  LIG1        0.0436
     36 C          -9.9389    6.7484   -0.2333 C.ar    1  LIG1        0.0468
     37 N         -10.0377    5.8804    0.7777 N.ar    1  LIG1       -0.2196
     38 H          -7.2159    5.5447   -1.8407 H       1  LIG1        0.0638
     39 H         -10.6897    7.5339   -0.2734 H       1  LIG1        0.0843
     40 O          -9.2164    4.0442    1.9004 O.3     1  LIG1       -0.4792
     41 C         -10.2596    4.2584    2.8567 C.3     1  LIG1        0.0804
     42 H         -10.1267    3.4747    3.6032 H       1  LIG1        0.0660
     43 H         -10.1737    5.2451    3.3197 H       1  LIG1        0.0660
     44 H         -11.2448    4.1783    2.3895 H       1  LIG1        0.0660
     45 C          -8.8724    7.6461   -2.2640 C.1     1  LIG1       -0.0681
     46 C          -8.8202    8.4598   -3.1585 C.1     1  LIG1       -0.1139
     47 H          -8.7752    9.1757   -3.9459 H       1  LIG1        0.1232
@<TRIPOS>BOND
     1    47    46    1
     2    11    10    1
     3    13    10    1
     4    46    45    3
     5    10    12    1
     6    10     9    1
     7    45    35    1
     8     9     1    1
     9    38    34    1
    10    35    34   ar
    11    35    36   ar
    12    34    33   ar
    13     1     6   ar
    14     1     2   ar
    15     6     5   ar
    16    28    25    1
    17    39    36    1
    18    36    37   ar
    19     8     2    1
    20     2     3   ar
    21    33    21    1
    22    33    32   ar
    23    21    20   ar
    24    21    22   ar
    25    20    29    1
    26    20    19   ar
    27    29    30    3
    28    22    17   ar
    29    30    31    1
    30    19    23    1
    31    19    18   ar
    32     5    18    1
    33     5     4   ar
    34    17    18   ar
    35    17    24    1
    36    24    25    1
    37    25    26    1
    38    25    27    1
    39    37    32   ar
    40    32    40    1
    41     3     4   ar
    42     3     7    1
    43     4    14    1
    44    40    41    1
    45    14    15    3
    46    44    41    1
    47    41    43    1
    48    41    42    1
    49    15    16    1
