@<TRIPOS>MOLECULE
mol_data/opt/b3lyp/geoms/mol2/6le6fd-12ha-6ff-.out
 48 51 0 0 0
SMALL
GASTEIGER

@<TRIPOS>ATOM
      1 C          -4.5163   -2.1304    0.0324 C.ar    1  LIG1        0.2150
      2 C          -3.1269   -2.2275    0.2120 C.ar    1  LIG1        0.0012
      3 C          -2.4281   -1.0462    0.3272 C.ar    1  LIG1       -0.0392
      4 C          -3.0744    0.2096    0.2454 C.ar    1  LIG1        0.0510
      5 C          -4.4744    0.2158    0.0115 C.ar    1  LIG1        0.0952
      6 N          -5.1453   -0.9664   -0.0646 N.ar    1  LIG1       -0.2115
      7 H          -1.3565   -1.0603    0.4953 H       1  LIG1        0.0632
      8 H          -2.6525   -3.1989    0.2727 H       1  LIG1        0.0671
      9 O          -5.2054   -3.2815   -0.0438 O.3     1  LIG1       -0.4796
     10 C          -6.6260   -3.2159   -0.2203 C.3     1  LIG1        0.0804
     11 H          -6.9538   -4.2519   -0.2999 H       1  LIG1        0.0660
     12 H          -7.1083   -2.7414    0.6399 H       1  LIG1        0.0660
     13 H          -6.8864   -2.6690   -1.1307 H       1  LIG1        0.0660
     14 C          -2.2657    1.3660    0.4555 C.1     1  LIG1       -0.0675
     15 C          -1.5002    2.2821    0.6601 C.1     1  LIG1       -0.1138
     16 H          -0.8533    3.1099    0.8398 H       1  LIG1        0.1232
     17 C          -6.7477    1.3838   -0.0245 C.ar    1  LIG1        0.2225
     18 C          -5.3100    1.4221   -0.1482 C.ar    1  LIG1        0.0642
     19 C          -4.7871    2.6688   -0.4847 C.ar    1  LIG1       -0.0278
     20 C          -5.5964    3.8071   -0.5871 C.ar    1  LIG1        0.0816
     21 C          -6.9848    3.6843   -0.2759 C.ar    1  LIG1        0.1289
     22 N          -7.5104    2.4667   -0.0482 N.ar    1  LIG1       -0.2080
     23 H          -3.7339    2.7728   -0.7041 H       1  LIG1        0.0639
     24 O          -7.4043    0.2402    0.1338 O.3     1  LIG1       -0.4919
     25 H          -6.7183   -0.4831    0.0607 H       1  LIG1        0.2937
     26 N          -4.5540    5.9918   -1.5028 N.1     1  LIG1       -0.1908
     27 C          -5.0176    5.0046   -1.0869 C.1     1  LIG1        0.1014
     28 C          -7.9226    4.7757   -0.1941 C.ar    1  LIG1        0.1757
     29 C          -7.9182    6.1562    0.0562 C.ar    1  LIG1        0.0732
     30 C          -9.2876    6.5522    0.1580 C.ar    1  LIG1        0.0058
     31 C         -10.0560    5.4298   -0.0210 C.ar    1  LIG1        0.1428
     32 O          -9.2497    4.3640   -0.2335 O.2     1  LIG1       -0.4512
     33 N          -6.8712    7.0090    0.3010 N.pl3   1  LIG1       -0.3550
     34 H          -5.9839    6.8265   -0.1513 H       1  LIG1        0.1424
     35 H          -7.1184    7.9878    0.3010 H       1  LIG1        0.1424
     36 H          -9.6376    7.5515    0.3724 H       1  LIG1        0.0674
     37 C         -12.0536    3.8716    0.0051 C.ar    1  LIG1        0.2234
     38 C         -11.4881    5.1832   -0.0205 C.ar    1  LIG1        0.0820
     39 C         -12.3741    6.2696   -0.0194 C.ar    1  LIG1       -0.0029
     40 C         -13.7451    6.0504    0.0132 C.ar    1  LIG1        0.1358
     41 C         -14.1888    4.7247    0.0392 C.ar    1  LIG1        0.0728
     42 N         -13.3699    3.6753    0.0341 N.ar    1  LIG1       -0.2172
     43 H         -12.0027    7.2882   -0.0536 H       1  LIG1        0.0663
     44 H         -15.2581    4.5053    0.0627 H       1  LIG1        0.0868
     45 O         -11.3325    2.7354    0.0105 O.3     1  LIG1       -0.4919
     46 H         -10.3782    2.9192   -0.0380 H       1  LIG1        0.2937
     47 O         -14.5854    7.1303    0.0124 O.3     1  LIG1       -0.5052
     48 H         -15.4997    6.8175    0.0276 H       1  LIG1        0.2922
@<TRIPOS>BOND
     1    26    27    3
     2    13    10    1
     3    27    20    1
     4    23    19    1
     5    20    19   ar
     6    20    21   ar
     7    19    18   ar
     8    11    10    1
     9    21    28    1
    10    21    22   ar
    11    32    28   ar
    12    32    31   ar
    13    10     9    1
    14    10    12    1
    15    28    29   ar
    16    34    33    1
    17    18    17   ar
    18    18     5    1
    19     6     5   ar
    20     6     1   ar
    21    43    39    1
    22    22    17   ar
    23     9     1    1
    24    46    45    1
    25    17    24    1
    26    31    38    1
    27    31    30   ar
    28    38    39   ar
    29    38    37   ar
    30    39    40   ar
    31    37    45    1
    32    37    42   ar
    33     5     4   ar
    34    47    40    1
    35    47    48    1
    36    40    41   ar
    37     1     2   ar
    38    42    41   ar
    39    41    44    1
    40    29    30   ar
    41    29    33    1
    42    25    24    1
    43    30    36    1
    44     2     8    1
    45     2     3   ar
    46     4     3   ar
    47     4    14    1
    48    35    33    1
    49     3     7    1
    50    14    15    3
    51    15    16    1
