@<TRIPOS>MOLECULE
mol_data/opt/b3lyp/geoms/mol2/6le6le.out
 32 33 0 0 0
SMALL
GASTEIGER

@<TRIPOS>ATOM
      1 C          -4.5220   -1.9871   -0.5375 C.ar    1  LIG1        0.2150
      2 C          -3.2256   -2.1159   -0.0032 C.ar    1  LIG1        0.0012
      3 C          -2.6638   -0.9966    0.5717 C.ar    1  LIG1       -0.0392
      4 C          -3.3789    0.2234    0.6137 C.ar    1  LIG1        0.0510
      5 C          -4.6684    0.2369    0.0398 C.ar    1  LIG1        0.0952
      6 N          -5.2130   -0.8566   -0.5219 N.ar    1  LIG1       -0.2115
      7 H          -1.6703   -1.0382    1.0058 H       1  LIG1        0.0632
      8 H          -2.7100   -3.0677   -0.0505 H       1  LIG1        0.0671
      9 O          -5.0645   -3.0899   -1.0932 O.3     1  LIG1       -0.4796
     10 C          -6.3879   -2.9663   -1.6277 C.3     1  LIG1        0.0804
     11 H          -6.6452   -3.9623   -1.9898 H       1  LIG1        0.0660
     12 H          -7.0933   -2.6423   -0.8580 H       1  LIG1        0.0660
     13 H          -6.4140   -2.2440   -2.4483 H       1  LIG1        0.0660
     14 C          -2.7939    1.3648    1.2394 C.1     1  LIG1       -0.0675
     15 C          -2.2602    2.3057    1.7827 C.1     1  LIG1       -0.1138
     16 H          -1.8076    3.1451    2.2574 H       1  LIG1        0.1232
     17 C          -6.8124    1.5126    0.5354 C.ar    1  LIG1        0.2240
     18 C          -5.4991    1.4721   -0.0025 C.ar    1  LIG1        0.0643
     19 C          -5.0334    2.6365   -0.5953 C.ar    1  LIG1       -0.0305
     20 C          -5.8496    3.7842   -0.6690 C.ar    1  LIG1        0.0436
     21 C          -7.1331    3.6851   -0.1188 C.ar    1  LIG1        0.0468
     22 N          -7.5997    2.5817    0.4730 N.ar    1  LIG1       -0.2196
     23 H          -4.0345    2.6642   -1.0159 H       1  LIG1        0.0638
     24 H          -7.8079    4.5368   -0.1580 H       1  LIG1        0.0843
     25 O          -7.2602    0.4102    1.1649 O.3     1  LIG1       -0.4792
     26 C          -8.5752    0.4647    1.7274 C.3     1  LIG1        0.0804
     27 H          -8.7308   -0.5137    2.1834 H       1  LIG1        0.0660
     28 H          -8.6496    1.2531    2.4813 H       1  LIG1        0.0660
     29 H          -9.3265    0.6502    0.9552 H       1  LIG1        0.0660
     30 C          -5.3985    4.9897   -1.2832 C.1     1  LIG1       -0.0681
     31 C          -5.0181    6.0141   -1.8036 C.1     1  LIG1       -0.1139
     32 H          -4.6843    6.9156   -2.2625 H       1  LIG1        0.1232
@<TRIPOS>BOND
     1    13    10    1
     2    32    31    1
     3    11    10    1
     4    31    30    3
     5    10     9    1
     6    10    12    1
     7    30    20    1
     8     9     1    1
     9    23    19    1
    10    20    19   ar
    11    20    21   ar
    12    19    18   ar
    13     1     6   ar
    14     1     2   ar
    15     6     5   ar
    16    24    21    1
    17    21    22   ar
    18     8     2    1
    19     2     3   ar
    20    18     5    1
    21    18    17   ar
    22     5     4   ar
    23    22    17   ar
    24    17    25    1
    25     3     4   ar
    26     3     7    1
    27     4    14    1
    28    29    26    1
    29    25    26    1
    30    14    15    3
    31    26    27    1
    32    26    28    1
    33    15    16    1
