@<TRIPOS>MOLECULE
mol_data/opt/b3lyp/geoms/mol2/6lf12ee-12hd-4ed.out
 50 53 0 0 0
SMALL
GASTEIGER

@<TRIPOS>ATOM
      1 C          -4.6337   -2.0454    0.2273 C.ar    1  LIG1        0.2153
      2 C          -3.3601   -2.1575    0.8265 C.ar    1  LIG1        0.0035
      3 C          -2.7262   -0.9930    1.1978 C.ar    1  LIG1       -0.0129
      4 C          -3.3400    0.2568    0.9838 C.ar    1  LIG1        0.1460
      5 C          -4.6102    0.2619    0.3776 C.ar    1  LIG1        0.1522
      6 N          -5.2278   -0.8909    0.0114 N.ar    1  LIG1       -0.2060
      7 H          -1.7497   -1.0030    1.6705 H       1  LIG1        0.0656
      8 H          -2.9154   -3.1340    0.9794 H       1  LIG1        0.0672
      9 O          -5.2403   -3.2013   -0.1295 O.3     1  LIG1       -0.4796
     10 C          -6.5360   -3.0972   -0.7281 C.3     1  LIG1        0.0804
     11 H          -6.8541   -4.1204   -0.9268 H       1  LIG1        0.0660
     12 H          -7.2416   -2.6052   -0.0521 H       1  LIG1        0.0660
     13 H          -6.4929   -2.5268   -1.6606 H       1  LIG1        0.0660
     14 O          -2.6630    1.3376    1.4530 O.3     1  LIG1       -0.5045
     15 H          -2.9226    2.1572    1.0004 H       1  LIG1        0.2922
     16 C          -5.4032    1.4676    0.1331 C.ar    1  LIG1        0.1742
     17 C          -5.1371    2.7923   -0.1612 C.ar    1  LIG1        0.0881
     18 C          -6.4189    3.4527   -0.3314 C.ar    1  LIG1        0.0896
     19 C          -7.3739    2.4700   -0.1205 C.ar    1  LIG1        0.1890
     20 O          -6.7569    1.2881    0.1552 O.2     1  LIG1       -0.4475
     21 C          -3.8744    3.4008   -0.3491 C.1     1  LIG1       -0.0646
     22 C          -2.7909    3.9231   -0.4990 C.1     1  LIG1       -0.1138
     23 H          -1.8389    4.3765   -0.6557 H       1  LIG1        0.1232
     24 C          -6.5898    4.8014   -0.7175 C.1     1  LIG1       -0.0645
     25 C          -6.6854    5.9604   -1.0613 C.1     1  LIG1       -0.1138
     26 H          -6.7489    6.9759   -1.3787 H       1  LIG1        0.1232
     27 C          -8.8041    2.4226   -0.1391 C.ar    1  LIG1        0.1936
     28 C          -9.8292    3.3560   -0.1757 C.ar    1  LIG1        0.0924
     29 C         -11.0527    2.5879   -0.1864 C.ar    1  LIG1        0.1188
     30 C         -10.6998    1.2477   -0.1248 C.ar    1  LIG1        0.1562
     31 O          -9.3529    1.1552   -0.1019 O.2     1  LIG1       -0.4484
     32 N          -9.7794    4.7210   -0.1386 N.pl3   1  LIG1       -0.3539
     33 H          -8.9138    5.1701   -0.4091 H       1  LIG1        0.1425
     34 H         -10.6236    5.2040   -0.4119 H       1  LIG1        0.1425
     35 N         -13.2844    3.8231   -0.5508 N.1     1  LIG1       -0.1907
     36 C         -12.3151    3.2041   -0.3658 C.1     1  LIG1        0.1049
     37 C         -12.6700   -0.2683    0.4308 C.ar    1  LIG1        0.0354
     38 C         -13.2461   -1.5512    0.3269 C.ar    1  LIG1       -0.0444
     39 C         -11.3969   -0.0356   -0.1574 C.ar    1  LIG1        0.0352
     40 C         -12.5846   -2.5966   -0.2964 C.ar    1  LIG1       -0.0432
     41 H         -14.2205   -1.7140    0.7732 H       1  LIG1        0.0630
     42 C         -10.7284   -1.1071   -0.7710 C.ar    1  LIG1       -0.0325
     43 C         -11.3050   -2.3779   -0.8375 C.ar    1  LIG1        0.0525
     44 H          -9.7469   -0.9421   -1.1976 H       1  LIG1        0.0638
     45 H         -13.0384   -3.5795   -0.3559 H       1  LIG1        0.0631
     46 C         -13.3647    0.7209    1.1832 C.1     1  LIG1       -0.0690
     47 C         -13.9858    1.5110    1.8569 C.1     1  LIG1       -0.1139
     48 H         -14.5188    2.2437    2.4185 H       1  LIG1        0.1232
     49 N          -9.9700   -4.3137   -1.9403 N.1     1  LIG1       -0.1909
     50 C         -10.5767   -3.4495   -1.4518 C.1     1  LIG1        0.0992
@<TRIPOS>BOND
     1    49    50    3
     2    13    10    1
     3    50    43    1
     4    26    25    1
     5    44    42    1
     6    25    24    3
     7    11    10    1
     8    43    42   ar
     9    43    40   ar
    10    42    39   ar
    11    10     9    1
    12    10    12    1
    13    24    18    1
    14    23    22    1
    15    35    36    3
    16    22    21    3
    17    34    32    1
    18    33    32    1
    19    36    29    1
    20    45    40    1
    21    21    17    1
    22    18    17   ar
    23    18    19   ar
    24    40    38   ar
    25    29    28   ar
    26    29    30   ar
    27    28    27   ar
    28    28    32    1
    29    17    16   ar
    30    39    30    1
    31    39    37   ar
    32    27    19    1
    33    27    31   ar
    34     9     1    1
    35    30    31   ar
    36    19    20   ar
    37     6     1   ar
    38     6     5   ar
    39    16    20   ar
    40    16     5    1
    41     1     2   ar
    42    38    37   ar
    43    38    41    1
    44     5     4   ar
    45    37    46    1
    46     2     8    1
    47     2     3   ar
    48     4     3   ar
    49     4    14    1
    50    15    14    1
    51    46    47    3
    52     3     7    1
    53    47    48    1
