@<TRIPOS>MOLECULE
mol_data/opt/b3lyp/geoms/mol2/6lf4ia12el4ii.out
 58 61 0 0 0
SMALL
GASTEIGER

@<TRIPOS>ATOM
      1 C          -4.2434   -2.1451    0.8127 C.ar    1  LIG1        0.2152
      2 C          -3.2550   -2.4566   -0.1395 C.ar    1  LIG1        0.0035
      3 C          -2.9764   -1.5128   -1.1098 C.ar    1  LIG1       -0.0130
      4 C          -3.6658   -0.2920   -1.1008 C.ar    1  LIG1        0.1430
      5 C          -4.6046   -0.0538   -0.0890 C.ar    1  LIG1        0.1163
      6 N          -4.8957   -0.9940    0.8373 N.ar    1  LIG1       -0.2092
      7 H          -2.2447   -1.6980   -1.8895 H       1  LIG1        0.0656
      8 H          -2.7504   -3.4151   -0.1040 H       1  LIG1        0.0672
      9 O          -4.5173   -3.0960    1.7417 O.3     1  LIG1       -0.4796
     10 C          -5.5158   -2.7800    2.7125 C.3     1  LIG1        0.0804
     11 H          -5.5789   -3.6561    3.3596 H       1  LIG1        0.0660
     12 H          -5.2379   -1.8965    3.2950 H       1  LIG1        0.0660
     13 H          -6.4837   -2.5885    2.2392 H       1  LIG1        0.0660
     14 O          -3.3901    0.6034   -2.1000 O.3     1  LIG1       -0.5046
     15 H          -4.0483    1.3137   -2.0597 H       1  LIG1        0.2922
     16 C          -4.7663    2.4805    0.1581 C.ar    1  LIG1       -0.0405
     17 C          -5.5698    3.6240    0.1948 C.ar    1  LIG1       -0.0475
     18 C          -5.3818    1.2200   -0.0308 C.ar    1  LIG1        0.0070
     19 C          -6.9674    3.5598    0.0635 C.ar    1  LIG1        0.0189
     20 H          -5.0963    4.5867    0.3477 H       1  LIG1        0.0627
     21 C          -6.7807    1.1551   -0.1343 C.ar    1  LIG1       -0.0515
     22 C          -7.5676    2.2960   -0.0929 C.ar    1  LIG1       -0.0504
     23 H          -7.2470    0.1815   -0.2475 H       1  LIG1        0.0624
     24 C          -3.2754    2.6170    0.3840 C.3     1  LIG1       -0.0391
     25 H          -3.0210    3.6427    0.6616 H       1  LIG1        0.0278
     26 H          -2.6945    2.3538   -0.5057 H       1  LIG1        0.0278
     27 H          -2.9400    1.9543    1.1883 H       1  LIG1        0.0278
     28 H          -8.6450    2.2196   -0.1795 H       1  LIG1        0.0625
     29 C          -7.7909    4.7597    0.0989 C.ar    1  LIG1        0.1547
     30 C          -7.5375    6.1141    0.2549 C.ar    1  LIG1        0.1126
     31 C          -8.8275    6.7633    0.2030 C.ar    1  LIG1        0.1817
     32 C          -9.7791    5.7901    0.0346 C.ar    1  LIG1        0.1786
     33 O          -9.1356    4.5739   -0.0339 O.2     1  LIG1       -0.4498
     34 C          -6.3029    6.7793    0.4488 C.1     1  LIG1       -0.0622
     35 C          -5.2706    7.3921    0.6129 C.1     1  LIG1       -0.1137
     36 H          -4.3620    7.9245    0.7741 H       1  LIG1        0.1232
     37 O          -9.0568    8.1008    0.3090 O.3     1  LIG1       -0.4901
     38 C          -8.6110    8.8786   -0.8107 C.3     1  LIG1        0.0790
     39 H          -8.8695    9.9138   -0.5823 H       1  LIG1        0.0660
     40 H          -7.5283    8.7941   -0.9461 H       1  LIG1        0.0660
     41 H          -9.1226    8.5658   -1.7286 H       1  LIG1        0.0660
     42 C         -12.1090    6.5389    0.6562 C.ar    1  LIG1       -0.0397
     43 C         -13.4796    6.4579    0.3760 C.ar    1  LIG1       -0.0579
     44 C         -11.2331    5.7767   -0.1494 C.ar    1  LIG1        0.0241
     45 C         -13.9821    5.6485   -0.6379 C.ar    1  LIG1       -0.0586
     46 H         -14.1700    7.0355    0.9854 H       1  LIG1        0.0620
     47 C         -11.7562    4.9473   -1.1598 C.ar    1  LIG1       -0.0478
     48 C         -13.1228    4.8661   -1.4209 C.ar    1  LIG1       -0.0498
     49 H         -11.0640    4.3610   -1.7571 H       1  LIG1        0.0627
     50 H         -15.0543    5.6154   -0.8160 H       1  LIG1        0.0620
     51 C         -11.6304    7.3822    1.8126 C.3     1  LIG1       -0.0390
     52 H         -12.4710    7.6736    2.4482 H       1  LIG1        0.0278
     53 H         -11.1209    8.2882    1.4736 H       1  LIG1        0.0278
     54 H         -10.9100    6.8352    2.4299 H       1  LIG1        0.0278
     55 C         -13.6628    3.9682   -2.5092 C.3     1  LIG1       -0.0397
     56 H         -12.8554    3.4958   -3.0752 H       1  LIG1        0.0278
     57 H         -14.2854    4.5275   -3.2165 H       1  LIG1        0.0278
     58 H         -14.2884    3.1696   -2.0933 H       1  LIG1        0.0278
@<TRIPOS>BOND
     1    57    55    1
     2    56    55    1
     3    55    58    1
     4    55    48    1
     5    14    15    1
     6    14     4    1
     7     7     3    1
     8    49    47    1
     9    41    38    1
    10    48    47   ar
    11    48    45   ar
    12    47    44   ar
    13     3     4   ar
    14     3     2   ar
    15     4     5   ar
    16    40    38    1
    17    50    45    1
    18    38    39    1
    19    38    37    1
    20    45    43   ar
    21    26    24    1
    22    23    21    1
    23    28    22    1
    24    44    32    1
    25    44    42   ar
    26     2     8    1
    27     2     1   ar
    28    21    22   ar
    29    21    18   ar
    30    22    19   ar
    31     5    18    1
    32     5     6   ar
    33    33    32   ar
    34    33    29   ar
    35    18    16   ar
    36    32    31   ar
    37    19    29    1
    38    19    17   ar
    39    29    30   ar
    40    16    17   ar
    41    16    24    1
    42    17    20    1
    43    31    30   ar
    44    31    37    1
    45    30    34    1
    46    43    42   ar
    47    43    46    1
    48    24    25    1
    49    24    27    1
    50    34    35    3
    51    35    36    1
    52    42    51    1
    53     1     6   ar
    54     1     9    1
    55    53    51    1
    56     9    10    1
    57    51    54    1
    58    51    52    1
    59    13    10    1
    60    10    12    1
    61    10    11    1
