@<TRIPOS>MOLECULE
mol_data/opt/b3lyp/geoms/mol2/6lf4ae-13aa4fi.out
 50 53 0 0 0
SMALL
GASTEIGER

@<TRIPOS>ATOM
      1 C          -4.2212   -2.1533    0.3449 C.ar    1  LIG1        0.2152
      2 C          -2.9000   -2.2005   -0.1380 C.ar    1  LIG1        0.0035
      3 C          -2.3734   -1.0397   -0.6696 C.ar    1  LIG1       -0.0130
      4 C          -3.1452    0.1313   -0.6895 C.ar    1  LIG1        0.1429
      5 C          -4.4383    0.0959   -0.1426 C.ar    1  LIG1        0.1161
      6 N          -4.9577   -1.0569    0.3411 N.ar    1  LIG1       -0.2092
      7 H          -1.3723   -1.0091   -1.0873 H       1  LIG1        0.0656
      8 H          -2.3384   -3.1265   -0.0977 H       1  LIG1        0.0672
      9 O          -4.7309   -3.3102    0.8389 O.3     1  LIG1       -0.4796
     10 C          -6.0659   -3.2654    1.3424 C.3     1  LIG1        0.0804
     11 H          -6.2707   -4.2711    1.7124 H       1  LIG1        0.0660
     12 H          -6.1612   -2.5357    2.1520 H       1  LIG1        0.0660
     13 H          -6.7789   -3.0019    0.5549 H       1  LIG1        0.0660
     14 O          -2.5783    1.2383   -1.2642 O.3     1  LIG1       -0.5046
     15 H          -3.2713    1.8922   -1.4346 H       1  LIG1        0.2922
     16 C          -4.8434    2.5872    0.1644 C.ar    1  LIG1       -0.0518
     17 C          -5.7076    3.6698    0.2143 C.ar    1  LIG1       -0.0508
     18 C          -5.3223    1.2872   -0.0971 C.ar    1  LIG1        0.0052
     19 C          -7.0958    3.5459    0.0003 C.ar    1  LIG1        0.0137
     20 H          -5.3027    4.6465    0.4527 H       1  LIG1        0.0625
     21 C          -6.6993    1.1372   -0.2773 C.ar    1  LIG1       -0.0364
     22 C          -7.5862    2.2260   -0.2399 C.ar    1  LIG1        0.0344
     23 H          -7.0969    0.1441   -0.4495 H       1  LIG1        0.0636
     24 H          -3.7928    2.7465    0.3889 H       1  LIG1        0.0624
     25 C          -8.9666    1.9205   -0.4651 C.1     1  LIG1       -0.0690
     26 C         -10.1188    1.5921   -0.6528 C.1     1  LIG1       -0.1139
     27 H         -11.1245    1.2897   -0.8337 H       1  LIG1        0.1232
     28 C          -7.9139    4.7496    0.0473 C.ar    1  LIG1        0.0481
     29 C          -7.5174    6.0896    0.1077 C.ar    1  LIG1       -0.0358
     30 C          -8.6720    6.8887    0.1663 C.ar    1  LIG1       -0.0357
     31 C          -9.7811    6.0409    0.1304 C.ar    1  LIG1        0.0504
     32 N          -9.2926    4.7572    0.0529 N.ar    1  LIG1       -0.3540
     33 H          -9.8524    3.9181    0.0788 H       1  LIG1        0.1659
     34 H          -6.4994    6.4509    0.0903 H       1  LIG1        0.0639
     35 H          -8.7165    7.9643    0.2108 H       1  LIG1        0.0639
     36 C         -11.7655    7.5125    0.6071 C.ar    1  LIG1        0.1259
     37 C         -13.1463    7.7111    0.6070 C.ar    1  LIG1       -0.0193
     38 C         -11.2190    6.3041    0.1171 C.ar    1  LIG1        0.0399
     39 C         -14.0098    6.7320    0.1208 C.ar    1  LIG1       -0.0554
     40 H         -13.5480    8.6427    1.0014 H       1  LIG1        0.0654
     41 C         -12.1227    5.3464   -0.3798 C.ar    1  LIG1       -0.0462
     42 C         -13.5072    5.5301   -0.3886 C.ar    1  LIG1       -0.0496
     43 H         -11.7237    4.4289   -0.8050 H       1  LIG1        0.0628
     44 H         -15.0814    6.9110    0.1341 H       1  LIG1        0.0621
     45 O         -10.9087    8.4655    1.0881 O.3     1  LIG1       -0.5061
     46 H         -11.4274    9.2138    1.4111 H       1  LIG1        0.2922
     47 C         -14.4277    4.4822   -0.9699 C.3     1  LIG1       -0.0397
     48 H         -14.0107    3.4763   -0.8604 H       1  LIG1        0.0278
     49 H         -14.6000    4.6473   -2.0409 H       1  LIG1        0.0278
     50 H         -15.4056    4.4938   -0.4789 H       1  LIG1        0.0278
@<TRIPOS>BOND
     1    49    47    1
     2    15    14    1
     3    14     4    1
     4     7     3    1
     5    47    48    1
     6    47    50    1
     7    47    42    1
     8    27    26    1
     9    43    41    1
    10     4     3   ar
    11     4     5   ar
    12     3     2   ar
    13    26    25    3
    14    25    22    1
    15    23    21    1
    16    42    41   ar
    17    42    39   ar
    18    41    38   ar
    19    21    22   ar
    20    21    18   ar
    21    22    19   ar
    22     5    18    1
    23     5     6   ar
    24     2     8    1
    25     2     1   ar
    26    18    16   ar
    27    19    28    1
    28    19    17   ar
    29    28    32   ar
    30    28    29   ar
    31    32    33    1
    32    32    31   ar
    33    34    29    1
    34    29    30   ar
    35    38    31    1
    36    38    36   ar
    37    39    44    1
    38    39    37   ar
    39    31    30   ar
    40    16    17   ar
    41    16    24    1
    42    30    35    1
    43    17    20    1
    44     6     1   ar
    45     1     9    1
    46    13    10    1
    47    37    36   ar
    48    37    40    1
    49    36    45    1
    50     9    10    1
    51    45    46    1
    52    10    11    1
    53    10    12    1
