@<TRIPOS>MOLECULE
mol_data/opt/b3lyp/geoms/mol2/6lf6lf6lf.out
 44 46 0 0 0
SMALL
GASTEIGER

@<TRIPOS>ATOM
      1 C          -4.1869   -2.0069   -0.6951 C.ar    1  LIG1        0.2152
      2 C          -3.2418   -2.2614    0.3172 C.ar    1  LIG1        0.0035
      3 C          -3.1025   -1.3208    1.3189 C.ar    1  LIG1       -0.0130
      4 C          -3.8908   -0.1600    1.2923 C.ar    1  LIG1        0.1431
      5 C          -4.7968    0.0071    0.2367 C.ar    1  LIG1        0.1212
      6 N          -4.9333   -0.9177   -0.7362 N.ar    1  LIG1       -0.2090
      7 H          -2.4005   -1.4587    2.1348 H       1  LIG1        0.0656
      8 H          -2.6566   -3.1735    0.2964 H       1  LIG1        0.0672
      9 O          -4.3119   -2.9479   -1.6660 O.3     1  LIG1       -0.4796
     10 C          -5.2836   -2.6936   -2.6812 C.3     1  LIG1        0.0804
     11 H          -5.2538   -3.5652   -3.3368 H       1  LIG1        0.0660
     12 H          -6.2825   -2.5721   -2.2519 H       1  LIG1        0.0660
     13 H          -5.0404   -1.7876   -3.2450 H       1  LIG1        0.0660
     14 O          -3.7290    0.7378    2.3109 O.3     1  LIG1       -0.5046
     15 H          -4.3964    1.4335    2.2183 H       1  LIG1        0.2922
     16 C          -7.0648    1.1698    0.0965 C.ar    1  LIG1        0.2248
     17 C          -5.6449    1.2280    0.1428 C.ar    1  LIG1        0.0690
     18 C          -5.0796    2.4988    0.0922 C.ar    1  LIG1       -0.0036
     19 C          -5.8880    3.6385   -0.0189 C.ar    1  LIG1        0.1438
     20 C          -7.2752    3.4636   -0.0843 C.ar    1  LIG1        0.1213
     21 N          -7.8319    2.2384   -0.0191 N.ar    1  LIG1       -0.2085
     22 H          -4.0014    2.6265    0.1129 H       1  LIG1        0.0663
     23 O          -7.6398   -0.0494    0.1983 O.3     1  LIG1       -0.4792
     24 C          -9.0677   -0.0918    0.1742 C.3     1  LIG1        0.0804
     25 H          -9.3262   -1.1435    0.3039 H       1  LIG1        0.0660
     26 H          -9.4956    0.5110    0.9805 H       1  LIG1        0.0660
     27 H          -9.4580    0.2803   -0.7778 H       1  LIG1        0.0660
     28 O          -5.2639    4.8534   -0.0580 O.3     1  LIG1       -0.5046
     29 H          -5.9385    5.5482   -0.0591 H       1  LIG1        0.2922
     30 C          -9.2264    4.9077    0.6963 C.ar    1  LIG1        0.2242
     31 C          -8.1906    4.6285   -0.2370 C.ar    1  LIG1        0.0690
     32 C          -8.0702    5.4979   -1.3189 C.ar    1  LIG1       -0.0043
     33 C          -8.9545    6.5771   -1.4588 C.ar    1  LIG1        0.1357
     34 C          -9.9400    6.7392   -0.4923 C.ar    1  LIG1        0.0728
     35 N         -10.0683    5.9212    0.5638 N.ar    1  LIG1       -0.2171
     36 H          -7.3147    5.3316   -2.0810 H       1  LIG1        0.0663
     37 H         -10.6577    7.5574   -0.5623 H       1  LIG1        0.0868
     38 O          -9.3241    4.1000    1.7750 O.3     1  LIG1       -0.4792
     39 C         -10.3651    4.3904    2.7099 C.3     1  LIG1        0.0804
     40 H         -10.2712    3.6328    3.4888 H       1  LIG1        0.0660
     41 H         -10.2478    5.3911    3.1362 H       1  LIG1        0.0660
     42 H         -11.3495    4.3294    2.2368 H       1  LIG1        0.0660
     43 O          -8.8010    7.3994   -2.5394 O.3     1  LIG1       -0.5052
     44 H          -9.4883    8.0788   -2.5224 H       1  LIG1        0.2922
@<TRIPOS>BOND
     1    11    10    1
     2    13    10    1
     3    10    12    1
     4    10     9    1
     5    43    44    1
     6    43    33    1
     7    36    32    1
     8     9     1    1
     9    33    32   ar
    10    33    34   ar
    11    32    31   ar
    12    27    24    1
    13     6     1   ar
    14     6     5   ar
    15     1     2   ar
    16    37    34    1
    17    34    35   ar
    18    31    20    1
    19    31    30   ar
    20    20    21   ar
    21    20    19   ar
    22    29    28    1
    23    28    19    1
    24    21    16   ar
    25    19    18   ar
    26    18    22    1
    27    18    17   ar
    28    16    17   ar
    29    16    23    1
    30    17     5    1
    31    24    23    1
    32    24    25    1
    33    24    26    1
    34     5     4   ar
    35     8     2    1
    36     2     3   ar
    37    35    30   ar
    38    30    38    1
    39     4     3   ar
    40     4    14    1
    41     3     7    1
    42    38    39    1
    43    15    14    1
    44    42    39    1
    45    39    41    1
    46    39    40    1
