@<TRIPOS>MOLECULE
mol_data/opt/b3lyp/geoms/mol2/6lf6lf.out
 30 31 0 0 0
SMALL
GASTEIGER

@<TRIPOS>ATOM
      1 C          -4.5144   -2.0412   -0.3837 C.ar    1  LIG1        0.2152
      2 C          -3.2538   -2.1176    0.2391 C.ar    1  LIG1        0.0035
      3 C          -2.7407   -0.9638    0.7983 C.ar    1  LIG1       -0.0130
      4 C          -3.4787    0.2279    0.7245 C.ar    1  LIG1        0.1431
      5 C          -4.7205    0.2041    0.0764 C.ar    1  LIG1        0.1212
      6 N          -5.2196   -0.9269   -0.4638 N.ar    1  LIG1       -0.2090
      7 H          -1.7795   -0.9545    1.3018 H       1  LIG1        0.0656
      8 H          -2.7216   -3.0612    0.2725 H       1  LIG1        0.0672
      9 O          -5.0010   -3.1885   -0.9220 O.3     1  LIG1       -0.4796
     10 C          -6.2868   -3.1108   -1.5387 C.3     1  LIG1        0.0804
     11 H          -6.5072   -4.1235   -1.8795 H       1  LIG1        0.0660
     12 H          -7.0470   -2.7729   -0.8281 H       1  LIG1        0.0660
     13 H          -6.2788   -2.4193   -2.3868 H       1  LIG1        0.0660
     14 O          -2.9374    1.3434    1.3014 O.3     1  LIG1       -0.5046
     15 H          -3.5872    2.0601    1.2579 H       1  LIG1        0.2922
     16 C          -6.8677    1.5300    0.4489 C.ar    1  LIG1        0.2242
     17 C          -5.5396    1.4424   -0.0522 C.ar    1  LIG1        0.0690
     18 C          -5.0333    2.5760   -0.6837 C.ar    1  LIG1       -0.0043
     19 C          -5.8262    3.7252   -0.8150 C.ar    1  LIG1        0.1357
     20 C          -7.1166    3.6867   -0.3012 C.ar    1  LIG1        0.0728
     21 N          -7.6229    2.6103    0.3203 N.ar    1  LIG1       -0.2171
     22 H          -4.0337    2.5725   -1.1079 H       1  LIG1        0.0663
     23 H          -7.7752    4.5519   -0.3873 H       1  LIG1        0.0868
     24 O          -7.3553    0.4539    1.1043 O.3     1  LIG1       -0.4792
     25 C          -8.6884    0.5509    1.6080 C.3     1  LIG1        0.0804
     26 H          -8.8832   -0.4070    2.0917 H       1  LIG1        0.0660
     27 H          -8.7818    1.3674    2.3303 H       1  LIG1        0.0660
     28 H          -9.4054    0.7213    0.7996 H       1  LIG1        0.0660
     29 O          -5.2876    4.8112   -1.4471 O.3     1  LIG1       -0.5052
     30 H          -5.9481    5.5159   -1.4846 H       1  LIG1        0.2922
@<TRIPOS>BOND
     1    13    10    1
     2    11    10    1
     3    10     9    1
     4    10    12    1
     5    30    29    1
     6    29    19    1
     7    22    18    1
     8     9     1    1
     9    19    18   ar
    10    19    20   ar
    11    18    17   ar
    12     6     1   ar
    13     6     5   ar
    14    23    20    1
    15     1     2   ar
    16    20    21   ar
    17    17     5    1
    18    17    16   ar
    19     5     4   ar
    20     2     8    1
    21     2     3   ar
    22    21    16   ar
    23    16    24    1
    24     4     3   ar
    25     4    14    1
    26     3     7    1
    27    28    25    1
    28    24    25    1
    29    15    14    1
    30    25    26    1
    31    25    27    1
