@<TRIPOS>MOLECULE
mol_data/opt/b3lyp/geoms/mol2/6lf6lf6lf6lf.out
 58 61 0 0 0
SMALL
GASTEIGER

@<TRIPOS>ATOM
      1 C          -3.6938   -1.8125   -0.7641 C.ar    1  LIG1        0.2152
      2 C          -3.1193   -2.3285    0.4133 C.ar    1  LIG1        0.0035
      3 C          -3.4286   -1.7057    1.6067 C.ar    1  LIG1       -0.0130
      4 C          -4.2865   -0.5950    1.6055 C.ar    1  LIG1        0.1431
      5 C          -4.8001   -0.1498    0.3800 C.ar    1  LIG1        0.1212
      6 N          -4.4993   -0.7658   -0.7821 N.ar    1  LIG1       -0.2090
      7 H          -3.0292   -2.0579    2.5521 H       1  LIG1        0.0656
      8 H          -2.4633   -3.1900    0.3648 H       1  LIG1        0.0672
      9 O          -3.3829   -2.4447   -1.9250 O.3     1  LIG1       -0.4796
     10 C          -3.9844   -1.9294   -3.1134 C.3     1  LIG1        0.0804
     11 H          -3.6425   -2.5815   -3.9185 H       1  LIG1        0.0660
     12 H          -5.0761   -1.9469   -3.0442 H       1  LIG1        0.0660
     13 H          -3.6699   -0.8982   -3.3020 H       1  LIG1        0.0660
     14 O          -4.5753   -0.0183    2.8113 O.3     1  LIG1       -0.5046
     15 H          -5.2456    0.6671    2.6735 H       1  LIG1        0.2922
     16 C          -7.0011    0.9778   -0.2534 C.ar    1  LIG1        0.2248
     17 C          -5.6984    1.0362    0.3132 C.ar    1  LIG1        0.0690
     18 C          -5.2988    2.2739    0.8096 C.ar    1  LIG1       -0.0036
     19 C          -6.1462    3.3871    0.7257 C.ar    1  LIG1        0.1438
     20 C          -7.3994    3.2228    0.1232 C.ar    1  LIG1        0.1213
     21 N          -7.8000    2.0250   -0.3457 N.ar    1  LIG1       -0.2085
     22 H          -4.3141    2.4018    1.2491 H       1  LIG1        0.0663
     23 O          -7.4337   -0.2244   -0.6961 O.3     1  LIG1       -0.4792
     24 C          -8.7533   -0.2715   -1.2415 C.3     1  LIG1        0.0804
     25 H          -8.9178   -1.3168   -1.5062 H       1  LIG1        0.0660
     26 H          -9.4964    0.0610   -0.5107 H       1  LIG1        0.0660
     27 H          -8.8365    0.3628   -2.1291 H       1  LIG1        0.0660
     28 O          -5.6908    4.5675    1.2412 O.3     1  LIG1       -0.5046
     29 H          -6.4025    5.2227    1.1905 H       1  LIG1        0.2922
     30 C          -9.6564    4.3485    0.5057 C.ar    1  LIG1        0.2248
     31 C          -8.3375    4.3689   -0.0249 C.ar    1  LIG1        0.0690
     32 C          -7.9616    5.5279   -0.6982 C.ar    1  LIG1       -0.0036
     33 C          -8.8612    6.5924   -0.8470 C.ar    1  LIG1        0.1438
     34 C         -10.1456    6.4555   -0.3067 C.ar    1  LIG1        0.1213
     35 N         -10.5116    5.3439    0.3603 N.ar    1  LIG1       -0.2085
     36 H          -6.9742    5.6159   -1.1416 H       1  LIG1        0.0663
     37 O         -10.0263    3.2554    1.2099 O.3     1  LIG1       -0.4792
     38 C         -11.3475    3.2571    1.7549 C.3     1  LIG1        0.0804
     39 H         -11.4341    2.3170    2.3011 H       1  LIG1        0.0660
     40 H         -11.4976    4.1068    2.4272 H       1  LIG1        0.0660
     41 H         -12.1009    3.3070    0.9632 H       1  LIG1        0.0660
     42 O          -8.4231    7.7002   -1.5149 O.3     1  LIG1       -0.5046
     43 H          -9.1140    8.3780   -1.4783 H       1  LIG1        0.2922
     44 C         -11.7824    8.1490    0.6671 C.ar    1  LIG1        0.2242
     45 C         -11.1611    7.5348   -0.4548 C.ar    1  LIG1        0.0690
     46 C         -11.5530    7.9849   -1.7137 C.ar    1  LIG1       -0.0043
     47 C         -12.5281    8.9855   -1.8328 C.ar    1  LIG1        0.1357
     48 C         -13.0791    9.4986   -0.6644 C.ar    1  LIG1        0.0728
     49 N         -12.7088    9.0887    0.5586 N.ar    1  LIG1       -0.2171
     50 H         -11.1350    7.5450   -2.6142 H       1  LIG1        0.0663
     51 H         -13.8479   10.2709   -0.7053 H       1  LIG1        0.0868
     52 O         -11.3764    7.7547    1.8939 O.3     1  LIG1       -0.4792
     53 C         -12.0043    8.3786    3.0161 C.3     1  LIG1        0.0804
     54 H         -11.5419    7.9243    3.8931 H       1  LIG1        0.0660
     55 H         -11.8361    9.4596    3.0143 H       1  LIG1        0.0660
     56 H         -13.0828    8.1962    3.0172 H       1  LIG1        0.0660
     57 O         -12.8849    9.3904   -3.0880 O.3     1  LIG1       -0.5052
     58 H         -13.5773   10.0615   -3.0213 H       1  LIG1        0.2922
@<TRIPOS>BOND
     1    11    10    1
     2    13    10    1
     3    10    12    1
     4    10     9    1
     5    57    58    1
     6    57    47    1
     7    50    46    1
     8    27    24    1
     9     9     1    1
    10    47    46   ar
    11    47    48   ar
    12    46    45   ar
    13    42    43    1
    14    42    33    1
    15    25    24    1
    16    24    23    1
    17    24    26    1
    18    36    32    1
    19    33    32   ar
    20    33    34   ar
    21     6     1   ar
    22     6     5   ar
    23     1     2   ar
    24    51    48    1
    25    32    31   ar
    26    23    16    1
    27    48    49   ar
    28    45    34    1
    29    45    44   ar
    30    21    16   ar
    31    21    20   ar
    32    34    35   ar
    33    16    17   ar
    34    31    20    1
    35    31    30   ar
    36    20    19   ar
    37    17     5    1
    38    17    18   ar
    39    35    30   ar
    40     8     2    1
    41     5     4   ar
    42     2     3   ar
    43    30    37    1
    44    49    44   ar
    45    44    52    1
    46    19    18   ar
    47    19    28    1
    48    18    22    1
    49    41    38    1
    50    29    28    1
    51    37    38    1
    52     4     3   ar
    53     4    14    1
    54     3     7    1
    55    38    39    1
    56    38    40    1
    57    52    53    1
    58    15    14    1
    59    55    53    1
    60    53    56    1
    61    53    54    1
