@<TRIPOS>MOLECULE
mol_data/opt/b3lyp/geoms/mol2/6lg.out
 16 16 0 0 0
SMALL
GASTEIGER

@<TRIPOS>ATOM
      1 C          -4.6421   -1.9448    0.0000 C.ar    1  LIG1        0.2144
      2 C          -3.2366   -2.0106   -0.0000 C.ar    1  LIG1        0.0010
      3 C          -2.5300   -0.8224   -0.0002 C.ar    1  LIG1       -0.0421
      4 C          -3.2273    0.3998   -0.0003 C.ar    1  LIG1        0.0231
      5 C          -4.6194    0.3438   -0.0002 C.ar    1  LIG1        0.0445
      6 N          -5.3170   -0.8023   -0.0001 N.ar    1  LIG1       -0.2202
      7 H          -1.4440   -0.8356   -0.0002 H       1  LIG1        0.0631
      8 H          -2.7409   -2.9744    0.0000 H       1  LIG1        0.0671
      9 H          -5.2112    1.2577   -0.0003 H       1  LIG1        0.0842
     10 O          -5.3097   -3.1213    0.0002 O.3     1  LIG1       -0.4796
     11 C          -6.7383   -3.0565    0.0002 C.3     1  LIG1        0.0804
     12 H          -7.0744   -4.0941    0.0003 H       1  LIG1        0.0660
     13 H          -7.1103   -2.5364    0.8877 H       1  LIG1        0.0660
     14 H          -7.1104   -2.5366   -0.8873 H       1  LIG1        0.0660
     15 S          -2.2996    1.9275   -0.0005 S.3     1  LIG1       -0.1411
     16 H          -3.3648    2.7524   -0.0004 H       1  LIG1        0.1072
@<TRIPOS>BOND
     1    14    11    1
     2    15    16    1
     3    15     4    1
     4     4     5   ar
     5     4     3   ar
     6     9     5    1
     7     7     3    1
     8     5     6   ar
     9     3     2   ar
    10     6     1   ar
    11     2     1   ar
    12     2     8    1
    13     1    10    1
    14    10    11    1
    15    11    12    1
    16    11    13    1
