@<TRIPOS>MOLECULE
mol_data/opt/b3lyp/geoms/mol2/6lh13dd-6fa6hd.out
 49 52 0 0 0
SMALL
GASTEIGER

@<TRIPOS>ATOM
      1 C          -4.7270   -1.8870   -0.8339 C.ar    1  LIG1        0.2151
      2 C          -3.3846   -2.2367   -0.5760 C.ar    1  LIG1        0.0017
      3 C          -2.5619   -1.2663   -0.0601 C.ar    1  LIG1       -0.0339
      4 C          -3.0299    0.0486    0.2019 C.ar    1  LIG1        0.0526
      5 C          -4.3779    0.3052   -0.1325 C.ar    1  LIG1        0.1127
      6 N          -5.1916   -0.6765   -0.6215 N.ar    1  LIG1       -0.2095
      7 H          -1.5261   -1.5017    0.1700 H       1  LIG1        0.0638
      8 H          -3.0362   -3.2422   -0.7801 H       1  LIG1        0.0671
      9 O          -5.5274   -2.8647   -1.3205 O.3     1  LIG1       -0.4796
     10 C          -6.8858   -2.5264   -1.5972 C.3     1  LIG1        0.0804
     11 H          -7.3329   -3.4301   -2.0120 H       1  LIG1        0.0660
     12 H          -7.4172   -2.2364   -0.6842 H       1  LIG1        0.0660
     13 H          -6.9509   -1.7082   -2.3212 H       1  LIG1        0.0660
     14 N          -2.1817    0.9289    0.8425 N.pl3   1  LIG1       -0.3563
     15 H          -1.2112    0.6508    0.8635 H       1  LIG1        0.1424
     16 H          -2.2896    1.9234    0.7068 H       1  LIG1        0.1424
     17 C          -5.1091    1.5669    0.0513 C.ar    1  LIG1        0.0862
     18 C          -4.8186    2.9315    0.1801 C.ar    1  LIG1        0.0965
     19 C          -6.0727    3.6384    0.2744 C.ar    1  LIG1        0.0951
     20 C          -7.0970    2.6976    0.1830 C.ar    1  LIG1        0.0709
     21 N          -6.4805    1.4736    0.0678 N.ar    1  LIG1       -0.3507
     22 H          -6.9073    0.5914   -0.1960 H       1  LIG1        0.1660
     23 N          -2.5171    4.0944    0.0904 N.1     1  LIG1       -0.1908
     24 C          -3.5588    3.5726    0.1357 C.1     1  LIG1        0.1026
     25 N          -6.3583    6.1862    0.5792 N.1     1  LIG1       -0.1908
     26 C          -6.2255    5.0369    0.4467 C.1     1  LIG1        0.1026
     27 C          -9.4122    1.8743    0.7473 C.ar    1  LIG1        0.2222
     28 C          -8.5501    2.8491    0.1920 C.ar    1  LIG1        0.0610
     29 C          -9.1826    3.9799   -0.3499 C.ar    1  LIG1       -0.0455
     30 C         -10.5641    4.0767   -0.3728 C.ar    1  LIG1       -0.0347
     31 C         -11.3384    3.0128    0.1286 C.ar    1  LIG1        0.0781
     32 N         -10.7311    1.9489    0.6971 N.ar    1  LIG1       -0.2124
     33 H          -8.5808    4.7830   -0.7606 H       1  LIG1        0.0626
     34 O          -8.9502    0.7566    1.3757 O.3     1  LIG1       -0.4919
     35 H          -8.0358    0.8986    1.6612 H       1  LIG1        0.2937
     36 H         -11.0259    4.9707   -0.7703 H       1  LIG1        0.0639
     37 C         -13.6402    2.1256    0.8544 C.ar    1  LIG1        0.1254
     38 C         -12.8158    3.0167    0.0761 C.ar    1  LIG1        0.0412
     39 C         -13.4912    3.9124   -0.7519 C.ar    1  LIG1       -0.0304
     40 C         -14.8901    3.9617   -0.7879 C.ar    1  LIG1        0.0706
     41 C         -15.5882    3.0719    0.0502 C.ar    1  LIG1        0.0471
     42 N         -14.9940    2.1900    0.8335 N.ar    1  LIG1       -0.2388
     43 H         -12.9365    4.5798   -1.4007 H       1  LIG1        0.0638
     44 H         -16.6761    3.0841    0.0669 H       1  LIG1        0.0843
     45 N         -13.1278    1.1819    1.6659 N.pl3   1  LIG1       -0.3426
     46 H         -13.7844    0.5901    2.1500 H       1  LIG1        0.1437
     47 H         -12.1296    1.0032    1.6396 H       1  LIG1        0.1437
     48 N         -16.1559    5.6117   -2.3340 N.1     1  LIG1       -0.1908
     49 C         -15.5849    4.8712   -1.6401 C.1     1  LIG1        0.1007
@<TRIPOS>BOND
     1    48    49    3
     2    13    10    1
     3    11    10    1
     4    49    40    1
     5    10     9    1
     6    10    12    1
     7    43    39    1
     8     9     1    1
     9     1     6   ar
    10     1     2   ar
    11    40    39   ar
    12    40    41   ar
    13     8     2    1
    14    36    30    1
    15    33    29    1
    16    39    38   ar
    17     6     5   ar
    18     2     3   ar
    19    30    29   ar
    20    30    31   ar
    21    29    28   ar
    22    22    21    1
    23     5    17    1
    24     5     4   ar
    25     3     7    1
    26     3     4   ar
    27    41    44    1
    28    41    42   ar
    29    17    21   ar
    30    17    18   ar
    31    21    20   ar
    32    38    31    1
    33    38    37   ar
    34    23    24    3
    35    31    32   ar
    36    24    18    1
    37    18    19   ar
    38    20    28    1
    39    20    19   ar
    40    28    27   ar
    41     4    14    1
    42    19    26    1
    43    26    25    3
    44    32    27   ar
    45    16    14    1
    46    27    34    1
    47    42    37   ar
    48    14    15    1
    49    37    45    1
    50    34    35    1
    51    47    45    1
    52    45    46    1
