@<TRIPOS>MOLECULE
mol_data/opt/b3lyp/geoms/mol2/6lh6lh6lh.out
 47 49 0 0 0
SMALL
GASTEIGER

@<TRIPOS>ATOM
      1 C          -4.1383   -1.9304    0.8397 C.ar    1  LIG1        0.2151
      2 C          -3.1553   -2.2282   -0.1195 C.ar    1  LIG1        0.0017
      3 C          -2.9694   -1.3238   -1.1474 C.ar    1  LIG1       -0.0339
      4 C          -3.7470   -0.1520   -1.2185 C.ar    1  LIG1        0.0513
      5 C          -4.6972    0.0499   -0.1996 C.ar    1  LIG1        0.1005
      6 N          -4.8746   -0.8350    0.8019 N.ar    1  LIG1       -0.2109
      7 H          -2.2211   -1.5150   -1.9130 H       1  LIG1        0.0638
      8 H          -2.5761   -3.1412   -0.0428 H       1  LIG1        0.0671
      9 O          -4.3174   -2.8321    1.8415 O.3     1  LIG1       -0.4796
     10 C          -5.3385   -2.5304    2.7929 C.3     1  LIG1        0.0804
     11 H          -5.3520   -3.3756    3.4830 H       1  LIG1        0.0660
     12 H          -5.1175   -1.6045    3.3330 H       1  LIG1        0.0660
     13 H          -6.3123   -2.4176    2.3069 H       1  LIG1        0.0660
     14 N          -3.5293    0.7820   -2.2463 N.pl3   1  LIG1       -0.3563
     15 H          -3.1825    0.3617   -3.0999 H       1  LIG1        0.1424
     16 H          -4.3360    1.3639   -2.4373 H       1  LIG1        0.1424
     17 C          -6.9705    1.2062   -0.1308 C.ar    1  LIG1        0.2246
     18 C          -5.5538    1.2684   -0.1650 C.ar    1  LIG1        0.0655
     19 C          -4.9976    2.5432   -0.1423 C.ar    1  LIG1       -0.0246
     20 C          -5.7975    3.6970   -0.0727 C.ar    1  LIG1        0.0519
     21 C          -7.1898    3.5065   -0.0220 C.ar    1  LIG1        0.1005
     22 N          -7.7381    2.2775   -0.0578 N.ar    1  LIG1       -0.2103
     23 H          -3.9158    2.6462   -0.1708 H       1  LIG1        0.0645
     24 O          -7.5495   -0.0175   -0.2071 O.3     1  LIG1       -0.4792
     25 C          -8.9765   -0.0496   -0.1964 C.3     1  LIG1        0.0804
     26 H          -9.2419   -1.1033   -0.2965 H       1  LIG1        0.0660
     27 H          -9.3755    0.3543    0.7392 H       1  LIG1        0.0660
     28 H          -9.3942    0.5316   -1.0240 H       1  LIG1        0.0660
     29 N          -5.2026    4.9680    0.0004 N.pl3   1  LIG1       -0.3563
     30 H          -4.2924    5.0112   -0.4407 H       1  LIG1        0.1424
     31 H          -5.8010    5.7143   -0.3314 H       1  LIG1        0.1424
     32 C          -9.1789    4.8676   -0.8503 C.ar    1  LIG1        0.2240
     33 C          -8.1342    4.6543    0.0853 C.ar    1  LIG1        0.0655
     34 C          -8.0440    5.5614    1.1382 C.ar    1  LIG1       -0.0252
     35 C          -8.9601    6.6206    1.2646 C.ar    1  LIG1        0.0438
     36 C          -9.9501    6.7097    0.2843 C.ar    1  LIG1        0.0520
     37 N         -10.0514    5.8585   -0.7463 N.ar    1  LIG1       -0.2189
     38 H          -7.2606    5.4322    1.8803 H       1  LIG1        0.0645
     39 H         -10.6966    7.5024    0.3290 H       1  LIG1        0.0849
     40 O          -9.2532    4.0277   -1.9130 O.3     1  LIG1       -0.4792
     41 C         -10.3141    4.2558   -2.8387 C.3     1  LIG1        0.0804
     42 H         -10.2039    3.4824   -3.6007 H       1  LIG1        0.0660
     43 H         -11.2912    4.1720   -2.3531 H       1  LIG1        0.0660
     44 H         -10.2422    5.2488   -3.2935 H       1  LIG1        0.0660
     45 N          -8.9229    7.4921    2.3617 N.pl3   1  LIG1       -0.3568
     46 H          -8.0016    7.6253    2.7575 H       1  LIG1        0.1424
     47 H          -9.3785    8.3811    2.2011 H       1  LIG1        0.1424
@<TRIPOS>BOND
     1    42    41    1
     2    44    41    1
     3    15    14    1
     4    41    43    1
     5    41    40    1
     6    16    14    1
     7    14     4    1
     8     7     3    1
     9    40    32    1
    10     4     3   ar
    11     4     5   ar
    12     3     2   ar
    13    28    25    1
    14    32    37   ar
    15    32    33   ar
    16    37    36   ar
    17    30    29    1
    18    31    29    1
    19    26    25    1
    20    24    25    1
    21    24    17    1
    22     5    18    1
    23     5     6   ar
    24    25    27    1
    25    23    19    1
    26    18    19   ar
    27    18    17   ar
    28    19    20   ar
    29    17    22   ar
    30     2     8    1
    31     2     1   ar
    32    20    21   ar
    33    20    29    1
    34    22    21   ar
    35    21    33    1
    36    33    34   ar
    37    36    39    1
    38    36    35   ar
    39     6     1   ar
    40     1     9    1
    41    34    35   ar
    42    34    38    1
    43    35    45    1
    44     9    10    1
    45    47    45    1
    46    13    10    1
    47    45    46    1
    48    10    12    1
    49    10    11    1
