@<TRIPOS>MOLECULE
mol_data/opt/b3lyp/geoms/mol2/6lh6lh.out
 32 33 0 0 0
SMALL
GASTEIGER

@<TRIPOS>ATOM
      1 C          -4.4963   -2.0219    0.4501 C.ar    1  LIG1        0.2151
      2 C          -3.2339   -2.1342   -0.1575 C.ar    1  LIG1        0.0017
      3 C          -2.7083   -1.0053   -0.7558 C.ar    1  LIG1       -0.0339
      4 C          -3.4265    0.2061   -0.7513 C.ar    1  LIG1        0.0513
      5 C          -4.6787    0.2065   -0.1090 C.ar    1  LIG1        0.1005
      6 N          -5.1872   -0.8968    0.4753 N.ar    1  LIG1       -0.2109
      7 H          -1.7348   -1.0470   -1.2384 H       1  LIG1        0.0638
      8 H          -2.7071   -3.0814   -0.1502 H       1  LIG1        0.0671
      9 O          -5.0036   -3.1416    1.0306 O.3     1  LIG1       -0.4796
     10 C          -6.2954   -3.0201    1.6264 C.3     1  LIG1        0.0804
     11 H          -6.5365   -4.0154    2.0034 H       1  LIG1        0.0660
     12 H          -6.2880   -2.2962    2.4472 H       1  LIG1        0.0660
     13 H          -7.0415   -2.6979    0.8938 H       1  LIG1        0.0660
     14 N          -2.8711    1.3620   -1.3273 N.pl3   1  LIG1       -0.3563
     15 H          -2.2412    1.1625   -2.0946 H       1  LIG1        0.1424
     16 H          -3.5646    2.0465   -1.6029 H       1  LIG1        0.1424
     17 C          -6.8361    1.4983   -0.5235 C.ar    1  LIG1        0.2240
     18 C          -5.5094    1.4421   -0.0251 C.ar    1  LIG1        0.0655
     19 C          -5.0192    2.5973    0.5783 C.ar    1  LIG1       -0.0252
     20 C          -5.8168    3.7495    0.6957 C.ar    1  LIG1        0.0438
     21 C          -7.1102    3.6683    0.1766 C.ar    1  LIG1        0.0520
     22 N          -7.6025    2.5737   -0.4203 N.ar    1  LIG1       -0.2189
     23 H          -4.0084    2.5958    0.9780 H       1  LIG1        0.0645
     24 H          -7.7826    4.5233    0.2436 H       1  LIG1        0.0849
     25 O          -7.3147    0.4006   -1.1596 O.3     1  LIG1       -0.4792
     26 C          -8.6520    0.4736   -1.6502 C.3     1  LIG1        0.0804
     27 H          -8.8437   -0.4963   -2.1117 H       1  LIG1        0.0660
     28 H          -9.3641    0.6548   -0.8393 H       1  LIG1        0.0660
     29 H          -8.7640    1.2734   -2.3891 H       1  LIG1        0.0660
     30 N          -5.3584    4.8909    1.3684 N.pl3   1  LIG1       -0.3568
     31 H          -4.3566    5.0252    1.3260 H       1  LIG1        0.1424
     32 H          -5.8463    5.7417    1.1199 H       1  LIG1        0.1424
@<TRIPOS>BOND
     1    29    26    1
     2    27    26    1
     3    15    14    1
     4    26    25    1
     5    26    28    1
     6    16    14    1
     7    14     4    1
     8     7     3    1
     9    25    17    1
    10     3     4   ar
    11     3     2   ar
    12     4     5   ar
    13    17    22   ar
    14    17    18   ar
    15    22    21   ar
    16     2     8    1
    17     2     1   ar
    18     5    18    1
    19     5     6   ar
    20    18    19   ar
    21    21    24    1
    22    21    20   ar
    23     1     6   ar
    24     1     9    1
    25    19    20   ar
    26    19    23    1
    27    20    30    1
    28    13    10    1
    29     9    10    1
    30    32    30    1
    31    31    30    1
    32    10    11    1
    33    10    12    1
