@<TRIPOS>MOLECULE
mol_data/opt/b3lyp/geoms/mol2/6lh6lh6lh6lh.out
 62 65 0 0 0
SMALL
GASTEIGER

@<TRIPOS>ATOM
      1 C          -3.6511   -1.7006    1.0677 C.ar    1  LIG1        0.2151
      2 C          -3.0219   -2.2846   -0.0449 C.ar    1  LIG1        0.0017
      3 C          -3.2567   -1.7184   -1.2833 C.ar    1  LIG1       -0.0339
      4 C          -4.1012   -0.5987   -1.4091 C.ar    1  LIG1        0.0513
      5 C          -4.6731   -0.0904   -0.2273 C.ar    1  LIG1        0.1005
      6 N          -4.4400   -0.6455    0.9790 N.ar    1  LIG1       -0.2109
      7 H          -2.7923   -2.1391   -2.1720 H       1  LIG1        0.0638
      8 H          -2.3820   -3.1503    0.0815 H       1  LIG1        0.0671
      9 O          -3.4184   -2.2716    2.2796 O.3     1  LIG1       -0.4796
     10 C          -4.0862   -1.6848    3.3970 C.3     1  LIG1        0.0804
     11 H          -3.8066   -2.2959    4.2568 H       1  LIG1        0.0660
     12 H          -3.7688   -0.6486    3.5502 H       1  LIG1        0.0660
     13 H          -5.1715   -1.6919    3.2590 H       1  LIG1        0.0660
     14 N          -4.3087   -0.0043   -2.6660 N.pl3   1  LIG1       -0.3563
     15 H          -4.2334   -0.6597   -3.4343 H       1  LIG1        0.1424
     16 H          -5.1752    0.5168   -2.7249 H       1  LIG1        0.1424
     17 C          -6.8822    1.0815    0.2764 C.ar    1  LIG1        0.2246
     18 C          -5.5636    1.1040   -0.2457 C.ar    1  LIG1        0.0655
     19 C          -5.1330    2.3203   -0.7658 C.ar    1  LIG1       -0.0246
     20 C          -5.9553    3.4602   -0.7566 C.ar    1  LIG1        0.0519
     21 C          -7.2361    3.3192   -0.1924 C.ar    1  LIG1        0.1005
     22 N          -7.6664    2.1427    0.3009 N.ar    1  LIG1       -0.2103
     23 H          -4.1315    2.3892   -1.1830 H       1  LIG1        0.0645
     24 O          -7.3559   -0.1008    0.7420 O.3     1  LIG1       -0.4792
     25 C          -8.6950   -0.1004    1.2364 C.3     1  LIG1        0.0804
     26 H          -8.8950   -1.1327    1.5281 H       1  LIG1        0.0660
     27 H          -8.7988    0.5641    2.0997 H       1  LIG1        0.0660
     28 H          -9.4031    0.2256    0.4686 H       1  LIG1        0.0660
     29 N          -5.4730    4.6863   -1.2447 N.pl3   1  LIG1       -0.3563
     30 H          -4.7620    4.5830   -1.9581 H       1  LIG1        0.1424
     31 H          -6.2051    5.3148   -1.5520 H       1  LIG1        0.1424
     32 C          -9.4937    4.4156   -0.6469 C.ar    1  LIG1        0.2246
     33 C          -8.1840    4.4642   -0.1042 C.ar    1  LIG1        0.0655
     34 C          -7.8336    5.6454    0.5419 C.ar    1  LIG1       -0.0246
     35 C          -8.7356    6.7166    0.6623 C.ar    1  LIG1        0.0519
     36 C         -10.0139    6.5412    0.1027 C.ar    1  LIG1        0.1005
     37 N         -10.3569    5.4079   -0.5377 N.ar    1  LIG1       -0.2103
     38 H          -6.8393    5.7353    0.9719 H       1  LIG1        0.0645
     39 O          -9.8511    3.3024   -1.3348 O.3     1  LIG1       -0.4792
     40 C         -11.1676    3.2895   -1.8866 C.3     1  LIG1        0.0804
     41 H         -11.2487    2.3393   -2.4171 H       1  LIG1        0.0660
     42 H         -11.9275    3.3506   -1.1016 H       1  LIG1        0.0660
     43 H         -11.3199    4.1269   -2.5742 H       1  LIG1        0.0660
     44 N          -8.3692    7.8756    1.3666 N.pl3   1  LIG1       -0.3563
     45 H          -7.3729    8.0549    1.3565 H       1  LIG1        0.1424
     46 H          -8.8890    8.6993    1.0903 H       1  LIG1        0.1424
     47 C         -11.7042    8.1334   -0.9474 C.ar    1  LIG1        0.2240
     48 C         -11.0628    7.5956    0.1978 C.ar    1  LIG1        0.0655
     49 C         -11.4808    8.0822    1.4341 C.ar    1  LIG1       -0.0252
     50 C         -12.5008    9.0453    1.5281 C.ar    1  LIG1        0.0438
     51 C         -13.0606    9.4807    0.3254 C.ar    1  LIG1        0.0520
     52 N         -12.6678    9.0392   -0.8777 N.ar    1  LIG1       -0.2189
     53 H         -11.0184    7.6933    2.3375 H       1  LIG1        0.0645
     54 H         -13.8618   10.2193    0.3289 H       1  LIG1        0.0849
     55 O         -11.2771    7.7126   -2.1644 O.3     1  LIG1       -0.4792
     56 C         -11.9410    8.2600   -3.3019 C.3     1  LIG1        0.0804
     57 H         -11.4655    7.7936   -4.1663 H       1  LIG1        0.0660
     58 H         -13.0106    8.0290   -3.2878 H       1  LIG1        0.0660
     59 H         -11.8265    9.3476   -3.3476 H       1  LIG1        0.0660
     60 N         -12.9795    9.4846    2.7699 N.pl3   1  LIG1       -0.3568
     61 H         -12.2936    9.4630    3.5132 H       1  LIG1        0.1424
     62 H         -13.4511   10.3792    2.7399 H       1  LIG1        0.1424
@<TRIPOS>BOND
     1    57    56    1
     2    15    14    1
     3    59    56    1
     4    56    58    1
     5    56    55    1
     6    16    14    1
     7    14     4    1
     8    43    40    1
     9    41    40    1
    10     7     3    1
    11    55    47    1
    12    30    29    1
    13    40    39    1
    14    40    42    1
    15    31    29    1
    16     4     3   ar
    17     4     5   ar
    18    39    32    1
    19     3     2   ar
    20    29    20    1
    21    23    19    1
    22    47    52   ar
    23    47    48   ar
    24    52    51   ar
    25    19    20   ar
    26    19    18   ar
    27    20    21   ar
    28    32    37   ar
    29    32    33   ar
    30    37    36   ar
    31    18     5    1
    32    18    17   ar
    33     5     6   ar
    34    21    33    1
    35    21    22   ar
    36    33    34   ar
    37     2     8    1
    38     2     1   ar
    39    36    48    1
    40    36    35   ar
    41    48    49   ar
    42    17    22   ar
    43    17    24    1
    44    51    54    1
    45    51    50   ar
    46    28    25    1
    47    34    35   ar
    48    34    38    1
    49    35    44    1
    50    24    25    1
    51     6     1   ar
    52     1     9    1
    53    46    44    1
    54    25    26    1
    55    25    27    1
    56    45    44    1
    57    49    50   ar
    58    49    53    1
    59    50    60    1
    60     9    10    1
    61    62    60    1
    62    60    61    1
    63    13    10    1
    64    10    12    1
    65    10    11    1
