@<TRIPOS>MOLECULE
mol_data/opt/b3lyp/geoms/mol2/6li12ai-13fi12ed-.out
 50 53 0 0 0
SMALL
GASTEIGER

@<TRIPOS>ATOM
      1 C          -4.7873   -2.0827   -0.1416 C.ar    1  LIG1        0.2151
      2 C          -3.3948   -2.2558   -0.0783 C.ar    1  LIG1        0.0003
      3 C          -2.6271   -1.1075   -0.0081 C.ar    1  LIG1       -0.0517
      4 C          -3.2095    0.1700   -0.0030 C.ar    1  LIG1       -0.0212
      5 C          -4.6189    0.2187   -0.0737 C.ar    1  LIG1        0.1127
      6 N          -5.3788   -0.9026   -0.1392 N.ar    1  LIG1       -0.2095
      7 H          -1.5447   -1.1891    0.0482 H       1  LIG1        0.0622
      8 H          -2.9642   -3.2500   -0.0832 H       1  LIG1        0.0671
      9 O          -5.5388   -3.2089   -0.2093 O.3     1  LIG1       -0.4796
     10 C          -6.9543   -3.0414   -0.2868 C.3     1  LIG1        0.0804
     11 H          -7.3630   -4.0517   -0.3383 H       1  LIG1        0.0660
     12 H          -7.3409   -2.5209    0.5949 H       1  LIG1        0.0660
     13 H          -7.2377   -2.4729   -1.1778 H       1  LIG1        0.0660
     14 C          -2.3264    1.3881    0.0842 C.3     1  LIG1       -0.0376
     15 H          -2.6103    2.0398    0.9180 H       1  LIG1        0.0278
     16 H          -2.3682    1.9926   -0.8300 H       1  LIG1        0.0278
     17 H          -1.2845    1.0922    0.2321 H       1  LIG1        0.0278
     18 C          -5.3799    1.4663   -0.0756 C.ar    1  LIG1        0.1545
     19 C          -5.0884    2.8085   -0.1584 C.ar    1  LIG1       -0.0107
     20 C          -6.3142    3.5390   -0.1259 C.ar    1  LIG1       -0.0025
     21 C          -7.3055    2.5829   -0.0159 C.ar    1  LIG1        0.1583
     22 O          -6.7408    1.3322    0.0115 O.2     1  LIG1       -0.4514
     23 H          -4.1121    3.2547   -0.2515 H       1  LIG1        0.0659
     24 C          -6.4207    5.0323   -0.2169 C.3     1  LIG1       -0.0360
     25 H          -7.4527    5.3713   -0.1456 H       1  LIG1        0.0279
     26 H          -6.0055    5.3922   -1.1660 H       1  LIG1        0.0279
     27 H          -5.8467    5.5112    0.5851 H       1  LIG1        0.0279
     28 C          -8.7439    2.5383    0.0689 C.ar    1  LIG1        0.1251
     29 C          -9.7684    3.4871    0.1559 C.ar    1  LIG1        0.1486
     30 C         -11.0168    2.8263    0.2242 C.ar    1  LIG1        0.0200
     31 C         -10.7349    1.4544    0.1584 C.ar    1  LIG1        0.0904
     32 N          -9.3703    1.3111    0.0818 N.ar    1  LIG1       -0.3462
     33 H          -8.8693    0.4378    0.0234 H       1  LIG1        0.1662
     34 O          -9.5641    4.8372    0.2203 O.3     1  LIG1       -0.5043
     35 H         -10.4134    5.2832    0.1101 H       1  LIG1        0.2922
     36 C         -12.3370    3.5071    0.4267 C.3     1  LIG1       -0.0341
     37 H         -13.0351    2.8678    0.9706 H       1  LIG1        0.0279
     38 H         -12.8263    3.7793   -0.5155 H       1  LIG1        0.0279
     39 H         -12.2113    4.4220    1.0196 H       1  LIG1        0.0279
     40 C         -11.5749    0.2911    0.1979 C.ar    1  LIG1        0.1678
     41 C         -12.8812   -0.0002   -0.1609 C.ar    1  LIG1        0.0892
     42 C         -13.0685   -1.4074    0.1556 C.ar    1  LIG1        0.1054
     43 C         -11.8787   -1.8602    0.6448 C.ar    1  LIG1        0.1112
     44 O         -10.9728   -0.8541    0.6783 O.2     1  LIG1       -0.4589
     45 H         -11.5494   -2.8263    0.9924 H       1  LIG1        0.1043
     46 C         -13.8381    0.8223   -0.7974 C.1     1  LIG1       -0.0645
     47 C         -14.6853    1.4790   -1.3599 C.1     1  LIG1       -0.1138
     48 H         -15.4309    2.0497   -1.8633 H       1  LIG1        0.1232
     49 N         -15.2164   -2.8026   -0.1810 N.1     1  LIG1       -0.1907
     50 C         -14.2494   -2.1737   -0.0300 C.1     1  LIG1        0.1036
@<TRIPOS>BOND
     1    48    47    1
     2    47    46    3
     3    13    10    1
     4    26    24    1
     5    16    14    1
     6    46    41    1
     7    38    36    1
     8    11    10    1
     9    10     9    1
    10    10    12    1
    11    23    19    1
    12    24    25    1
    13    24    20    1
    14    24    27    1
    15     9     1    1
    16    49    50    3
    17    41    42   ar
    18    41    40   ar
    19    19    20   ar
    20    19    18   ar
    21     1     6   ar
    22     1     2   ar
    23     6     5   ar
    24    20    21   ar
    25     8     2    1
    26     2     3   ar
    27    18     5    1
    28    18    22   ar
    29     5     4   ar
    30    50    42    1
    31    21    22   ar
    32    21    28    1
    33     3     4   ar
    34     3     7    1
    35     4    14    1
    36    33    32    1
    37    28    32   ar
    38    28    29   ar
    39    32    31   ar
    40    14    17    1
    41    14    15    1
    42    35    34    1
    43    42    43   ar
    44    29    34    1
    45    29    30   ar
    46    31    40    1
    47    31    30   ar
    48    40    44   ar
    49    30    36    1
    50    36    37    1
    51    36    39    1
    52    43    44   ar
    53    43    45    1
