@<TRIPOS>MOLECULE
mol_data/opt/b3lyp/geoms/mol2/6li4ff-13fl-13hh-6ff-6ia12de13hf-.out
 99 106 0 0 0
SMALL
GASTEIGER

@<TRIPOS>ATOM
      1 C          -3.1899   -1.4190   -1.8840 C.ar    1  LIG1        0.2150
      2 C          -2.2482   -1.9161   -0.9695 C.ar    1  LIG1        0.0003
      3 C          -2.1364   -1.2529    0.2387 C.ar    1  LIG1       -0.0518
      4 C          -2.9151   -0.1181    0.5275 C.ar    1  LIG1       -0.0241
      5 C          -3.7963    0.3105   -0.4806 C.ar    1  LIG1        0.0813
      6 N          -3.9385   -0.3528   -1.6522 N.ar    1  LIG1       -0.2125
      7 H          -1.4420   -1.6206    0.9901 H       1  LIG1        0.0622
      8 H          -1.6582   -2.7919   -1.2136 H       1  LIG1        0.0671
      9 O          -3.3178   -2.0868   -3.0576 O.3     1  LIG1       -0.4796
     10 C          -4.2604   -1.5709   -3.9980 C.3     1  LIG1        0.0804
     11 H          -4.1876   -2.2235   -4.8693 H       1  LIG1        0.0660
     12 H          -5.2777   -1.5932   -3.5950 H       1  LIG1        0.0660
     13 H          -4.0227   -0.5394   -4.2737 H       1  LIG1        0.0660
     14 C          -2.8101    0.5427    1.8795 C.3     1  LIG1       -0.0377
     15 H          -3.7855    0.8933    2.2294 H       1  LIG1        0.0278
     16 H          -2.1507    1.4149    1.8486 H       1  LIG1        0.0278
     17 H          -2.4170   -0.1605    2.6197 H       1  LIG1        0.0278
     18 C          -4.2748    2.7773    0.0028 C.ar    1  LIG1        0.1269
     19 C          -5.1857    3.8250    0.1144 C.ar    1  LIG1       -0.0068
     20 C          -4.7070    1.4803   -0.3263 C.ar    1  LIG1        0.0456
     21 C          -6.5649    3.6544   -0.1135 C.ar    1  LIG1        0.0469
     22 H          -4.8239    4.8152    0.3705 H       1  LIG1        0.0662
     23 C          -6.0743    1.3137   -0.5840 C.ar    1  LIG1       -0.0068
     24 C          -6.9864    2.3539   -0.4787 C.ar    1  LIG1        0.1269
     25 H          -6.4199    0.3260   -0.8793 H       1  LIG1        0.0662
     26 O          -2.9301    2.9916    0.1742 O.3     1  LIG1       -0.5061
     27 H          -2.7898    3.9308    0.3518 H       1  LIG1        0.2922
     28 O          -8.3329    2.1401   -0.7255 O.3     1  LIG1       -0.5061
     29 H          -8.4615    1.2226   -0.9969 H       1  LIG1        0.2922
     30 C          -7.4722    4.7829    0.0166 C.ar    1  LIG1        0.0964
     31 C          -7.2302    6.1217    0.3386 C.ar    1  LIG1        0.1852
     32 C          -8.4568    6.8150    0.3081 C.ar    1  LIG1        0.1888
     33 C          -9.4637    5.9117   -0.0431 C.ar    1  LIG1        0.1112
     34 N          -8.8437    4.6955   -0.1899 N.ar    1  LIG1       -0.3470
     35 H          -9.2674    3.8561   -0.5570 H       1  LIG1        0.1662
     36 O          -6.0257    6.6874    0.6487 O.3     1  LIG1       -0.5019
     37 H          -6.1781    7.6433    0.6978 H       1  LIG1        0.2924
     38 O          -8.5650    8.1629    0.5942 O.3     1  LIG1       -0.4895
     39 C          -9.0362    8.4407    1.9273 C.3     1  LIG1        0.0791
     40 H          -9.0192    9.5262    2.0415 H       1  LIG1        0.0660
     41 H         -10.0586    8.0742    2.0623 H       1  LIG1        0.0660
     42 H          -8.3813    7.9768    2.6731 H       1  LIG1        0.0660
     43 C         -10.8809    6.0812   -0.2239 C.ar    1  LIG1        0.0898
     44 C         -11.6308    7.2031   -0.5412 C.ar    1  LIG1        0.0733
     45 C         -13.0114    6.8094   -0.5728 C.ar    1  LIG1        0.0720
     46 C         -13.0816    5.4513   -0.3053 C.ar    1  LIG1        0.0750
     47 N         -11.7511    4.9845   -0.1378 N.ar    1  LIG1       -0.3498
     48 H         -11.5897    4.3188    0.6123 H       1  LIG1        0.1661
     49 N         -11.2065    8.5167   -0.8202 N.pl3   1  LIG1       -0.3548
     50 H         -10.2277    8.6581   -0.5836 H       1  LIG1        0.1424
     51 H         -11.3507    8.7687   -1.7952 H       1  LIG1        0.1424
     52 N         -14.0579    7.6880   -0.8319 N.pl3   1  LIG1       -0.3549
     53 H         -13.7540    8.5996   -1.1460 H       1  LIG1        0.1424
     54 H         -14.8208    7.3156   -1.3823 H       1  LIG1        0.1424
     55 C         -14.1249    3.1690   -0.5997 C.ar    1  LIG1        0.2225
     56 C         -14.2214    4.5517   -0.2544 C.ar    1  LIG1        0.0650
     57 C         -15.4915    4.9973    0.1323 C.ar    1  LIG1       -0.0038
     58 C         -16.5746    4.1197    0.1625 C.ar    1  LIG1        0.1436
     59 C         -16.3682    2.7754   -0.1988 C.ar    1  LIG1        0.1178
     60 N         -15.1452    2.3379   -0.5590 N.ar    1  LIG1       -0.2087
     61 H         -15.6411    6.0233    0.4509 H       1  LIG1        0.0663
     62 O         -12.9468    2.6122   -1.0020 O.3     1  LIG1       -0.4919
     63 H         -12.3100    3.3301   -1.1598 H       1  LIG1        0.2937
     64 O         -17.7791    4.6266    0.5704 O.3     1  LIG1       -0.5046
     65 H         -18.3932    3.8929    0.7171 H       1  LIG1        0.2922
     66 C         -17.3842    0.5057    0.3749 C.ar    1  LIG1        0.0483
     67 C         -17.4826    1.7923   -0.2219 C.ar    1  LIG1        0.0251
     68 C         -18.6863    2.1028   -0.8734 C.ar    1  LIG1       -0.0486
     69 C         -19.7270    1.1848   -0.9245 C.ar    1  LIG1       -0.0320
     70 C         -19.5322   -0.0603   -0.3098 C.ar    1  LIG1        0.1076
     71 N         -18.3839   -0.3776    0.3236 N.ar    1  LIG1       -0.2481
     72 H         -18.7969    3.0630   -1.3696 H       1  LIG1        0.0625
     73 C         -16.1522    0.0566    1.1187 C.3     1  LIG1       -0.0217
     74 H         -15.8437    0.7993    1.8617 H       1  LIG1        0.0293
     75 H         -15.3089   -0.0654    0.4343 H       1  LIG1        0.0293
     76 H         -16.3653   -0.8896    1.6178 H       1  LIG1        0.0293
     77 H         -20.6498    1.4265   -1.4374 H       1  LIG1        0.0640
     78 C         -20.5609   -1.0928   -0.3167 C.ar    1  LIG1        0.1724
     79 C         -21.8240   -1.2064   -0.8637 C.ar    1  LIG1        0.1149
     80 C         -22.3295   -2.5214   -0.5277 C.ar    1  LIG1        0.0899
     81 C         -21.3293   -3.1218    0.2305 C.ar    1  LIG1        0.1703
     82 O         -20.2768   -2.2524    0.3430 O.2     1  LIG1       -0.4492
     83 N         -23.0914    0.5518   -2.2667 N.1     1  LIG1       -0.1907
     84 C         -22.5191   -0.2416   -1.6347 C.1     1  LIG1        0.1043
     85 C         -23.5602   -3.0497   -0.9764 C.1     1  LIG1       -0.0645
     86 C         -24.6203   -3.4550   -1.4032 C.1     1  LIG1       -0.1138
     87 H         -25.5514   -3.7979   -1.7916 H       1  LIG1        0.1232
     88 C         -21.1233   -4.3746    0.8793 C.ar    1  LIG1        0.1080
     89 C         -21.9631   -5.4561    1.1970 C.ar    1  LIG1        0.0953
     90 C         -21.1490   -6.4128    1.8610 C.ar    1  LIG1        0.1554
     91 C         -19.8632   -5.9162    1.9514 C.ar    1  LIG1        0.0461
     92 N         -19.8522   -4.6843    1.3578 N.ar    1  LIG1       -0.3537
     93 H         -19.0655   -4.0615    1.2791 H       1  LIG1        0.1656
     94 H         -18.9732   -6.3489    2.3833 H       1  LIG1        0.0845
     95 N         -23.3298   -5.5990    1.0382 N.pl3   1  LIG1       -0.3534
     96 H         -23.7515   -5.0787    0.2797 H       1  LIG1        0.1425
     97 H         -23.6394   -6.5603    1.0881 H       1  LIG1        0.1425
     98 O         -21.6784   -7.6017    2.2952 O.3     1  LIG1       -0.5035
     99 H         -20.9805   -8.1372    2.6912 H       1  LIG1        0.2923
@<TRIPOS>BOND
     1    11    10    1
     2    13    10    1
     3    10    12    1
     4    10     9    1
     5     9     1    1
     6    83    84    3
     7     1     6   ar
     8     1     2   ar
     9    51    49    1
    10    87    86    1
    11     6     5   ar
    12    84    79    1
    13    77    69    1
    14    86    85    3
    15    54    52    1
    16    72    68    1
    17     8     2    1
    18    63    62    1
    19    53    52    1
    20    62    55    1
    21    29    28    1
    22    85    80    1
    23     2     3   ar
    24    69    68   ar
    25    69    70   ar
    26    25    23    1
    27    68    67   ar
    28    79    80   ar
    29    79    78   ar
    30    52    45    1
    31    49    50    1
    32    49    44    1
    33    28    24    1
    34    55    60   ar
    35    55    56   ar
    36    23    24   ar
    37    23    20   ar
    38    45    44   ar
    39    45    46   ar
    40    60    59   ar
    41    35    34    1
    42    44    43   ar
    43    80    81   ar
    44     5    20    1
    45     5     4   ar
    46    24    21   ar
    47    20    18   ar
    48    78    70    1
    49    78    82   ar
    50    70    71   ar
    51    46    56    1
    52    46    47   ar
    53    56    57   ar
    54    43    47   ar
    55    43    33    1
    56    67    59    1
    57    67    66   ar
    58    59    58   ar
    59    34    33   ar
    60    34    30   ar
    61    47    48    1
    62    21    30    1
    63    21    19   ar
    64    33    32   ar
    65    18    19   ar
    66    18    26    1
    67    30    31   ar
    68    19    22    1
    69    57    58   ar
    70    57    61    1
    71    58    64    1
    72    26    27    1
    73    81    82   ar
    74    81    88    1
    75     3     4   ar
    76     3     7    1
    77    96    95    1
    78    32    31   ar
    79    32    38    1
    80    71    66   ar
    81    31    36    1
    82    66    73    1
    83    75    73    1
    84     4    14    1
    85    64    65    1
    86    38    39    1
    87    36    37    1
    88    88    89   ar
    89    88    92   ar
    90    95    97    1
    91    95    89    1
    92    73    76    1
    93    73    74    1
    94    89    90   ar
    95    93    92    1
    96    92    91   ar
    97    16    14    1
    98    90    91   ar
    99    90    98    1
   100    14    15    1
   101    14    17    1
   102    39    40    1
   103    39    41    1
   104    39    42    1
   105    91    94    1
   106    98    99    1
