@<TRIPOS>MOLECULE
mol_data/opt/b3lyp/geoms/mol2/6li6li.out
 34 35 0 0 0
SMALL
GASTEIGER

@<TRIPOS>ATOM
      1 C          -4.5277   -1.9986   -0.6436 C.ar    1  LIG1        0.2150
      2 C          -3.2870   -2.1783   -0.0091 C.ar    1  LIG1        0.0003
      3 C          -2.7667   -1.0977    0.6787 C.ar    1  LIG1       -0.0518
      4 C          -3.4541    0.1285    0.7321 C.ar    1  LIG1       -0.0241
      5 C          -4.6796    0.1882    0.0527 C.ar    1  LIG1        0.0828
      6 N          -5.2018   -0.8594   -0.6180 N.ar    1  LIG1       -0.2125
      7 H          -1.8150   -1.1965    1.1951 H       1  LIG1        0.0622
      8 H          -2.7812   -3.1355   -0.0622 H       1  LIG1        0.0671
      9 O          -5.0366   -3.0628   -1.3094 O.3     1  LIG1       -0.4796
     10 C          -6.3084   -2.8833   -1.9374 C.3     1  LIG1        0.0804
     11 H          -6.5420   -3.8448   -2.3969 H       1  LIG1        0.0660
     12 H          -7.0755   -2.6130   -1.2062 H       1  LIG1        0.0660
     13 H          -6.2669   -2.0986   -2.6985 H       1  LIG1        0.0660
     14 C          -2.8834    1.2963    1.5025 C.3     1  LIG1       -0.0377
     15 H          -3.6629    1.8512    2.0314 H       1  LIG1        0.0278
     16 H          -2.3693    2.0109    0.8484 H       1  LIG1        0.0278
     17 H          -2.1533    0.9503    2.2402 H       1  LIG1        0.0278
     18 C          -6.7544    1.5318    0.6564 C.ar    1  LIG1        0.2239
     19 C          -5.4969    1.4389    0.0089 C.ar    1  LIG1        0.0624
     20 C          -5.0814    2.5604   -0.6964 C.ar    1  LIG1       -0.0431
     21 C          -5.8790    3.7162   -0.7699 C.ar    1  LIG1       -0.0315
     22 C          -7.0951    3.6658   -0.0978 C.ar    1  LIG1        0.0343
     23 N          -7.5286    2.6060    0.6047 N.ar    1  LIG1       -0.2205
     24 H          -4.1253    2.5308   -1.2140 H       1  LIG1        0.0629
     25 H          -7.7661    4.5238   -0.1187 H       1  LIG1        0.0833
     26 O          -7.1548    0.4605    1.3775 O.3     1  LIG1       -0.4792
     27 C          -8.4233    0.5539    2.0285 C.3     1  LIG1        0.0804
     28 H          -8.5541   -0.3998    2.5416 H       1  LIG1        0.0660
     29 H          -8.4406    1.3785    2.7471 H       1  LIG1        0.0660
     30 H          -9.2287    0.7104    1.3051 H       1  LIG1        0.0660
     31 C          -5.4437    4.9365   -1.5414 C.3     1  LIG1       -0.0383
     32 H          -6.2028    5.7226   -1.4956 H       1  LIG1        0.0278
     33 H          -5.2699    4.7042   -2.5984 H       1  LIG1        0.0278
     34 H          -4.5104    5.3534   -1.1454 H       1  LIG1        0.0278
@<TRIPOS>BOND
     1    13    10    1
     2    33    31    1
     3    11    10    1
     4    10     9    1
     5    10    12    1
     6    31    32    1
     7    31    34    1
     8    31    21    1
     9     9     1    1
    10    24    20    1
    11    21    20   ar
    12    21    22   ar
    13    20    19   ar
    14     1     6   ar
    15     1     2   ar
    16     6     5   ar
    17    25    22    1
    18    22    23   ar
    19     8     2    1
    20     2     3   ar
    21    19     5    1
    22    19    18   ar
    23     5     4   ar
    24    23    18   ar
    25    18    26    1
    26     3     4   ar
    27     3     7    1
    28     4    14    1
    29    16    14    1
    30    30    27    1
    31    26    27    1
    32    14    15    1
    33    14    17    1
    34    27    28    1
    35    27    29    1
