@<TRIPOS>MOLECULE
mol_data/opt/b3lyp/geoms/mol2/6li6li6li6li.out
 66 69 0 0 0
SMALL
GASTEIGER

@<TRIPOS>ATOM
      1 C          -3.5280   -1.5080   -1.3621 C.ar    1  LIG1        0.2150
      2 C          -3.0369   -2.2762   -0.2928 C.ar    1  LIG1        0.0003
      3 C          -3.4181   -1.8996    0.9814 C.ar    1  LIG1       -0.0518
      4 C          -4.2570   -0.7898    1.1921 C.ar    1  LIG1       -0.0241
      5 C          -4.6748   -0.0952    0.0466 C.ar    1  LIG1        0.0828
      6 N          -4.3145   -0.4559   -1.2033 N.ar    1  LIG1       -0.2125
      7 H          -3.0735   -2.4746    1.8375 H       1  LIG1        0.0622
      8 H          -2.3965   -3.1297   -0.4831 H       1  LIG1        0.0671
      9 O          -3.1608   -1.8868   -2.6100 O.3     1  LIG1       -0.4796
     10 C          -3.6819   -1.1173   -3.6964 C.3     1  LIG1        0.0804
     11 H          -3.2953   -1.5928   -4.5990 H       1  LIG1        0.0660
     12 H          -4.7756   -1.1257   -3.6978 H       1  LIG1        0.0660
     13 H          -3.3464   -0.0775   -3.6418 H       1  LIG1        0.0660
     14 C          -4.6788   -0.4079    2.5920 C.3     1  LIG1       -0.0377
     15 H          -5.6988   -0.0164    2.6152 H       1  LIG1        0.0278
     16 H          -4.0289    0.3638    3.0230 H       1  LIG1        0.0278
     17 H          -4.6322   -1.2756    3.2569 H       1  LIG1        0.0278
     18 C          -6.8412    1.1554   -0.4349 C.ar    1  LIG1        0.2245
     19 C          -5.5425    1.1170    0.1280 C.ar    1  LIG1        0.0625
     20 C          -5.1152    2.2876    0.7401 C.ar    1  LIG1       -0.0425
     21 C          -5.9110    3.4446    0.7826 C.ar    1  LIG1       -0.0234
     22 C          -7.1681    3.3586    0.1678 C.ar    1  LIG1        0.0828
     23 N          -7.6130    2.2288   -0.4182 N.ar    1  LIG1       -0.2119
     24 H          -4.1279    2.3087    1.1951 H       1  LIG1        0.0629
     25 O          -7.3101    0.0167   -0.9932 O.3     1  LIG1       -0.4792
     26 C          -8.6333    0.0589   -1.5319 C.3     1  LIG1        0.0804
     27 H          -8.8251   -0.9495   -1.9014 H       1  LIG1        0.0660
     28 H          -9.3643    0.3324   -0.7658 H       1  LIG1        0.0660
     29 H          -8.7046    0.7828   -2.3489 H       1  LIG1        0.0660
     30 C          -5.4056    4.6904    1.4729 C.3     1  LIG1       -0.0377
     31 H          -6.2154    5.2415    1.9573 H       1  LIG1        0.0278
     32 H          -4.9194    5.3814    0.7733 H       1  LIG1        0.0278
     33 H          -4.6653    4.4327    2.2364 H       1  LIG1        0.0278
     34 C          -9.3825    4.4919    0.7142 C.ar    1  LIG1        0.2245
     35 C          -8.1050    4.5182    0.1033 C.ar    1  LIG1        0.0625
     36 C          -7.7878    5.6828   -0.5832 C.ar    1  LIG1       -0.0425
     37 C          -8.6835    6.7602   -0.6836 C.ar    1  LIG1       -0.0234
     38 C          -9.9244    6.5990   -0.0524 C.ar    1  LIG1        0.0828
     39 N         -10.2507    5.4864    0.6348 N.ar    1  LIG1       -0.2119
     40 H          -6.8164    5.7571   -1.0659 H       1  LIG1        0.0629
     41 O          -9.7049    3.3938    1.4339 O.3     1  LIG1       -0.4792
     42 C         -10.9874    3.3876    2.0648 C.3     1  LIG1        0.0804
     43 H         -11.0395    2.4383    2.5998 H       1  LIG1        0.0660
     44 H         -11.0912    4.2254    2.7602 H       1  LIG1        0.0660
     45 H         -11.7918    3.4522    1.3263 H       1  LIG1        0.0660
     46 C          -8.2913    8.0121   -1.4337 C.3     1  LIG1       -0.0377
     47 H          -8.6799    8.9119   -0.9496 H       1  LIG1        0.0278
     48 H          -8.6700    8.0123   -2.4630 H       1  LIG1        0.0278
     49 H          -7.2024    8.1004   -1.4908 H       1  LIG1        0.0278
     50 C         -11.4369    8.3218    1.0539 C.ar    1  LIG1        0.2239
     51 C         -10.9871    7.6469   -0.1093 C.ar    1  LIG1        0.0624
     52 C         -11.6118    7.9899   -1.3015 C.ar    1  LIG1       -0.0431
     53 C         -12.6425    8.9452   -1.3407 C.ar    1  LIG1       -0.0315
     54 C         -12.9920    9.5203   -0.1239 C.ar    1  LIG1        0.0343
     55 N         -12.4062    9.2254    1.0485 N.ar    1  LIG1       -0.2205
     56 H         -11.3038    7.4915   -2.2177 H       1  LIG1        0.0629
     57 H         -13.7873   10.2633   -0.0796 H       1  LIG1        0.0833
     58 O         -10.8126    8.0294    2.2170 O.3     1  LIG1       -0.4792
     59 C         -11.2711    8.7089    3.3873 C.3     1  LIG1        0.0804
     60 H         -10.6514    8.3299    4.2012 H       1  LIG1        0.0660
     61 H         -11.1512    9.7919    3.2904 H       1  LIG1        0.0660
     62 H         -12.3261    8.4951    3.5811 H       1  LIG1        0.0660
     63 C         -13.3365    9.3157   -2.6272 C.3     1  LIG1       -0.0383
     64 H         -14.1016   10.0783   -2.4564 H       1  LIG1        0.0278
     65 H         -13.8282    8.4489   -3.0837 H       1  LIG1        0.0278
     66 H         -12.6313    9.7127   -3.3665 H       1  LIG1        0.0278
@<TRIPOS>BOND
     1    11    10    1
     2    12    10    1
     3    10    13    1
     4    10     9    1
     5    66    63    1
     6    65    63    1
     7    63    64    1
     8    63    53    1
     9     9     1    1
    10    48    46    1
    11    29    26    1
    12    56    52    1
    13    27    26    1
    14    26    25    1
    15    26    28    1
    16    49    46    1
    17    46    47    1
    18    46    37    1
    19     1     6   ar
    20     1     2   ar
    21    53    52   ar
    22    53    54   ar
    23    52    51   ar
    24     6     5   ar
    25    40    36    1
    26    25    18    1
    27    37    36   ar
    28    37    38   ar
    29    36    35   ar
    30     8     2    1
    31    18    23   ar
    32    18    19   ar
    33    23    22   ar
    34     2     3   ar
    35    54    57    1
    36    54    55   ar
    37    51    38    1
    38    51    50   ar
    39    38    39   ar
    40     5    19    1
    41     5     4   ar
    42    35    22    1
    43    35    34   ar
    44    19    20   ar
    45    22    21   ar
    46    39    34   ar
    47    34    41    1
    48    20    21   ar
    49    20    24    1
    50    32    30    1
    51    21    30    1
    52     3     4   ar
    53     3     7    1
    54    55    50   ar
    55    50    58    1
    56     4    14    1
    57    45    42    1
    58    41    42    1
    59    30    31    1
    60    30    33    1
    61    42    43    1
    62    42    44    1
    63    58    59    1
    64    14    15    1
    65    14    16    1
    66    14    17    1
    67    61    59    1
    68    59    62    1
    69    59    60    1
