@<TRIPOS>MOLECULE
mol_data/opt/b3lyp/geoms/mol2/6li6li6li.out
 50 52 0 0 0
SMALL
GASTEIGER

@<TRIPOS>ATOM
      1 C          -4.1683   -1.8604   -1.1402 C.ar    1  LIG1        0.2150
      2 C          -3.2322   -2.2803   -0.1800 C.ar    1  LIG1        0.0003
      3 C          -3.0696   -1.4788    0.9344 C.ar    1  LIG1       -0.0518
      4 C          -3.8083   -0.2916    1.0917 C.ar    1  LIG1       -0.0241
      5 C          -4.7056    0.0277    0.0610 C.ar    1  LIG1        0.0828
      6 N          -4.8776   -0.7490   -1.0295 N.ar    1  LIG1       -0.2125
      7 H          -2.3667   -1.7729    1.7101 H       1  LIG1        0.0622
      8 H          -2.6802   -3.2021   -0.3225 H       1  LIG1        0.0671
      9 O          -4.3333   -2.6541   -2.2258 O.3     1  LIG1       -0.4796
     10 C          -5.3052   -2.2361   -3.1874 C.3     1  LIG1        0.0804
     11 H          -5.3038   -3.0109   -3.9554 H       1  LIG1        0.0660
     12 H          -6.2966   -2.1480   -2.7342 H       1  LIG1        0.0660
     13 H          -5.0397   -1.2686   -3.6237 H       1  LIG1        0.0660
     14 C          -3.6303    0.5582    2.3285 C.3     1  LIG1       -0.0377
     15 H          -4.5708    1.0157    2.6454 H       1  LIG1        0.0278
     16 H          -2.9143    1.3738    2.1695 H       1  LIG1        0.0278
     17 H          -3.2502   -0.0464    3.1575 H       1  LIG1        0.0278
     18 C          -6.9472    1.2365    0.1126 C.ar    1  LIG1        0.2245
     19 C          -5.5316    1.2710    0.0855 C.ar    1  LIG1        0.0625
     20 C          -4.9593    2.5356    0.0557 C.ar    1  LIG1       -0.0425
     21 C          -5.7334    3.7079    0.0335 C.ar    1  LIG1       -0.0234
     22 C          -7.1242    3.5356    0.0398 C.ar    1  LIG1        0.0828
     23 N          -7.7048    2.3200    0.0863 N.ar    1  LIG1       -0.2119
     24 H          -3.8753    2.6189    0.0407 H       1  LIG1        0.0629
     25 O          -7.5379    0.0233    0.1946 O.3     1  LIG1       -0.4792
     26 C          -8.9661    0.0023    0.2473 C.3     1  LIG1        0.0804
     27 H          -9.2347   -1.0514    0.3346 H       1  LIG1        0.0660
     28 H          -9.3389    0.5658    1.1073 H       1  LIG1        0.0660
     29 H          -9.4014    0.4317   -0.6598 H       1  LIG1        0.0660
     30 C          -5.0635    5.0624    0.0118 C.3     1  LIG1       -0.0377
     31 H          -5.6345    5.8052    0.5743 H       1  LIG1        0.0278
     32 H          -4.9486    5.4494   -1.0081 H       1  LIG1        0.0278
     33 H          -4.0617    5.0025    0.4476 H       1  LIG1        0.0278
     34 C          -8.9721    4.9795    1.0317 C.ar    1  LIG1        0.2239
     35 C          -8.0696    4.6898   -0.0235 C.ar    1  LIG1        0.0624
     36 C          -8.1370    5.5181   -1.1366 C.ar    1  LIG1       -0.0431
     37 C          -9.0620    6.5742   -1.2104 C.ar    1  LIG1       -0.0315
     38 C          -9.8958    6.7366   -0.1097 C.ar    1  LIG1        0.0343
     39 N          -9.8555    5.9664    0.9902 N.ar    1  LIG1       -0.2205
     40 H          -7.4687    5.3280   -1.9732 H       1  LIG1        0.0629
     41 H         -10.6418    7.5304   -0.1022 H       1  LIG1        0.0833
     42 O          -8.8940    4.2098    2.1403 O.3     1  LIG1       -0.4792
     43 C          -9.8082    4.5030    3.1984 C.3     1  LIG1        0.0804
     44 H          -9.5863    3.7753    3.9802 H       1  LIG1        0.0660
     45 H          -9.6672    5.5206    3.5746 H       1  LIG1        0.0660
     46 H         -10.8449    4.3996    2.8654 H       1  LIG1        0.0660
     47 C          -9.1511    7.4721   -2.4186 C.3     1  LIG1       -0.0383
     48 H          -9.9341    8.2253   -2.2923 H       1  LIG1        0.0278
     49 H          -9.3808    6.9036   -3.3271 H       1  LIG1        0.0278
     50 H          -8.2081    8.0012   -2.5992 H       1  LIG1        0.0278
@<TRIPOS>BOND
     1    11    10    1
     2    13    10    1
     3    49    47    1
     4    10    12    1
     5    10     9    1
     6    50    47    1
     7    47    48    1
     8    47    37    1
     9     9     1    1
    10    40    36    1
    11    37    36   ar
    12    37    38   ar
    13     1     6   ar
    14     1     2   ar
    15    36    35   ar
    16     6     5   ar
    17    32    30    1
    18    29    26    1
    19     8     2    1
    20     2     3   ar
    21    38    41    1
    22    38    39   ar
    23    35    22    1
    24    35    34   ar
    25    30    21    1
    26    30    33    1
    27    30    31    1
    28    21    22   ar
    29    21    20   ar
    30    22    23   ar
    31    24    20    1
    32    20    19   ar
    33     5    19    1
    34     5     4   ar
    35    19    18   ar
    36    23    18   ar
    37    18    25    1
    38    25    26    1
    39    26    27    1
    40    26    28    1
    41     3     4   ar
    42     3     7    1
    43    39    34   ar
    44    34    42    1
    45     4    14    1
    46    42    43    1
    47    16    14    1
    48    14    15    1
    49    14    17    1
    50    46    43    1
    51    43    45    1
    52    43    44    1
