@<TRIPOS>MOLECULE
mol_data/opt/b3lyp/geoms/mol2/6ll.out
 19 19 0 0 0
SMALL
GASTEIGER

@<TRIPOS>ATOM
      1 C          -4.6586   -1.9752    0.0001 C.ar    1  LIG1        0.2146
      2 C          -3.2613   -2.0887    0.0000 C.ar    1  LIG1        0.0034
      3 C          -2.5029   -0.9249   -0.0001 C.ar    1  LIG1       -0.0134
      4 C          -3.1615    0.3134   -0.0002 C.ar    1  LIG1        0.1383
      5 C          -4.5584    0.3103   -0.0002 C.ar    1  LIG1        0.0730
      6 N          -5.2938   -0.8070   -0.0000 N.ar    1  LIG1       -0.2177
      7 H          -1.4209   -0.9889   -0.0001 H       1  LIG1        0.0656
      8 H          -2.7990   -3.0691    0.0001 H       1  LIG1        0.0672
      9 H          -5.0895    1.2592   -0.0003 H       1  LIG1        0.0868
     10 O          -5.3726   -3.1295    0.0002 O.3     1  LIG1       -0.4796
     11 C          -6.7953   -3.0069    0.0002 C.3     1  LIG1        0.0804
     12 H          -7.1741   -4.0301    0.0003 H       1  LIG1        0.0660
     13 H          -7.1486   -2.4722    0.8871 H       1  LIG1        0.0660
     14 H          -7.1486   -2.4723   -0.8868 H       1  LIG1        0.0660
     15 O          -2.5538    1.5384   -0.0003 O.3     1  LIG1       -0.4936
     16 C          -1.1365    1.5732   -0.0005 C.3     1  LIG1        0.0789
     17 H          -0.8600    2.6285   -0.0007 H       1  LIG1        0.0660
     18 H          -0.7172    1.0925    0.8934 H       1  LIG1        0.0660
     19 H          -0.7174    1.0922   -0.8944 H       1  LIG1        0.0660
@<TRIPOS>BOND
     1    19    16    1
     2    14    11    1
     3    17    16    1
     4    16    15    1
     5    16    18    1
     6    15     4    1
     7     9     5    1
     8     4     5   ar
     9     4     3   ar
    10     5     6   ar
    11     7     3    1
    12     3     2   ar
    13     6     1   ar
    14     2     1   ar
    15     2     8    1
    16     1    10    1
    17    11    10    1
    18    11    12    1
    19    11    13    1
