@<TRIPOS>MOLECULE
mol_data/opt/b3lyp/geoms/mol2/6ll13id6ei13ea-.out
 55 58 0 0 0
SMALL
GASTEIGER

@<TRIPOS>ATOM
      1 C          -4.5237   -2.0878    0.4823 C.ar    1  LIG1        0.2152
      2 C          -3.2006   -2.2950    0.0673 C.ar    1  LIG1        0.0035
      3 C          -2.4888   -1.1952   -0.3861 C.ar    1  LIG1       -0.0127
      4 C          -3.0892    0.0723   -0.4027 C.ar    1  LIG1        0.1476
      5 C          -4.4062    0.1938    0.0849 C.ar    1  LIG1        0.1326
      6 N          -5.0986   -0.8958    0.4915 N.ar    1  LIG1       -0.2077
      7 H          -1.4730   -1.3266   -0.7387 H       1  LIG1        0.0656
      8 H          -2.7678   -3.2878    0.0963 H       1  LIG1        0.0672
      9 O          -5.2185   -3.1772    0.8943 O.3     1  LIG1       -0.4796
     10 C          -6.5423   -2.9612    1.3833 C.3     1  LIG1        0.0804
     11 H          -6.8992   -3.9427    1.6977 H       1  LIG1        0.0660
     12 H          -6.5446   -2.2680    2.2298 H       1  LIG1        0.0660
     13 H          -7.1966   -2.5563    0.6045 H       1  LIG1        0.0660
     14 O          -2.4922    1.1942   -0.8985 O.3     1  LIG1       -0.4929
     15 C          -1.1836    1.0834   -1.4377 C.3     1  LIG1        0.0789
     16 H          -0.9193    2.0821   -1.7869 H       1  LIG1        0.0660
     17 H          -0.4572    0.7637   -0.6797 H       1  LIG1        0.0660
     18 H          -1.1533    0.3858   -2.2842 H       1  LIG1        0.0660
     19 C          -5.1663    1.4484    0.1337 C.ar    1  LIG1        0.0733
     20 C          -4.8595    2.7963    0.3204 C.ar    1  LIG1       -0.0056
     21 C          -6.1101    3.4886    0.3255 C.ar    1  LIG1        0.0806
     22 C          -7.1536    2.5528    0.1547 C.ar    1  LIG1        0.0675
     23 N          -6.5380    1.3446    0.0501 N.ar    1  LIG1       -0.3516
     24 H          -7.0050    0.4528   -0.0453 H       1  LIG1        0.1660
     25 C          -3.5361    3.4619    0.5519 C.3     1  LIG1       -0.0364
     26 H          -3.6823    4.4164    1.0647 H       1  LIG1        0.0279
     27 H          -3.0136    3.6626   -0.3882 H       1  LIG1        0.0279
     28 H          -2.8767    2.8404    1.1614 H       1  LIG1        0.0279
     29 N          -6.2852    6.0516    0.5978 N.1     1  LIG1       -0.1908
     30 C          -6.2268    4.8941    0.4685 C.1     1  LIG1        0.1016
     31 C          -9.5213    1.7916   -0.4286 C.ar    1  LIG1        0.1230
     32 C          -8.6016    2.7393    0.0977 C.ar    1  LIG1        0.0337
     33 C          -9.1816    3.9087    0.6198 C.ar    1  LIG1       -0.0449
     34 C         -10.5476    4.1664    0.5700 C.ar    1  LIG1       -0.0223
     35 C         -11.3577    3.1944   -0.0715 C.ar    1  LIG1        0.0926
     36 N         -10.8372    2.0313   -0.5034 N.ar    1  LIG1       -0.2360
     37 H          -8.5464    4.6360    1.1112 H       1  LIG1        0.0628
     38 C          -9.1344    0.5057   -0.9422 C.1     1  LIG1       -0.0491
     39 C          -8.8532   -0.5881   -1.3796 C.1     1  LIG1       -0.1124
     40 H          -8.6114   -1.5374   -1.7996 H       1  LIG1        0.1232
     41 C         -11.0916    5.3905    1.2561 C.3     1  LIG1       -0.0376
     42 H         -12.0426    5.1759    1.7514 H       1  LIG1        0.0278
     43 H         -11.2841    6.2004    0.5486 H       1  LIG1        0.0278
     44 H         -10.3806    5.7515    2.0037 H       1  LIG1        0.0278
     45 C         -12.8131    3.2735   -0.2540 C.ar    1  LIG1        0.0808
     46 C         -13.7595    4.2898   -0.4900 C.ar    1  LIG1        0.0514
     47 C         -15.0296    3.6486   -0.6477 C.ar    1  LIG1       -0.0283
     48 C         -14.8314    2.2928   -0.5268 C.ar    1  LIG1        0.0034
     49 N         -13.5025    2.0848   -0.2936 N.ar    1  LIG1       -0.3585
     50 H         -13.0107    1.2034   -0.2573 H       1  LIG1        0.1654
     51 H         -15.5288    1.4705   -0.5819 H       1  LIG1        0.0807
     52 C         -13.5618    5.6796   -0.6942 C.1     1  LIG1       -0.0675
     53 C         -13.4663    6.8679   -0.9103 C.1     1  LIG1       -0.1138
     54 H         -13.3657    7.9103   -1.1047 H       1  LIG1        0.1232
     55 H         -15.9640    4.1525   -0.8442 H       1  LIG1        0.0645
@<TRIPOS>BOND
     1    18    15    1
     2    40    39    1
     3    16    15    1
     4    15    14    1
     5    15    17    1
     6    39    38    3
     7    54    53    1
     8    38    31    1
     9    53    52    3
    10    14     4    1
    11    55    47    1
    12     7     3    1
    13    52    46    1
    14    47    48   ar
    15    47    46   ar
    16    51    48    1
    17    48    49   ar
    18    36    31   ar
    19    36    35   ar
    20    46    45   ar
    21    31    32   ar
    22     4     3   ar
    23     4     5   ar
    24    27    25    1
    25     3     2   ar
    26    49    50    1
    27    49    45   ar
    28    45    35    1
    29    35    34   ar
    30    24    23    1
    31    23    19   ar
    32    23    22   ar
    33     2     8    1
    34     2     1   ar
    35     5    19    1
    36     5     6   ar
    37    32    22    1
    38    32    33   ar
    39    19    20   ar
    40    22    21   ar
    41    20    21   ar
    42    20    25    1
    43    21    30    1
    44    30    29    3
    45     1     6   ar
    46     1     9    1
    47    43    41    1
    48    25    26    1
    49    25    28    1
    50    34    33   ar
    51    34    41    1
    52    13    10    1
    53    33    37    1
    54     9    10    1
    55    41    42    1
    56    41    44    1
    57    10    11    1
    58    10    12    1
