@<TRIPOS>MOLECULE
mol_data/opt/b3lyp/geoms/mol2/6ll13fh-6ea-6hl-13fh-4da-13fh6ed-.out
 101 108 0 0 0
SMALL
GASTEIGER

@<TRIPOS>ATOM
      1 C          -4.4215   -1.9311    1.4848 C.ar    1  LIG1        0.2152
      2 C          -3.0355   -2.1304    1.4382 C.ar    1  LIG1        0.0035
      3 C          -2.2627   -1.0970    0.9259 C.ar    1  LIG1       -0.0127
      4 C          -2.8698    0.0819    0.4898 C.ar    1  LIG1        0.1477
      5 C          -4.2737    0.2118    0.5924 C.ar    1  LIG1        0.1360
      6 N          -5.0104   -0.8174    1.0809 N.ar    1  LIG1       -0.2076
      7 H          -1.1880   -1.2184    0.8648 H       1  LIG1        0.0656
      8 H          -2.6001   -3.0574    1.7900 H       1  LIG1        0.0672
      9 O          -5.1694   -2.9475    1.9806 O.3     1  LIG1       -0.4796
     10 C          -6.5733   -2.7258    2.1107 C.3     1  LIG1        0.0804
     11 H          -6.9715   -3.6393    2.5543 H       1  LIG1        0.0660
     12 H          -6.7820   -1.8691    2.7586 H       1  LIG1        0.0660
     13 H          -7.0422   -2.5447    1.1388 H       1  LIG1        0.0660
     14 O          -2.1599    1.1314   -0.0640 O.3     1  LIG1       -0.4929
     15 C          -0.7604    0.9767   -0.2772 C.3     1  LIG1        0.0789
     16 H          -0.4280    1.8932   -0.7662 H       1  LIG1        0.0660
     17 H          -0.2212    0.8552    0.6695 H       1  LIG1        0.0660
     18 H          -0.5537    0.1214   -0.9304 H       1  LIG1        0.0660
     19 C          -5.0509    1.3777    0.1993 C.ar    1  LIG1        0.1130
     20 C          -4.7730    2.7123   -0.1457 C.ar    1  LIG1        0.1651
     21 C          -5.9963    3.3761   -0.3715 C.ar    1  LIG1        0.0930
     22 C          -7.0295    2.4453   -0.1613 C.ar    1  LIG1        0.0742
     23 N          -6.4244    1.2561    0.1645 N.ar    1  LIG1       -0.3484
     24 H          -6.8856    0.3862    0.3823 H       1  LIG1        0.1661
     25 O          -3.5953    3.3807   -0.2463 O.3     1  LIG1       -0.5030
     26 H          -2.8834    2.7201   -0.1613 H       1  LIG1        0.2923
     27 N          -6.0972    4.7436   -0.7056 N.pl3   1  LIG1       -0.3535
     28 H          -5.1666    5.1271   -0.8407 H       1  LIG1        0.1425
     29 H          -6.6378    4.8966   -1.5522 H       1  LIG1        0.1425
     30 C          -9.4370    1.6214   -0.3898 C.ar    1  LIG1        0.1229
     31 C          -8.4679    2.6454   -0.2175 C.ar    1  LIG1        0.0341
     32 C          -8.9958    3.9472   -0.0515 C.ar    1  LIG1       -0.0479
     33 C         -10.3550    4.1755   -0.0754 C.ar    1  LIG1       -0.0349
     34 C         -11.2514    3.0992   -0.2777 C.ar    1  LIG1        0.0758
     35 N         -10.7634    1.8539   -0.4132 N.ar    1  LIG1       -0.2376
     36 H          -8.3091    4.7673    0.1293 H       1  LIG1        0.0626
     37 C          -9.0871    0.2425   -0.5893 C.1     1  LIG1       -0.0491
     38 C          -8.8426   -0.9291   -0.7748 C.1     1  LIG1       -0.1124
     39 H          -8.6273   -1.9534   -0.9747 H       1  LIG1        0.1232
     40 H         -10.7258    5.1779    0.1035 H       1  LIG1        0.0639
     41 C         -13.6613    2.2412   -0.1809 C.ar    1  LIG1        0.1264
     42 C         -12.7104    3.2959   -0.3449 C.ar    1  LIG1        0.0434
     43 C         -13.2466    4.5730   -0.5881 C.ar    1  LIG1       -0.0053
     44 C         -14.6146    4.8023   -0.6370 C.ar    1  LIG1        0.1483
     45 C         -15.4812    3.7031   -0.4330 C.ar    1  LIG1        0.1343
     46 N         -14.9814    2.4701   -0.2253 N.ar    1  LIG1       -0.2265
     47 H         -12.5723    5.3988   -0.7734 H       1  LIG1        0.0662
     48 N         -13.2875    0.9508    0.0779 N.pl3   1  LIG1       -0.3426
     49 H         -14.0221    0.2658   -0.0062 H       1  LIG1        0.1437
     50 H         -12.3338    0.7050   -0.1647 H       1  LIG1        0.1437
     51 O         -15.1934    6.0080   -0.8896 O.3     1  LIG1       -0.4929
     52 C         -14.3649    7.1430   -1.0427 C.3     1  LIG1        0.0789
     53 H         -15.0409    7.9856   -1.1921 H       1  LIG1        0.0660
     54 H         -13.7525    7.3238   -0.1486 H       1  LIG1        0.0660
     55 H         -13.7033    7.0518   -1.9154 H       1  LIG1        0.0660
     56 C         -16.9376    3.7700   -0.4332 C.ar    1  LIG1        0.1129
     57 C         -17.9508    4.7399   -0.5096 C.ar    1  LIG1        0.1651
     58 C         -19.2016    4.0947   -0.3380 C.ar    1  LIG1        0.0930
     59 C         -18.9567    2.7234   -0.1615 C.ar    1  LIG1        0.0728
     60 N         -17.5988    2.5656   -0.2550 N.ar    1  LIG1       -0.3484
     61 H         -17.0530    1.7464   -0.0232 H       1  LIG1        0.1661
     62 O         -17.8865    6.0673   -0.7378 O.3     1  LIG1       -0.5030
     63 H         -18.8299    6.3310   -0.7560 H       1  LIG1        0.2923
     64 N         -20.3853    4.8757   -0.4689 N.pl3   1  LIG1       -0.3535
     65 H         -20.9984    4.5378   -1.2056 H       1  LIG1        0.1425
     66 H         -20.9251    4.9134    0.3923 H       1  LIG1        0.1425
     67 C         -21.0372    1.5528    0.7115 C.ar    1  LIG1        0.0615
     68 C         -21.8411    0.4057    0.7823 C.ar    1  LIG1       -0.0345
     69 C         -19.8240    1.5613   -0.0291 C.ar    1  LIG1        0.0176
     70 C         -21.4644   -0.7901    0.1543 C.ar    1  LIG1        0.0032
     71 H         -22.7715    0.4515    1.3360 H       1  LIG1        0.0637
     72 C         -19.4594    0.3443   -0.6443 C.ar    1  LIG1       -0.0507
     73 C         -20.2412   -0.7945   -0.5504 C.ar    1  LIG1       -0.0518
     74 H         -18.5458    0.3128   -1.2291 H       1  LIG1        0.0625
     75 N         -21.8393    3.5906    2.1061 N.1     1  LIG1       -0.1908
     76 C         -21.4642    2.6905    1.4692 C.1     1  LIG1        0.0998
     77 H         -19.8942   -1.7064   -1.0279 H       1  LIG1        0.0624
     78 C         -22.3090   -1.9735    0.2348 C.ar    1  LIG1        0.0909
     79 C         -23.3289   -2.3113    1.1272 C.ar    1  LIG1        0.1635
     80 C         -23.8493   -3.5748    0.7738 C.ar    1  LIG1        0.0930
     81 C         -23.1268   -4.0200   -0.3486 C.ar    1  LIG1        0.0742
     82 N         -22.1984   -3.0295   -0.6341 N.ar    1  LIG1       -0.3497
     83 H         -21.6678   -3.0143   -1.4930 H       1  LIG1        0.1661
     84 O         -23.8299   -1.5724    2.1786 O.3     1  LIG1       -0.5031
     85 H         -23.1372   -1.4507    2.8435 H       1  LIG1        0.2923
     86 N         -24.8620   -4.2273    1.4909 N.pl3   1  LIG1       -0.3535
     87 H         -25.2247   -3.6111    2.2120 H       1  LIG1        0.1425
     88 H         -25.6292   -4.5463    0.9077 H       1  LIG1        0.1425
     89 C         -22.6784   -5.5159   -2.3769 C.ar    1  LIG1        0.1223
     90 C         -23.2231   -5.2716   -1.0777 C.ar    1  LIG1        0.0353
     91 C         -23.8810   -6.3651   -0.4779 C.ar    1  LIG1       -0.0310
     92 C         -23.9935   -7.5801   -1.1505 C.ar    1  LIG1        0.0705
     93 C         -23.4296   -7.6976   -2.4362 C.ar    1  LIG1        0.0464
     94 N         -22.7876   -6.6971   -3.0192 N.ar    1  LIG1       -0.2448
     95 H         -24.2731   -6.2669    0.5275 H       1  LIG1        0.0638
     96 H         -23.5058   -8.6293   -2.9903 H       1  LIG1        0.0843
     97 C         -21.9721   -4.5181   -3.1291 C.1     1  LIG1       -0.0491
     98 C         -21.3709   -3.7053   -3.7970 C.1     1  LIG1       -0.1124
     99 H         -20.8589   -3.0046   -4.4166 H       1  LIG1        0.1232
    100 N         -25.2008   -9.6068   -0.0681 N.1     1  LIG1       -0.1908
    101 C         -24.6586   -8.6958   -0.5468 C.1     1  LIG1        0.1007
@<TRIPOS>BOND
     1    99    98    1
     2    98    97    3
     3    97    89    1
     4    94    93   ar
     5    94    89   ar
     6    96    93    1
     7    93    92   ar
     8    89    90   ar
     9    55    52    1
    10    29    27    1
    11    83    82    1
    12    74    72    1
    13    65    64    1
    14    53    52    1
    15    92   101    1
    16    92    91   ar
    17    90    91   ar
    18    90    81    1
    19    52    51    1
    20    52    54    1
    21    77    73    1
    22    39    38    1
    23    18    15    1
    24    51    44    1
    25    28    27    1
    26    38    37    3
    27    47    43    1
    28    16    15    1
    29    63    62    1
    30    62    57    1
    31    27    21    1
    32    72    73   ar
    33    72    69   ar
    34    44    43   ar
    35    44    45   ar
    36    82    81   ar
    37    82    78   ar
    38    37    30    1
    39    43    42   ar
    40    73    70   ar
    41   101   100    3
    42    57    56   ar
    43    57    58   ar
    44    91    95    1
    45    64    58    1
    46    64    66    1
    47    56    45    1
    48    56    60   ar
    49    45    46   ar
    50    35    30   ar
    51    35    34   ar
    52    30    31   ar
    53    21    22   ar
    54    21    20   ar
    55    81    80   ar
    56    42    34    1
    57    42    41   ar
    58    58    59   ar
    59    34    33   ar
    60    15    14    1
    61    15    17    1
    62    60    59   ar
    63    60    61    1
    64    25    26    1
    65    25    20    1
    66    46    41   ar
    67    31    22    1
    68    31    32   ar
    69    41    48    1
    70    50    48    1
    71    59    69    1
    72    22    23   ar
    73    20    19   ar
    74    33    32   ar
    75    33    40    1
    76    14     4    1
    77    32    36    1
    78    69    67   ar
    79    49    48    1
    80    70    78    1
    81    70    68   ar
    82    23    19   ar
    83    23    24    1
    84    19     5    1
    85    78    79   ar
    86     4     5   ar
    87     4     3   ar
    88     5     6   ar
    89    67    68   ar
    90    67    76    1
    91    80    79   ar
    92    80    86    1
    93    68    71    1
    94     7     3    1
    95    88    86    1
    96     3     2   ar
    97     6     1   ar
    98    79    84    1
    99    13    10    1
   100     2     1   ar
   101     2     8    1
   102    76    75    3
   103     1     9    1
   104    86    87    1
   105     9    10    1
   106    10    11    1
   107    10    12    1
   108    84    85    1
