@<TRIPOS>MOLECULE
mol_data/opt/b3lyp/geoms/mol2/6ll12eh13ai4fh-.out
 54 57 0 0 0
SMALL
GASTEIGER

@<TRIPOS>ATOM
      1 C          -4.3899   -2.1032   -0.6946 C.ar    1  LIG1        0.2153
      2 C          -3.0465   -2.2009   -0.3020 C.ar    1  LIG1        0.0035
      3 C          -2.4334   -1.0570    0.1881 C.ar    1  LIG1       -0.0127
      4 C          -3.1555    0.1412    0.2645 C.ar    1  LIG1        0.1493
      5 C          -4.4910    0.1480   -0.1944 C.ar    1  LIG1        0.1525
      6 N          -5.0834   -0.9789   -0.6480 N.ar    1  LIG1       -0.2060
      7 H          -1.4037   -1.1014    0.5225 H       1  LIG1        0.0656
      8 H          -2.5219   -3.1460   -0.3783 H       1  LIG1        0.0672
      9 O          -4.9791   -3.2385   -1.1533 O.3     1  LIG1       -0.4796
     10 C          -6.3376   -3.1318   -1.5765 C.3     1  LIG1        0.0804
     11 H          -6.6167   -4.1315   -1.9130 H       1  LIG1        0.0660
     12 H          -6.9864   -2.8147   -0.7539 H       1  LIG1        0.0660
     13 H          -6.4446   -2.4127   -2.3943 H       1  LIG1        0.0660
     14 O          -2.6726    1.3011    0.7867 O.3     1  LIG1       -0.4929
     15 C          -1.3119    1.3580    1.1791 C.3     1  LIG1        0.0789
     16 H          -1.1428    2.3819    1.5135 H       1  LIG1        0.0660
     17 H          -1.0991    0.6669    2.0053 H       1  LIG1        0.0660
     18 H          -0.6389    1.1354    0.3411 H       1  LIG1        0.0660
     19 C          -5.3219    1.3461   -0.1784 C.ar    1  LIG1        0.1747
     20 C          -5.1014    2.7087   -0.3472 C.ar    1  LIG1        0.0933
     21 C          -6.3919    3.3446   -0.2886 C.ar    1  LIG1        0.0887
     22 C          -7.3113    2.3406   -0.0825 C.ar    1  LIG1        0.1736
     23 O          -6.6595    1.1301   -0.0300 O.2     1  LIG1       -0.4485
     24 C          -3.9210    3.4263   -0.6593 C.1     1  LIG1       -0.0639
     25 C          -2.9968    4.1479   -0.9663 C.1     1  LIG1       -0.1137
     26 H          -2.1569    4.7467   -1.2315 H       1  LIG1        0.1232
     27 N          -6.6290    4.7113   -0.4005 N.pl3   1  LIG1       -0.3540
     28 H          -5.8417    5.2037   -0.8078 H       1  LIG1        0.1425
     29 H          -7.4910    4.9304   -0.8872 H       1  LIG1        0.1425
     30 C          -8.7367    2.3341    0.0604 C.ar    1  LIG1        0.0847
     31 C          -9.6489    3.3692    0.2515 C.ar    1  LIG1       -0.0298
     32 C         -10.9542    2.8132    0.2817 C.ar    1  LIG1       -0.0244
     33 C         -10.8167    1.4348    0.1093 C.ar    1  LIG1        0.0535
     34 N          -9.4634    1.1699   -0.0063 N.ar    1  LIG1       -0.3514
     35 H          -9.0661    0.2698   -0.2249 H       1  LIG1        0.1660
     36 H          -9.3954    4.4066    0.4212 H       1  LIG1        0.0642
     37 C         -12.2213    3.5785    0.5284 C.3     1  LIG1       -0.0377
     38 H         -12.9307    2.9976    1.1254 H       1  LIG1        0.0278
     39 H         -12.7292    3.8345   -0.4072 H       1  LIG1        0.0278
     40 H         -12.0098    4.5075    1.0671 H       1  LIG1        0.0278
     41 C         -12.9890    0.3613   -0.5897 C.ar    1  LIG1        0.1261
     42 C         -13.8560   -0.7309   -0.5415 C.ar    1  LIG1       -0.0178
     43 C         -11.7780    0.3268    0.1331 C.ar    1  LIG1        0.0417
     44 C         -13.5420   -1.8719    0.1931 C.ar    1  LIG1       -0.0376
     45 H         -14.7863   -0.6982   -1.1056 H       1  LIG1        0.0655
     46 C         -11.4788   -0.8369    0.8635 C.ar    1  LIG1       -0.0284
     47 C         -12.3372   -1.9426    0.9063 C.ar    1  LIG1        0.0254
     48 H         -10.5624   -0.8571    1.4481 H       1  LIG1        0.0644
     49 H         -14.2381   -2.7061    0.2169 H       1  LIG1        0.0637
     50 O         -13.2592    1.4673   -1.3585 O.3     1  LIG1       -0.5061
     51 H         -14.1120    1.3377   -1.7928 H       1  LIG1        0.2922
     52 N         -12.0377   -3.0559    1.7088 N.pl3   1  LIG1       -0.3579
     53 H         -12.4636   -3.9181    1.3949 H       1  LIG1        0.1423
     54 H         -11.0497   -3.1873    1.8818 H       1  LIG1        0.1423
@<TRIPOS>BOND
     1    13    10    1
     2    11    10    1
     3    51    50    1
     4    10     9    1
     5    10    12    1
     6    50    41    1
     7    26    25    1
     8     9     1    1
     9    45    42    1
    10    25    24    3
    11    29    27    1
    12    28    27    1
    13     1     6   ar
    14     1     2   ar
    15    24    20    1
    16     6     5   ar
    17    41    42   ar
    18    41    43   ar
    19    42    44   ar
    20    39    37    1
    21    27    21    1
    22     8     2    1
    23    20    21   ar
    24    20    19   ar
    25     2     3   ar
    26    21    22   ar
    27    35    34    1
    28     5    19    1
    29     5     4   ar
    30    19    23   ar
    31    22    23   ar
    32    22    30    1
    33    34    30   ar
    34    34    33   ar
    35    30    31   ar
    36    33    43    1
    37    33    32   ar
    38    43    46   ar
    39     3     4   ar
    40     3     7    1
    41    44    49    1
    42    44    47   ar
    43    31    32   ar
    44    31    36    1
    45     4    14    1
    46    32    37    1
    47    18    15    1
    48    37    40    1
    49    37    38    1
    50    14    15    1
    51    46    47   ar
    52    46    48    1
    53    47    52    1
    54    15    16    1
    55    15    17    1
    56    53    52    1
    57    52    54    1
