@<TRIPOS>MOLECULE
mol_data/opt/b3lyp/geoms/mol2/6ll13al-12if13de.out
 53 56 0 0 0
SMALL
GASTEIGER

@<TRIPOS>ATOM
      1 C          -4.7127   -2.0736    0.4420 C.ar    1  LIG1        0.2152
      2 C          -3.3290   -2.2644    0.3274 C.ar    1  LIG1        0.0035
      3 C          -2.5422   -1.1460    0.0871 C.ar    1  LIG1       -0.0127
      4 C          -3.1361    0.1156   -0.0315 C.ar    1  LIG1        0.1476
      5 C          -4.5391    0.2114    0.0971 C.ar    1  LIG1        0.1324
      6 N          -5.2937   -0.8899    0.3300 N.ar    1  LIG1       -0.2077
      7 H          -1.4690   -1.2608   -0.0057 H       1  LIG1        0.0656
      8 H          -2.9042   -3.2558    0.4277 H       1  LIG1        0.0672
      9 O          -5.4648   -3.1787    0.6806 O.3     1  LIG1       -0.4796
     10 C          -6.8704   -2.9958    0.8243 C.3     1  LIG1        0.0804
     11 H          -7.2752   -3.9890    1.0236 H       1  LIG1        0.0660
     12 H          -7.1029   -2.3228    1.6558 H       1  LIG1        0.0660
     13 H          -7.3143   -2.5887   -0.0906 H       1  LIG1        0.0660
     14 O          -2.4461    1.2726   -0.2667 O.3     1  LIG1       -0.4929
     15 C          -1.0339    1.1984   -0.3903 C.3     1  LIG1        0.0789
     16 H          -0.6936    2.2195   -0.5673 H       1  LIG1        0.0660
     17 H          -0.5669    0.8174    0.5267 H       1  LIG1        0.0660
     18 H          -0.7341    0.5678   -1.2369 H       1  LIG1        0.0660
     19 C          -5.2794    1.4592   -0.0047 C.ar    1  LIG1        0.0728
     20 C          -4.9141    2.7950   -0.2065 C.ar    1  LIG1        0.0078
     21 C          -6.1016    3.5553   -0.1895 C.ar    1  LIG1        0.1489
     22 C          -7.1851    2.6872    0.0267 C.ar    1  LIG1        0.1251
     23 N          -6.6402    1.4256    0.1248 N.ar    1  LIG1       -0.3475
     24 H          -7.1425    0.5715    0.3108 H       1  LIG1        0.1661
     25 H          -3.9090    3.1483   -0.3534 H       1  LIG1        0.0676
     26 O          -6.2564    4.8950   -0.3741 O.3     1  LIG1       -0.4929
     27 C          -5.0707    5.6276   -0.6481 C.3     1  LIG1        0.0789
     28 H          -5.3773    6.6657   -0.7831 H       1  LIG1        0.0660
     29 H          -4.3591    5.5634    0.1849 H       1  LIG1        0.0660
     30 H          -4.5838    5.2685   -1.5635 H       1  LIG1        0.0660
     31 C          -8.6097    2.8735    0.0928 C.ar    1  LIG1        0.1620
     32 C          -9.4592    3.9138    0.3991 C.ar    1  LIG1        0.0391
     33 C         -10.7836    3.3810    0.3028 C.ar    1  LIG1        0.1678
     34 C         -10.6831    2.0432   -0.0383 C.ar    1  LIG1        0.1945
     35 O          -9.3372    1.7322   -0.1684 O.2     1  LIG1       -0.4477
     36 C          -9.1641    5.3214    0.8128 C.3     1  LIG1       -0.0325
     37 H          -9.6211    5.5344    1.7854 H       1  LIG1        0.0280
     38 H          -9.5947    6.0331    0.0996 H       1  LIG1        0.0280
     39 H          -8.0925    5.5038    0.8712 H       1  LIG1        0.0280
     40 O         -11.8477    4.1743    0.5273 O.3     1  LIG1       -0.5030
     41 H         -12.6843    3.6801    0.5710 H       1  LIG1        0.2923
     42 C         -11.5780    0.9697   -0.3481 C.ar    1  LIG1        0.1046
     43 C         -12.9657    0.8030   -0.2212 C.ar    1  LIG1        0.0954
     44 C         -13.3037   -0.5101   -0.7270 C.ar    1  LIG1        0.0600
     45 C         -12.1182   -1.0888   -1.1305 C.ar    1  LIG1        0.0190
     46 N         -11.1008   -0.1960   -0.8962 N.ar    1  LIG1       -0.3560
     47 H         -10.1282   -0.3296   -1.1245 H       1  LIG1        0.1655
     48 H         -11.9349   -2.0603   -1.5611 H       1  LIG1        0.0820
     49 N         -14.5207    2.5887    0.7936 N.1     1  LIG1       -0.1908
     50 C         -13.8453    1.7561    0.3288 C.1     1  LIG1        0.1026
     51 C         -14.5964   -1.0861   -0.7854 C.1     1  LIG1       -0.0669
     52 C         -15.7056   -1.5672   -0.8304 C.1     1  LIG1       -0.1138
     53 H         -16.6846   -1.9854   -0.8680 H       1  LIG1        0.1232
@<TRIPOS>BOND
     1    30    27    1
     2    48    45    1
     3    18    15    1
     4    45    46   ar
     5    45    44   ar
     6    47    46    1
     7    46    42   ar
     8    53    52    1
     9    52    51    3
    10    51    44    1
    11    28    27    1
    12    44    43   ar
    13    27    26    1
    14    27    29    1
    15    16    15    1
    16    15    14    1
    17    15    17    1
    18    26    21    1
    19    25    20    1
    20    42    43   ar
    21    42    34    1
    22    14     4    1
    23    43    50    1
    24    20    21   ar
    25    20    19   ar
    26    21    22   ar
    27    35    34   ar
    28    35    31   ar
    29    13    10    1
    30    34    33   ar
    31     4     3   ar
    32     4     5   ar
    33     7     3    1
    34    19     5    1
    35    19    23   ar
    36    22    31    1
    37    22    23   ar
    38     3     2   ar
    39    31    32   ar
    40     5     6   ar
    41    38    36    1
    42    23    24    1
    43    33    32   ar
    44    33    40    1
    45     2     8    1
    46     2     1   ar
    47    50    49    3
    48     6     1   ar
    49    32    36    1
    50     1     9    1
    51    40    41    1
    52     9    10    1
    53    36    39    1
    54    36    37    1
    55    10    11    1
    56    10    12    1
