@<TRIPOS>MOLECULE
mol_data/opt/b3lyp/geoms/mol2/6ll6ll6ll6ll.out
 70 73 0 0 0
SMALL
GASTEIGER

@<TRIPOS>ATOM
      1 C          -4.4162   -2.4109   -0.0007 C.ar    1  LIG1        0.2152
      2 C          -3.0201   -2.5049   -0.0007 C.ar    1  LIG1        0.0035
      3 C          -2.3186   -1.3113   -0.0004 C.ar    1  LIG1       -0.0128
      4 C          -2.9907   -0.0812   -0.0003 C.ar    1  LIG1        0.1464
      5 C          -4.4161   -0.0764   -0.0004 C.ar    1  LIG1        0.1215
      6 N          -5.0602   -1.2609   -0.0006 N.ar    1  LIG1       -0.2090
      7 H          -1.2363   -1.3388   -0.0003 H       1  LIG1        0.0656
      8 H          -2.5235   -3.4680   -0.0008 H       1  LIG1        0.0672
      9 O          -5.1186   -3.5720   -0.0010 O.3     1  LIG1       -0.4796
     10 C          -6.5441   -3.4543   -0.0011 C.3     1  LIG1        0.0804
     11 H          -6.9178   -4.4795   -0.0013 H       1  LIG1        0.0660
     12 H          -6.8961   -2.9169    0.8838 H       1  LIG1        0.0660
     13 H          -6.8960   -2.9166   -0.8858 H       1  LIG1        0.0660
     14 O          -2.3022    1.1086   -0.0000 O.3     1  LIG1       -0.4930
     15 C          -0.8835    1.0844   -0.0000 C.3     1  LIG1        0.0789
     16 H          -0.5677    2.1288    0.0001 H       1  LIG1        0.0660
     17 H          -0.4849    0.5894    0.8944 H       1  LIG1        0.0660
     18 H          -0.4849    0.5897   -0.8946 H       1  LIG1        0.0660
     19 C          -6.7069    1.1218   -0.0003 C.ar    1  LIG1        0.2248
     20 C          -5.2757    1.1392   -0.0003 C.ar    1  LIG1        0.0690
     21 C          -4.7424    2.4376   -0.0001 C.ar    1  LIG1       -0.0034
     22 C          -5.5233    3.5912    0.0000 C.ar    1  LIG1        0.1470
     23 C          -6.9370    3.4654    0.0000 C.ar    1  LIG1        0.1215
     24 N          -7.4385    2.2198   -0.0001 N.ar    1  LIG1       -0.2085
     25 H          -3.6727    2.5399   -0.0001 H       1  LIG1        0.0663
     26 O          -7.3815   -0.0504   -0.0004 O.3     1  LIG1       -0.4792
     27 C          -8.8098    0.0358   -0.0004 C.3     1  LIG1        0.0804
     28 H          -9.1525   -1.0008   -0.0006 H       1  LIG1        0.0660
     29 H          -9.1772    0.5640    0.8830 H       1  LIG1        0.0660
     30 H          -9.1772    0.5643   -0.8837 H       1  LIG1        0.0660
     31 O          -4.9442    4.8404    0.0002 O.3     1  LIG1       -0.4929
     32 C          -3.5295    4.9430    0.0001 C.3     1  LIG1        0.0789
     33 H          -3.3081    6.0117    0.0003 H       1  LIG1        0.0660
     34 H          -3.0886    4.4838    0.8937 H       1  LIG1        0.0660
     35 H          -3.0887    4.4840   -0.8935 H       1  LIG1        0.0660
     36 C          -9.3349    4.4291    0.0003 C.ar    1  LIG1        0.2248
     37 C          -7.9133    4.5851    0.0002 C.ar    1  LIG1        0.0690
     38 C          -7.5081    5.9287    0.0002 C.ar    1  LIG1       -0.0034
     39 C          -8.3966    7.0017    0.0003 C.ar    1  LIG1        0.1470
     40 C          -9.7923    6.7393    0.0004 C.ar    1  LIG1        0.1215
     41 N         -10.1695    5.4508    0.0004 N.ar    1  LIG1       -0.2085
     42 H          -6.4524    6.1311    0.0001 H       1  LIG1        0.0663
     43 O          -9.8906    3.1955    0.0002 O.3     1  LIG1       -0.4792
     44 C         -11.3200    3.1400    0.0004 C.3     1  LIG1        0.0804
     45 H         -11.5591    2.0747    0.0003 H       1  LIG1        0.0660
     46 H         -11.7376    3.6292    0.8840 H       1  LIG1        0.0660
     47 H         -11.7377    3.6293   -0.8831 H       1  LIG1        0.0660
     48 O          -7.9386    8.2993    0.0004 O.3     1  LIG1       -0.4929
     49 C          -6.5404    8.5383    0.0003 C.3     1  LIG1        0.0789
     50 H          -6.4248    9.6235    0.0004 H       1  LIG1        0.0660
     51 H          -6.0569    8.1243    0.8939 H       1  LIG1        0.0660
     52 H          -6.0570    8.1244   -0.8933 H       1  LIG1        0.0660
     53 C         -12.2758    7.4484    0.0010 C.ar    1  LIG1        0.2242
     54 C         -10.8765    7.7621    0.0006 C.ar    1  LIG1        0.0690
     55 C         -10.5834    9.1399    0.0003 C.ar    1  LIG1       -0.0040
     56 C         -11.5899   10.1047    0.0004 C.ar    1  LIG1        0.1390
     57 C         -12.9116    9.6706    0.0008 C.ar    1  LIG1        0.0730
     58 N         -13.2287    8.3772    0.0011 N.ar    1  LIG1       -0.2171
     59 H          -9.5510    9.4422   -0.0000 H       1  LIG1        0.0663
     60 H         -13.7257   10.3919    0.0009 H       1  LIG1        0.0868
     61 O         -12.6948    6.1617    0.0013 O.3     1  LIG1       -0.4792
     62 C         -14.1068    5.9437    0.0017 C.3     1  LIG1        0.0804
     63 H         -14.2241    4.8585    0.0019 H       1  LIG1        0.0660
     64 H         -14.5799    6.3764    0.8878 H       1  LIG1        0.0660
     65 H         -14.5803    6.3762   -0.8843 H       1  LIG1        0.0660
     66 O         -11.3851   11.4589    0.0002 O.3     1  LIG1       -0.4936
     67 C         -10.0476   11.9267   -0.0003 C.3     1  LIG1        0.0789
     68 H         -10.1084   13.0162   -0.0004 H       1  LIG1        0.0660
     69 H          -9.5004   11.5966    0.8928 H       1  LIG1        0.0660
     70 H          -9.5008   11.5963   -0.8934 H       1  LIG1        0.0660
@<TRIPOS>BOND
     1    18    15    1
     2    35    32    1
     3    70    67    1
     4    52    49    1
     5    13    10    1
     6    65    62    1
     7    30    27    1
     8    47    44    1
     9    11    10    1
    10    10     9    1
    11    10    12    1
    12     9     1    1
    13     8     2    1
    14     1     2   ar
    15     1     6   ar
    16     2     3   ar
    17     6     5   ar
    18    28    27    1
    19    27    26    1
    20    27    29    1
    21     3     7    1
    22     3     4   ar
    23    26    19    1
    24    68    67    1
    25     5     4   ar
    26     5    20    1
    27     4    14    1
    28    19    20   ar
    29    19    24   ar
    30    67    66    1
    31    67    69    1
    32    20    21   ar
    33    24    23   ar
    34    21    25    1
    35    21    22   ar
    36    14    15    1
    37    15    16    1
    38    15    17    1
    39    59    55    1
    40    23    22   ar
    41    23    37    1
    42    22    31    1
    43    42    38    1
    44    32    31    1
    45    32    33    1
    46    32    34    1
    47    37    38   ar
    48    37    36   ar
    49    66    56    1
    50    38    39   ar
    51    43    36    1
    52    43    44    1
    53    36    41   ar
    54    55    56   ar
    55    55    54   ar
    56    45    44    1
    57    39    48    1
    58    39    40   ar
    59    49    48    1
    60    49    50    1
    61    49    51    1
    62    44    46    1
    63    41    40   ar
    64    56    57   ar
    65    40    54    1
    66    54    53   ar
    67    57    60    1
    68    57    58   ar
    69    53    58   ar
    70    53    61    1
    71    61    62    1
    72    62    63    1
    73    62    64    1
