@<TRIPOS>MOLECULE
mol_data/opt/b3lyp/geoms/mol2/6ll6ll6ll.out
 53 55 0 0 0
SMALL
GASTEIGER

@<TRIPOS>ATOM
      1 C          -4.4969   -2.2885   -0.0004 C.ar    1  LIG1        0.2152
      2 C          -3.1005   -2.3786   -0.0003 C.ar    1  LIG1        0.0035
      3 C          -2.4022   -1.1832   -0.0002 C.ar    1  LIG1       -0.0128
      4 C          -3.0779    0.0452   -0.0001 C.ar    1  LIG1        0.1464
      5 C          -4.5032    0.0458   -0.0002 C.ar    1  LIG1        0.1215
      6 N          -5.1440   -1.1402   -0.0004 N.ar    1  LIG1       -0.2090
      7 H          -1.3198   -1.2075   -0.0001 H       1  LIG1        0.0656
      8 H          -2.6013   -3.3404   -0.0003 H       1  LIG1        0.0672
      9 O          -5.1967   -3.4512   -0.0005 O.3     1  LIG1       -0.4796
     10 C          -6.6224   -3.3357   -0.0006 C.3     1  LIG1        0.0804
     11 H          -6.9945   -4.3615   -0.0007 H       1  LIG1        0.0660
     12 H          -6.9751   -2.7985    0.8841 H       1  LIG1        0.0660
     13 H          -6.9750   -2.7983   -0.8853 H       1  LIG1        0.0660
     14 O          -2.3927    1.2368    0.0000 O.3     1  LIG1       -0.4930
     15 C          -0.9739    1.2153    0.0000 C.3     1  LIG1        0.0789
     16 H          -0.6597    2.2601    0.0001 H       1  LIG1        0.0660
     17 H          -0.5748    0.7209    0.8944 H       1  LIG1        0.0660
     18 H          -0.5748    0.7210   -0.8944 H       1  LIG1        0.0660
     19 C          -6.7970    1.2382   -0.0002 C.ar    1  LIG1        0.2248
     20 C          -5.3664    1.2593   -0.0002 C.ar    1  LIG1        0.0690
     21 C          -4.8370    2.5586   -0.0002 C.ar    1  LIG1       -0.0034
     22 C          -5.6202    3.7112   -0.0002 C.ar    1  LIG1        0.1470
     23 C          -7.0339    3.5820   -0.0002 C.ar    1  LIG1        0.1215
     24 N          -7.5306    2.3350   -0.0002 N.ar    1  LIG1       -0.2085
     25 H          -3.7677    2.6631   -0.0002 H       1  LIG1        0.0663
     26 O          -7.4689    0.0639   -0.0002 O.3     1  LIG1       -0.4792
     27 C          -8.8969    0.1459   -0.0002 C.3     1  LIG1        0.0804
     28 H          -9.2369   -0.8916   -0.0002 H       1  LIG1        0.0660
     29 H          -9.2660    0.6728    0.8833 H       1  LIG1        0.0660
     30 H          -9.2660    0.6729   -0.8837 H       1  LIG1        0.0660
     31 O          -5.0414    4.9596   -0.0001 O.3     1  LIG1       -0.4929
     32 C          -3.6272    5.0668   -0.0002 C.3     1  LIG1        0.0789
     33 H          -3.4106    6.1364   -0.0001 H       1  LIG1        0.0660
     34 H          -3.1843    4.6098    0.8936 H       1  LIG1        0.0660
     35 H          -3.1844    4.6099   -0.8939 H       1  LIG1        0.0660
     36 C          -9.4393    4.5227    0.0001 C.ar    1  LIG1        0.2242
     37 C          -8.0169    4.7029   -0.0001 C.ar    1  LIG1        0.0690
     38 C          -7.5946    6.0468   -0.0003 C.ar    1  LIG1       -0.0040
     39 C          -8.5053    7.1025   -0.0003 C.ar    1  LIG1        0.1390
     40 C          -9.8622    6.7951   -0.0000 C.ar    1  LIG1        0.0730
     41 N         -10.3001    5.5375    0.0002 N.ar    1  LIG1       -0.2171
     42 H          -6.5382    6.2500   -0.0005 H       1  LIG1        0.0663
     43 H         -10.6045    7.5901   -0.0000 H       1  LIG1        0.0868
     44 O          -9.9777    3.2814    0.0004 O.3     1  LIG1       -0.4792
     45 C         -11.4041    3.1974    0.0006 C.3     1  LIG1        0.0804
     46 H         -11.6231    2.1281    0.0007 H       1  LIG1        0.0660
     47 H         -11.8343    3.6728    0.8867 H       1  LIG1        0.0660
     48 H         -11.8346    3.6726   -0.8855 H       1  LIG1        0.0660
     49 O          -8.1735    8.4311   -0.0005 O.3     1  LIG1       -0.4936
     50 C          -6.7978    8.7704   -0.0008 C.3     1  LIG1        0.0789
     51 H          -6.7554    9.8607   -0.0010 H       1  LIG1        0.0660
     52 H          -6.2843    8.3900    0.8922 H       1  LIG1        0.0660
     53 H          -6.2846    8.3898   -0.8940 H       1  LIG1        0.0660
@<TRIPOS>BOND
     1    18    15    1
     2    53    50    1
     3    35    32    1
     4    48    45    1
     5    13    10    1
     6    30    27    1
     7    51    50    1
     8    50    49    1
     9    50    52    1
    10    11    10    1
    11    10     9    1
    12    10    12    1
    13    42    38    1
    14    49    39    1
    15     9     1    1
    16     1     6   ar
    17     1     2   ar
    18     6     5   ar
    19    38    39   ar
    20    38    37   ar
    21     8     2    1
    22    39    40   ar
    23     2     3   ar
    24    28    27    1
    25     5    20    1
    26     5     4   ar
    27    26    19    1
    28    26    27    1
    29    20    19   ar
    30    20    21   ar
    31    19    24   ar
    32    27    29    1
    33    25    21    1
    34    21    22   ar
    35    22    23   ar
    36    22    31    1
    37    24    23   ar
    38    32    31    1
    39    32    33    1
    40    32    34    1
    41     3     4   ar
    42     3     7    1
    43    23    37    1
    44     4    14    1
    45    37    36   ar
    46    40    43    1
    47    40    41   ar
    48    14    15    1
    49    15    16    1
    50    15    17    1
    51    36    41   ar
    52    36    44    1
    53    44    45    1
    54    45    46    1
    55    45    47    1
