@<TRIPOS>MOLECULE
mol_data/opt/b3lyp/geoms/mol2/6ll6ll.out
 36 37 0 0 0
SMALL
GASTEIGER

@<TRIPOS>ATOM
      1 C          -4.5795   -2.1532   -0.0002 C.ar    1  LIG1        0.2152
      2 C          -3.1839   -2.2484   -0.0001 C.ar    1  LIG1        0.0035
      3 C          -2.4823   -1.0554   -0.0001 C.ar    1  LIG1       -0.0128
      4 C          -3.1533    0.1759   -0.0001 C.ar    1  LIG1        0.1464
      5 C          -4.5789    0.1819   -0.0002 C.ar    1  LIG1        0.1215
      6 N          -5.2219   -1.0022   -0.0002 N.ar    1  LIG1       -0.2090
      7 H          -1.4000   -1.0826    0.0000 H       1  LIG1        0.0656
      8 H          -2.6878   -3.2117   -0.0001 H       1  LIG1        0.0672
      9 O          -5.2834   -3.3139   -0.0002 O.3     1  LIG1       -0.4796
     10 C          -6.7083   -3.1951   -0.0003 C.3     1  LIG1        0.0804
     11 H          -7.0831   -4.2200   -0.0003 H       1  LIG1        0.0660
     12 H          -7.0600   -2.6574    0.8846 H       1  LIG1        0.0660
     13 H          -7.0599   -2.6574   -0.8853 H       1  LIG1        0.0660
     14 O          -2.4609    1.3621   -0.0000 O.3     1  LIG1       -0.4930
     15 C          -1.0421    1.3355    0.0000 C.3     1  LIG1        0.0789
     16 H          -0.7253    2.3796    0.0000 H       1  LIG1        0.0660
     17 H          -0.6445    0.8402    0.8946 H       1  LIG1        0.0660
     18 H          -0.6445    0.8402   -0.8946 H       1  LIG1        0.0660
     19 C          -6.8748    1.3672   -0.0001 C.ar    1  LIG1        0.2242
     20 C          -5.4408    1.4028   -0.0003 C.ar    1  LIG1        0.0690
     21 C          -4.8862    2.6972   -0.0005 C.ar    1  LIG1       -0.0040
     22 C          -5.6853    3.8401   -0.0006 C.ar    1  LIG1        0.1390
     23 C          -7.0659    3.6715   -0.0004 C.ar    1  LIG1        0.0730
     24 N          -7.6279    2.4645   -0.0002 N.ar    1  LIG1       -0.2171
     25 H          -3.8155    2.7958   -0.0006 H       1  LIG1        0.0663
     26 H          -7.7244    4.5371   -0.0005 H       1  LIG1        0.0868
     27 O          -7.5377    0.1880    0.0001 O.3     1  LIG1       -0.4792
     28 C          -8.9650    0.2501    0.0003 C.3     1  LIG1        0.0804
     29 H          -9.2915   -0.7915    0.0004 H       1  LIG1        0.0660
     30 H          -9.3448    0.7668    0.8864 H       1  LIG1        0.0660
     31 H          -9.3449    0.7666   -0.8859 H       1  LIG1        0.0660
     32 O          -5.2202    5.1281   -0.0008 O.3     1  LIG1       -0.4936
     33 C          -3.8174    5.3274   -0.0010 C.3     1  LIG1        0.0789
     34 H          -3.6658    6.4081   -0.0012 H       1  LIG1        0.0660
     35 H          -3.3446    4.8981    0.8924 H       1  LIG1        0.0660
     36 H          -3.3448    4.8978   -0.8944 H       1  LIG1        0.0660
@<TRIPOS>BOND
     1    18    15    1
     2    36    33    1
     3    31    28    1
     4    13    10    1
     5    34    33    1
     6    33    32    1
     7    33    35    1
     8    32    22    1
     9    25    21    1
    10    22    21   ar
    11    22    23   ar
    12    26    23    1
    13    21    20   ar
    14    23    24   ar
    15    11    10    1
    16    10     9    1
    17    10    12    1
    18    20     5    1
    19    20    19   ar
    20     6     5   ar
    21     6     1   ar
    22     9     1    1
    23    24    19   ar
    24     5     4   ar
    25     1     2   ar
    26    19    27    1
    27     4     3   ar
    28     4    14    1
    29     2     8    1
    30     2     3   ar
    31     3     7    1
    32    14    15    1
    33    15    16    1
    34    15    17    1
    35    27    28    1
    36    28    29    1
    37    28    30    1
