@<TRIPOS>MOLECULE
mol_data/opt/b3lyp/geoms/mol2/812-5-.out
 22 24 0 0 0
SMALL
GASTEIGER

@<TRIPOS>ATOM
      1 C          -0.1757    0.0270   -0.0001 C.ar    1  LIG1        0.1605
      2 N           1.1606   -0.0523    0.0000 N.ar    1  LIG1       -0.1338
      3 C           1.1184    2.2263   -0.0000 C.ar    1  LIG1        0.2381
      4 N          -0.8983    1.1583   -0.0002 N.ar    1  LIG1       -0.1338
      5 N           1.8387    1.0801    0.0001 N.ar    1  LIG1       -0.1226
      6 N          -0.2367    2.2947   -0.0002 N.ar    1  LIG1       -0.1226
      7 H          -0.7259   -0.9078   -0.0001 H       1  LIG1        0.1085
      8 C           1.8168    3.4887    0.0000 C.ar    1  LIG1        0.1760
      9 C           1.3607    4.7869    0.0000 C.ar    1  LIG1       -0.0120
     10 C           2.5053    5.6178    0.0001 C.ar    1  LIG1       -0.0146
     11 C           3.6016    4.7764    0.0002 C.ar    1  LIG1        0.1424
     12 O           3.1855    3.4804    0.0002 O.2     1  LIG1       -0.4511
     13 H           0.3227    5.0832   -0.0001 H       1  LIG1        0.0657
     14 H           2.5295    6.6974    0.0000 H       1  LIG1        0.0656
     15 C           5.0213    5.0134    0.0003 C.ar    1  LIG1        0.0544
     16 C           5.6775    6.2281    0.0004 C.ar    1  LIG1       -0.0440
     17 C           7.0916    6.0968    0.0005 C.ar    1  LIG1       -0.0540
     18 C           7.5014    4.7893    0.0005 C.ar    1  LIG1       -0.0236
     19 S           6.1653    3.6883    0.0004 S.2     1  LIG1       -0.0936
     20 H           8.5117    4.4049    0.0005 H       1  LIG1        0.0693
     21 H           5.1589    7.1799    0.0005 H       1  LIG1        0.0630
     22 H           7.7754    6.9373    0.0006 H       1  LIG1        0.0623
@<TRIPOS>BOND
     1     4     6   ar
     2     4     1   ar
     3     6     3   ar
     4     7     1    1
     5     1     2   ar
     6    13     9    1
     7     3     8    1
     8     3     5   ar
     9     2     5   ar
    10     9     8   ar
    11     9    10   ar
    12    14    10    1
    13     8    12   ar
    14    10    11   ar
    15    12    11   ar
    16    11    15    1
    17    15    19   ar
    18    15    16   ar
    19    19    18   ar
    20    16    21    1
    21    16    17   ar
    22    18    20    1
    23    18    17   ar
    24    17    22    1
