@<TRIPOS>MOLECULE
mol_data/opt/b3lyp/geoms/mol2/812-5-8-.out
 28 31 0 0 0
SMALL
GASTEIGER

@<TRIPOS>ATOM
      1 C          -0.3448    0.0724   -0.0001 C.ar    1  LIG1        0.1605
      2 N           0.9890   -0.0437   -0.0001 N.ar    1  LIG1       -0.1338
      3 C           1.0075    2.2336   -0.0000 C.ar    1  LIG1        0.2381
      4 N          -1.0367    1.2226   -0.0001 N.ar    1  LIG1       -0.1338
      5 N           1.6971    1.0706   -0.0000 N.ar    1  LIG1       -0.1226
      6 N          -0.3433    2.3406   -0.0001 N.ar    1  LIG1       -0.1226
      7 H          -0.9200   -0.8473   -0.0002 H       1  LIG1        0.1085
      8 C           1.7405    3.4795    0.0001 C.ar    1  LIG1        0.1760
      9 C           1.3146    4.7882    0.0001 C.ar    1  LIG1       -0.0120
     10 C           2.4793    5.5902    0.0002 C.ar    1  LIG1       -0.0146
     11 C           3.5541    4.7215    0.0002 C.ar    1  LIG1        0.1424
     12 O           3.1058    3.4353    0.0002 O.2     1  LIG1       -0.4511
     13 H           0.2842    5.1095    0.0001 H       1  LIG1        0.0657
     14 H           2.5298    6.6687    0.0002 H       1  LIG1        0.0656
     15 C           4.9770    4.9257    0.0002 C.ar    1  LIG1        0.0551
     16 C           5.6479    6.1393    0.0004 C.ar    1  LIG1       -0.0433
     17 C           7.0487    5.9908    0.0003 C.ar    1  LIG1       -0.0431
     18 C           7.4481    4.6678    0.0002 C.ar    1  LIG1        0.0605
     19 S           6.0848    3.5768    0.0001 S.2     1  LIG1       -0.0820
     20 H           5.1418    7.0974    0.0005 H       1  LIG1        0.0630
     21 H           7.7594    6.8075    0.0004 H       1  LIG1        0.0630
     22 C           8.8041    4.1596    0.0002 C.ar    1  LIG1        0.2099
     23 N           9.8154    5.0611    0.0002 N.ar    1  LIG1       -0.1253
     24 C          11.1941    3.2564    0.0001 C.ar    1  LIG1        0.1605
     25 N           8.9707    2.8167    0.0002 N.ar    1  LIG1       -0.1253
     26 N          11.0450    4.5894    0.0002 N.ar    1  LIG1       -0.1339
     27 N          10.2039    2.3542    0.0002 N.ar    1  LIG1       -0.1339
     28 H          12.2094    2.8745    0.0003 H       1  LIG1        0.1085
@<TRIPOS>BOND
     1     7     1    1
     2     1     4   ar
     3     1     2   ar
     4     4     6   ar
     5     2     5   ar
     6     6     3   ar
     7     5     3   ar
     8     3     8    1
     9    24    27   ar
    10    24    26   ar
    11    24    28    1
    12     8     9   ar
    13     8    12   ar
    14    13     9    1
    15    19    18   ar
    16    19    15   ar
    17     9    10   ar
    18    12    11   ar
    19    27    25   ar
    20    10    14    1
    21    10    11   ar
    22    26    23   ar
    23    23    22   ar
    24    25    22   ar
    25    11    15    1
    26    22    18    1
    27    18    17   ar
    28    15    16   ar
    29    17    16   ar
    30    17    21    1
    31    16    20    1
