@<TRIPOS>MOLECULE
mol_data/opt/b3lyp/geoms/mol2/812-1212-.out
 29 32 0 0 0
SMALL
GASTEIGER

@<TRIPOS>ATOM
      1 C          -0.2057    0.0001    0.0000 C.ar    1  LIG1        0.1605
      2 N           1.1301   -0.0856    0.0000 N.ar    1  LIG1       -0.1338
      3 C           1.0992    2.1937   -0.0000 C.ar    1  LIG1        0.2381
      4 N          -0.9229    1.1353   -0.0000 N.ar    1  LIG1       -0.1338
      5 N           1.8140    1.0434    0.0000 N.ar    1  LIG1       -0.1226
      6 N          -0.2561    2.2682   -0.0000 N.ar    1  LIG1       -0.1226
      7 H          -0.7605   -0.9321    0.0000 H       1  LIG1        0.1085
      8 C           1.8028    3.4521   -0.0000 C.ar    1  LIG1        0.1761
      9 C           1.3515    4.7529    0.0000 C.ar    1  LIG1       -0.0119
     10 C           2.4980    5.5809   -0.0000 C.ar    1  LIG1       -0.0121
     11 C           3.5866    4.7309   -0.0000 C.ar    1  LIG1        0.1707
     12 O           3.1729    3.4353    0.0000 O.2     1  LIG1       -0.4485
     13 H           0.3143    5.0519   -0.0000 H       1  LIG1        0.0657
     14 H           2.5368    6.6594   -0.0001 H       1  LIG1        0.0657
     15 C           4.9987    4.9572   -0.0000 C.ar    1  LIG1        0.1707
     16 C           6.0868    4.1173    0.0000 C.ar    1  LIG1       -0.0121
     17 C           7.2379    4.9482    0.0000 C.ar    1  LIG1       -0.0121
     18 C           6.7833    6.2464   -0.0000 C.ar    1  LIG1        0.1707
     19 O           5.4161    6.2639   -0.0001 O.2     1  LIG1       -0.4486
     20 H           6.0495    3.0382    0.0000 H       1  LIG1        0.0657
     21 H           8.2729    4.6417    0.0001 H       1  LIG1        0.0657
     22 C           7.4470    7.5180   -0.0000 C.ar    1  LIG1        0.1697
     23 C           6.9993    8.8149   -0.0000 C.ar    1  LIG1       -0.0128
     24 C           8.1656    9.6398   -0.0001 C.ar    1  LIG1       -0.0232
     25 C           9.2336    8.7939   -0.0001 C.ar    1  LIG1        0.0927
     26 O           8.8162    7.4956    0.0000 O.2     1  LIG1       -0.4598
     27 H          10.3016    8.9422   -0.0001 H       1  LIG1        0.1029
     28 H           5.9667    9.1297   -0.0001 H       1  LIG1        0.0656
     29 H           8.2022   10.7193   -0.0001 H       1  LIG1        0.0649
@<TRIPOS>BOND
     1    27    25    1
     2    29    24    1
     3    25    24   ar
     4    25    26   ar
     5    14    10    1
     6    24    23   ar
     7    19    18   ar
     8    19    15   ar
     9    28    23    1
    10    23    22   ar
    11    10    11   ar
    12    10     9   ar
    13    22    18    1
    14    22    26   ar
    15     6     3   ar
    16     6     4   ar
    17    18    17   ar
    18     3     8    1
    19     3     5   ar
    20    15    11    1
    21    15    16   ar
    22    13     9    1
    23    11    12   ar
    24     4     1   ar
    25     8     9   ar
    26     8    12   ar
    27    16    20    1
    28    16    17   ar
    29     5     2   ar
    30     1     2   ar
    31     1     7    1
    32    17    21    1
