@<TRIPOS>MOLECULE
mol_data/opt/b3lyp/geoms/mol2/812-12-8.out
 28 31 0 0 0
SMALL
GASTEIGER

@<TRIPOS>ATOM
      1 C          -0.6021    0.1938    0.0000 C.ar    1  LIG1        0.1605
      2 N           0.7222   -0.0036    0.0000 N.ar    1  LIG1       -0.1338
      3 C           0.8800    2.2678   -0.0000 C.ar    1  LIG1        0.2381
      4 N          -1.2224    1.3839   -0.0000 N.ar    1  LIG1       -0.1338
      5 N           1.4972    1.0650    0.0000 N.ar    1  LIG1       -0.1226
      6 N          -0.4614    2.4573   -0.0000 N.ar    1  LIG1       -0.1226
      7 H          -1.2324   -0.6891    0.0000 H       1  LIG1        0.1085
      8 C           1.6864    3.4686    0.0000 C.ar    1  LIG1        0.1761
      9 C           1.3331    4.7990    0.0000 C.ar    1  LIG1       -0.0119
     10 C           2.5410    5.5338    0.0000 C.ar    1  LIG1       -0.0121
     11 C           3.5604    4.6018    0.0000 C.ar    1  LIG1        0.1707
     12 O           3.0461    3.3442    0.0001 O.2     1  LIG1       -0.4485
     13 H           0.3224    5.1776    0.0000 H       1  LIG1        0.0657
     14 H           2.6547    6.6077   -0.0000 H       1  LIG1        0.0657
     15 C           4.9883    4.7498    0.0000 C.ar    1  LIG1        0.1707
     16 C           5.7950    5.8709    0.0000 C.ar    1  LIG1       -0.0121
     17 C           7.1279    5.3994    0.0000 C.ar    1  LIG1       -0.0119
     18 C           7.0548    4.0248    0.0000 C.ar    1  LIG1        0.1761
     19 O           5.7495    3.6243    0.0001 O.2     1  LIG1       -0.4485
     20 H           5.4635    6.8987    0.0000 H       1  LIG1        0.0657
     21 H           8.0395    5.9772    0.0000 H       1  LIG1        0.0657
     22 C           8.0904    3.0148    0.0000 C.ar    1  LIG1        0.2381
     23 N           7.7329    1.7111   -0.0000 N.ar    1  LIG1       -0.1226
     24 C           9.9662    1.2889    0.0001 C.ar    1  LIG1        0.1605
     25 N           9.3644    3.4754    0.0001 N.ar    1  LIG1       -0.1226
     26 N           8.7106    0.8240   -0.0000 N.ar    1  LIG1       -0.1338
     27 N          10.3294    2.5809    0.0001 N.ar    1  LIG1       -0.1338
     28 H          10.7642    0.5541   -0.0001 H       1  LIG1        0.1085
@<TRIPOS>BOND
     1    28    24    1
     2    26    23   ar
     3    26    24   ar
     4    23    22   ar
     5     6     4   ar
     6     6     3   ar
     7     4     1   ar
     8    14    10    1
     9     3     5   ar
    10     3     8    1
    11     1     2   ar
    12     1     7    1
    13    10     9   ar
    14    10    11   ar
    15     5     2   ar
    16     8     9   ar
    17     8    12   ar
    18    13     9    1
    19    22    18    1
    20    22    25   ar
    21    21    17    1
    22    11    15    1
    23    11    12   ar
    24    17    18   ar
    25    17    16   ar
    26    15    16   ar
    27    15    19   ar
    28    18    19   ar
    29    20    16    1
    30    27    25   ar
    31    27    24   ar
