@<TRIPOS>MOLECULE
mol_data/opt/b3lyp/geoms/mol2/812-12-5.out
 29 32 0 0 0
SMALL
GASTEIGER

@<TRIPOS>ATOM
      1 C          -0.5532    0.1757   -0.0000 C.ar    1  LIG1        0.1605
      2 N           0.7742    0.0040   -0.0001 N.ar    1  LIG1       -0.1338
      3 C           0.8909    2.2804    0.0000 C.ar    1  LIG1        0.2381
      4 N          -1.1956    1.3548    0.0001 N.ar    1  LIG1       -0.1338
      5 N           1.5298    1.0863   -0.0001 N.ar    1  LIG1       -0.1226
      6 N          -0.4569    2.4422    0.0001 N.ar    1  LIG1       -0.1226
      7 H          -1.1671   -0.7186   -0.0001 H       1  LIG1        0.1085
      8 C           1.6732    3.4917    0.0000 C.ar    1  LIG1        0.1761
      9 C           1.3025    4.8181    0.0001 C.ar    1  LIG1       -0.0119
     10 C           2.4976    5.5716    0.0001 C.ar    1  LIG1       -0.0121
     11 C           3.5341    4.6557    0.0000 C.ar    1  LIG1        0.1707
     12 O           3.0383    3.3902   -0.0000 O.2     1  LIG1       -0.4485
     13 H           0.2862    5.1819    0.0002 H       1  LIG1        0.0657
     14 H           2.5947    6.6470    0.0002 H       1  LIG1        0.0657
     15 C           4.9579    4.8159    0.0000 C.ar    1  LIG1        0.1706
     16 C           5.7692    5.9280    0.0001 C.ar    1  LIG1       -0.0121
     17 C           7.1052    5.4529    0.0000 C.ar    1  LIG1       -0.0146
     18 C           7.0373    4.0768   -0.0001 C.ar    1  LIG1        0.1424
     19 O           5.7272    3.6848   -0.0001 O.2     1  LIG1       -0.4512
     20 H           5.4427    6.9576    0.0001 H       1  LIG1        0.0657
     21 H           8.0072    6.0473    0.0000 H       1  LIG1        0.0656
     22 C           8.0201    3.0253   -0.0002 C.ar    1  LIG1        0.0544
     23 C           7.8008    1.6640   -0.0006 C.ar    1  LIG1       -0.0440
     24 C           9.0047    0.9065   -0.0007 C.ar    1  LIG1       -0.0540
     25 C          10.1281    1.6876   -0.0003 C.ar    1  LIG1       -0.0236
     26 S           9.7363    3.3785    0.0001 S.2     1  LIG1       -0.0936
     27 H          11.1638    1.3789   -0.0003 H       1  LIG1        0.0693
     28 H           6.8061    1.2357   -0.0009 H       1  LIG1        0.0630
     29 H           9.0337   -0.1768   -0.0010 H       1  LIG1        0.0623
@<TRIPOS>BOND
     1    29    24    1
     2    28    23    1
     3    24    23   ar
     4    24    25   ar
     5    23    22   ar
     6    25    27    1
     7    25    26   ar
     8    22    18    1
     9    22    26   ar
    10    19    18   ar
    11    19    15   ar
    12    18    17   ar
    13     2     5   ar
    14     2     1   ar
    15     5     3   ar
    16     7     1    1
    17     1     4   ar
    18    12    11   ar
    19    12     8   ar
    20    15    11    1
    21    15    16   ar
    22    17    21    1
    23    17    16   ar
    24     3     8    1
    25     3     6   ar
    26    11    10   ar
    27     8     9   ar
    28     4     6   ar
    29    16    20    1
    30     9    10   ar
    31     9    13    1
    32    10    14    1
