@<TRIPOS>MOLECULE
mol_data/opt/b3lyp/geoms/mol2/812-13-.out
 23 25 0 0 0
SMALL
GASTEIGER

@<TRIPOS>ATOM
      1 C          -0.1561    0.0173    0.0001 C.ar    1  LIG1        0.1605
      2 N           1.1807   -0.0474   -0.0000 N.ar    1  LIG1       -0.1338
      3 C           1.1146    2.2327    0.0000 C.ar    1  LIG1        0.2381
      4 N          -0.8907    1.1418    0.0002 N.ar    1  LIG1       -0.1338
      5 N           1.8471    1.0918   -0.0001 N.ar    1  LIG1       -0.1226
      6 N          -0.2431    2.2851    0.0002 N.ar    1  LIG1       -0.1226
      7 H          -0.6966   -0.9231    0.0002 H       1  LIG1        0.1085
      8 C           1.8020    3.4964    0.0000 C.ar    1  LIG1        0.1760
      9 C           1.3495    4.7964    0.0001 C.ar    1  LIG1       -0.0120
     10 C           2.4926    5.6292   -0.0000 C.ar    1  LIG1       -0.0137
     11 C           3.5896    4.7890   -0.0001 C.ar    1  LIG1        0.1519
     12 O           3.1753    3.4901   -0.0001 O.2     1  LIG1       -0.4501
     13 H           0.3114    5.0932    0.0001 H       1  LIG1        0.0657
     14 H           2.5172    6.7086   -0.0000 H       1  LIG1        0.0656
     15 C           5.0084    4.9995   -0.0003 C.ar    1  LIG1        0.0821
     16 C           5.7719    6.1634   -0.0001 C.ar    1  LIG1       -0.0334
     17 C           7.1329    5.7780   -0.0005 C.ar    1  LIG1       -0.0437
     18 C           7.1733    4.3944   -0.0005 C.ar    1  LIG1        0.0023
     19 N           5.8864    3.9344   -0.0006 N.ar    1  LIG1       -0.3583
     20 H           5.5942    2.9690   -0.0006 H       1  LIG1        0.1654
     21 H           8.0103    3.7127   -0.0007 H       1  LIG1        0.0807
     22 H           5.3817    7.1710    0.0002 H       1  LIG1        0.0640
     23 H           7.9907    6.4347   -0.0006 H       1  LIG1        0.0633
@<TRIPOS>BOND
     1    21    18    1
     2    20    19    1
     3    23    17    1
     4    19    18   ar
     5    19    15   ar
     6    18    17   ar
     7    17    16   ar
     8    15    11    1
     9    15    16   ar
    10    11    12   ar
    11    11    10   ar
    12    12     8   ar
    13     5     2   ar
    14     5     3   ar
    15    16    22    1
    16    10    14    1
    17    10     9   ar
    18     2     1   ar
    19     8     3    1
    20     8     9   ar
    21     3     6   ar
    22     9    13    1
    23     1     7    1
    24     1     4   ar
    25     6     4   ar
