@<TRIPOS>MOLECULE
mol_data/opt/b3lyp/geoms/mol2/812-4-13-.out
 33 36 0 0 0
SMALL
GASTEIGER

@<TRIPOS>ATOM
      1 C          -0.4305    0.0673    0.0015 C.ar    1  LIG1        0.1605
      2 N           0.9018   -0.0598    0.0007 N.ar    1  LIG1       -0.1338
      3 C           0.9422    2.2199    0.0006 C.ar    1  LIG1        0.2381
      4 N          -1.1119    1.2243    0.0018 N.ar    1  LIG1       -0.1338
      5 N           1.6205    1.0475    0.0003 N.ar    1  LIG1       -0.1226
      6 N          -0.4103    2.3360    0.0014 N.ar    1  LIG1       -0.1226
      7 H          -1.0141   -0.8469    0.0018 H       1  LIG1        0.1085
      8 C           1.6863    3.4548    0.0001 C.ar    1  LIG1        0.1760
      9 C           1.2808    4.7699    0.0003 C.ar    1  LIG1       -0.0120
     10 C           2.4586    5.5526   -0.0003 C.ar    1  LIG1       -0.0151
     11 C           3.5241    4.6719   -0.0009 C.ar    1  LIG1        0.1358
     12 O           3.0522    3.3934   -0.0006 O.2     1  LIG1       -0.4516
     13 H           0.2555    5.1077    0.0009 H       1  LIG1        0.0657
     14 H           2.5189    6.6305   -0.0004 H       1  LIG1        0.0656
     15 C           5.5377    6.1335   -0.0021 C.ar    1  LIG1       -0.0505
     16 C           6.9119    6.3022   -0.0029 C.ar    1  LIG1       -0.0520
     17 C           4.9648    4.8472   -0.0017 C.ar    1  LIG1        0.0173
     18 C           7.7897    5.1973   -0.0032 C.ar    1  LIG1       -0.0017
     19 H           7.3181    7.3078   -0.0033 H       1  LIG1        0.0624
     20 C           5.8301    3.7391   -0.0021 C.ar    1  LIG1       -0.0505
     21 C           7.2066    3.9142   -0.0028 C.ar    1  LIG1       -0.0520
     22 H           5.4127    2.7383   -0.0017 H       1  LIG1        0.0625
     23 H           4.8981    7.0108   -0.0019 H       1  LIG1        0.0625
     24 H           7.8299    3.0245   -0.0029 H       1  LIG1        0.0624
     25 C           9.2325    5.4017   -0.0040 C.ar    1  LIG1        0.0465
     26 C           9.9863    6.5727   -0.0036 C.ar    1  LIG1       -0.0364
     27 C          11.3567    6.2179   -0.0044 C.ar    1  LIG1       -0.0438
     28 C          11.4225    4.8385   -0.0062 C.ar    1  LIG1        0.0022
     29 N          10.1404    4.3576   -0.0054 N.ar    1  LIG1       -0.3607
     30 H           9.8983    3.3808   -0.0061 H       1  LIG1        0.1653
     31 H          12.2698    4.1692   -0.0075 H       1  LIG1        0.0807
     32 H           9.5891    7.5773   -0.0025 H       1  LIG1        0.0639
     33 H          12.2007    6.8924   -0.0040 H       1  LIG1        0.0633
@<TRIPOS>BOND
     1    31    28    1
     2    28    29   ar
     3    28    27   ar
     4    30    29    1
     5    29    25   ar
     6    27    33    1
     7    27    26   ar
     8    25    26   ar
     9    25    18    1
    10    26    32    1
    11    19    16    1
    12    18    16   ar
    13    18    21   ar
    14    24    21    1
    15    16    15   ar
    16    21    20   ar
    17    15    23    1
    18    15    17   ar
    19    20    22    1
    20    20    17   ar
    21    17    11    1
    22    11    12   ar
    23    11    10   ar
    24    12     8   ar
    25    14    10    1
    26    10     9   ar
    27     8     9   ar
    28     8     3    1
    29     9    13    1
    30     5     3   ar
    31     5     2   ar
    32     3     6   ar
    33     2     1   ar
    34     6     4   ar
    35     1     4   ar
    36     1     7    1
