@<TRIPOS>MOLECULE
mol_data/opt/b3lyp/geoms/mol2/812-12-12-.out
 29 32 0 0 0
SMALL
GASTEIGER

@<TRIPOS>ATOM
      1 C          -0.5985    0.1961    0.0000 C.ar    1  LIG1        0.1605
      2 N           0.7264    0.0049    0.0000 N.ar    1  LIG1       -0.1338
      3 C           0.8767    2.2792    0.0000 C.ar    1  LIG1        0.2381
      4 N          -1.2234    1.3844    0.0000 N.ar    1  LIG1       -0.1338
      5 N           1.4979    1.0758    0.0000 N.ar    1  LIG1       -0.1226
      6 N          -0.4686    2.4608    0.0000 N.ar    1  LIG1       -0.1226
      7 H          -1.2254   -0.6891    0.0000 H       1  LIG1        0.1085
      8 C           1.6757    3.4796    0.0000 C.ar    1  LIG1        0.1761
      9 C           1.3204    4.8103   -0.0000 C.ar    1  LIG1       -0.0119
     10 C           2.5242    5.5495    0.0000 C.ar    1  LIG1       -0.0121
     11 C           3.5497    4.6212    0.0000 C.ar    1  LIG1        0.1707
     12 O           3.0394    3.3619    0.0000 O.2     1  LIG1       -0.4485
     13 H           0.3084    5.1857   -0.0000 H       1  LIG1        0.0657
     14 H           2.6340    6.6237    0.0000 H       1  LIG1        0.0657
     15 C           4.9750    4.7707    0.0000 C.ar    1  LIG1        0.1707
     16 C           5.7897    5.8811    0.0001 C.ar    1  LIG1       -0.0121
     17 C           7.1240    5.4034    0.0001 C.ar    1  LIG1       -0.0121
     18 C           7.0469    4.0276    0.0000 C.ar    1  LIG1        0.1707
     19 O           5.7401    3.6370    0.0000 O.2     1  LIG1       -0.4486
     20 H           5.4660    6.9117    0.0001 H       1  LIG1        0.0657
     21 H           8.0287    5.9930    0.0001 H       1  LIG1        0.0657
     22 C           8.0524    3.0005    0.0000 C.ar    1  LIG1        0.1697
     23 C           9.4259    3.0465    0.0001 C.ar    1  LIG1       -0.0128
     24 C           9.8723    1.6912    0.0000 C.ar    1  LIG1       -0.0232
     25 C           8.7481    0.9199    0.0001 C.ar    1  LIG1        0.0927
     26 O           7.6326    1.6995   -0.0000 O.2     1  LIG1       -0.4598
     27 H           8.5745   -0.1445    0.0001 H       1  LIG1        0.1029
     28 H          10.0370    3.9371    0.0001 H       1  LIG1        0.0656
     29 H          10.8936    1.3397    0.0001 H       1  LIG1        0.0649
@<TRIPOS>BOND
     1    13     9    1
     2     9     8   ar
     3     9    10   ar
     4    26    22   ar
     5    26    25   ar
     6     6     4   ar
     7     6     3   ar
     8     8    12   ar
     9     8     3    1
    10     4     1   ar
    11    12    11   ar
    12    10    11   ar
    13    10    14    1
    14    11    15    1
    15    19    15   ar
    16    19    18   ar
    17     7     1    1
    18     3     5   ar
    19    15    16   ar
    20     1     2   ar
    21    22    18    1
    22    22    23   ar
    23     5     2   ar
    24    24    29    1
    25    24    25   ar
    26    24    23   ar
    27    18    17   ar
    28    16    20    1
    29    16    17   ar
    30    25    27    1
    31    17    21    1
    32    23    28    1
