@<TRIPOS>MOLECULE
mol_data/opt/b3lyp/geoms/mol2/812-124-.out
 32 35 0 0 0
SMALL
GASTEIGER

@<TRIPOS>ATOM
      1 C          -0.2200   -0.0392    0.0007 C.ar    1  LIG1        0.1605
      2 N           1.1162   -0.1185    0.0008 N.ar    1  LIG1       -0.1338
      3 C           1.0743    2.1606    0.0002 C.ar    1  LIG1        0.2381
      4 N          -0.9426    1.0925    0.0004 N.ar    1  LIG1       -0.1338
      5 N           1.7946    1.0137    0.0005 N.ar    1  LIG1       -0.1226
      6 N          -0.2812    2.2286    0.0002 N.ar    1  LIG1       -0.1226
      7 H          -0.7703   -0.9740    0.0010 H       1  LIG1        0.1085
      8 C           1.7726    3.4221   -0.0001 C.ar    1  LIG1        0.1761
      9 C           1.3169    4.7211   -0.0004 C.ar    1  LIG1       -0.0119
     10 C           2.4608    5.5531   -0.0006 C.ar    1  LIG1       -0.0121
     11 C           3.5521    4.7070   -0.0004 C.ar    1  LIG1        0.1707
     12 O           3.1426    3.4101   -0.0000 O.2     1  LIG1       -0.4485
     13 H           0.2787    5.0168   -0.0004 H       1  LIG1        0.0657
     14 H           2.4950    6.6317   -0.0009 H       1  LIG1        0.0657
     15 C           4.9646    4.9355   -0.0004 C.ar    1  LIG1        0.1706
     16 C           6.0512    4.0946   -0.0002 C.ar    1  LIG1       -0.0122
     17 C           7.1990    4.9291   -0.0004 C.ar    1  LIG1       -0.0151
     18 C           6.7546    6.2321   -0.0007 C.ar    1  LIG1        0.1358
     19 O           5.3837    6.2378   -0.0007 O.2     1  LIG1       -0.4517
     20 H           6.0155    3.0154    0.0000 H       1  LIG1        0.0657
     21 H           8.2290    4.6051   -0.0003 H       1  LIG1        0.0656
     22 C           6.6963    8.7226   -0.0015 C.ar    1  LIG1       -0.0511
     23 C           7.3534    9.9502   -0.0017 C.ar    1  LIG1       -0.0611
     24 C           7.4291    7.5221   -0.0010 C.ar    1  LIG1        0.0173
     25 C           8.7483   10.0058   -0.0016 C.ar    1  LIG1       -0.0617
     26 H           6.7725   10.8678   -0.0021 H       1  LIG1        0.0618
     27 C           8.8348    7.5885   -0.0008 C.ar    1  LIG1       -0.0511
     28 C           9.4846    8.8183   -0.0011 C.ar    1  LIG1       -0.0611
     29 H           9.4193    6.6738   -0.0004 H       1  LIG1        0.0625
     30 H           9.2579   10.9645   -0.0018 H       1  LIG1        0.0618
     31 H           5.6128    8.6841   -0.0016 H       1  LIG1        0.0625
     32 H          10.5701    8.8508   -0.0009 H       1  LIG1        0.0618
@<TRIPOS>BOND
     1    26    23    1
     2    30    25    1
     3    23    25   ar
     4    23    22   ar
     5    31    22    1
     6    25    28   ar
     7    22    24   ar
     8    28    32    1
     9    28    27   ar
    10    24    27   ar
    11    24    18    1
    12    14    10    1
    13    27    29    1
    14    19    18   ar
    15    19    15   ar
    16    18    17   ar
    17    10     9   ar
    18    10    11   ar
    19    13     9    1
    20    15    11    1
    21    15    16   ar
    22    17    21    1
    23    17    16   ar
    24     9     8   ar
    25    11    12   ar
    26    16    20    1
    27     8    12   ar
    28     8     3    1
    29     6     3   ar
    30     6     4   ar
    31     3     5   ar
    32     4     1   ar
    33     5     2   ar
    34     1     2   ar
    35     1     7    1
