@<TRIPOS>MOLECULE
mol_data/opt/b3lyp/geoms/mol2/812-8.out
 21 23 0 0 0
SMALL
GASTEIGER

@<TRIPOS>ATOM
      1 C          -0.2328    0.0454    0.0000 C.ar    1  LIG1        0.1605
      2 N           1.1012   -0.0722    0.0000 N.ar    1  LIG1       -0.1338
      3 C           1.1192    2.2037    0.0000 C.ar    1  LIG1        0.2381
      4 N          -0.9250    1.1946    0.0000 N.ar    1  LIG1       -0.1338
      5 N           1.8085    1.0427    0.0000 N.ar    1  LIG1       -0.1226
      6 N          -0.2289    2.3124    0.0000 N.ar    1  LIG1       -0.1226
      7 H          -0.8080   -0.8744    0.0000 H       1  LIG1        0.1085
      8 C           1.8540    3.4551   -0.0000 C.ar    1  LIG1        0.1761
      9 C           1.4158    4.7609   -0.0000 C.ar    1  LIG1       -0.0119
     10 C           2.5788    5.5666   -0.0000 C.ar    1  LIG1       -0.0119
     11 C           3.6473    4.6973   -0.0000 C.ar    1  LIG1        0.1761
     12 O           3.2126    3.4098   -0.0000 O.2     1  LIG1       -0.4483
     13 H           0.3832    5.0762   -0.0000 H       1  LIG1        0.0657
     14 H           2.6464    6.6439    0.0000 H       1  LIG1        0.0657
     15 C           5.0775    4.9457    0.0000 C.ar    1  LIG1        0.2381
     16 N           5.9218    3.8925   -0.0001 N.ar    1  LIG1       -0.1226
     17 C           7.5732    5.4532    0.0000 C.ar    1  LIG1        0.1605
     18 N           5.4490    6.2459    0.0001 N.ar    1  LIG1       -0.1226
     19 N           7.2144    4.1631   -0.0000 N.ar    1  LIG1       -0.1338
     20 N           6.7402    6.5049    0.0001 N.ar    1  LIG1       -0.1338
     21 H           8.6358    5.6687    0.0001 H       1  LIG1        0.1085
@<TRIPOS>BOND
     1    16    19   ar
     2    16    15   ar
     3    13     9    1
     4     9    10   ar
     5     9     8   ar
     6    12     8   ar
     7    12    11   ar
     8    19    17   ar
     9    10    11   ar
    10    10    14    1
    11     8     3    1
    12    11    15    1
    13    15    18   ar
    14     2     5   ar
    15     2     1   ar
    16     5     3   ar
    17     3     6   ar
    18     6     4   ar
    19     4     1   ar
    20    17    21    1
    21    17    20   ar
    22     7     1    1
    23    18    20   ar
