@<TRIPOS>MOLECULE
mol_data/opt/b3lyp/geoms/mol2/812-12-.out
 22 24 0 0 0
SMALL
GASTEIGER

@<TRIPOS>ATOM
      1 C          -0.2476    0.0488   -0.0000 C.ar    1  LIG1        0.1605
      2 N           1.0860   -0.0672    0.0000 N.ar    1  LIG1       -0.1338
      3 C           1.1067    2.2117   -0.0000 C.ar    1  LIG1        0.2381
      4 N          -0.9389    1.1994   -0.0000 N.ar    1  LIG1       -0.1338
      5 N           1.7952    1.0461    0.0000 N.ar    1  LIG1       -0.1226
      6 N          -0.2461    2.3171   -0.0000 N.ar    1  LIG1       -0.1226
      7 H          -0.8233   -0.8706    0.0000 H       1  LIG1        0.1085
      8 C           1.8376    3.4559    0.0000 C.ar    1  LIG1        0.1761
      9 C           1.4099    4.7642    0.0000 C.ar    1  LIG1       -0.0119
     10 C           2.5730    5.5683   -0.0000 C.ar    1  LIG1       -0.0121
     11 C           3.6458    4.6980    0.0000 C.ar    1  LIG1        0.1707
     12 O           3.2055    3.4132    0.0001 O.2     1  LIG1       -0.4485
     13 H           0.3789    5.0841   -0.0000 H       1  LIG1        0.0657
     14 H           2.6246    6.6470   -0.0000 H       1  LIG1        0.0657
     15 C           5.0656    4.9222    0.0001 C.ar    1  LIG1        0.1697
     16 C           5.8211    6.0702    0.0001 C.ar    1  LIG1       -0.0128
     17 C           7.1847    5.6524    0.0001 C.ar    1  LIG1       -0.0232
     18 C           7.1644    4.2886    0.0001 C.ar    1  LIG1        0.0927
     19 O           5.8851    3.8279    0.0001 O.2     1  LIG1       -0.4598
     20 H           7.9339    3.5329    0.0001 H       1  LIG1        0.1029
     21 H           5.4465    7.0834    0.0001 H       1  LIG1        0.0656
     22 H           8.0616    6.2826    0.0001 H       1  LIG1        0.0649
@<TRIPOS>BOND
     1     6     4   ar
     2     6     3   ar
     3     4     1   ar
     4    14    10    1
     5    13     9    1
     6     3     8    1
     7     3     5   ar
     8    10     9   ar
     9    10    11   ar
    10     1     7    1
    11     1     2   ar
    12     9     8   ar
    13     8    12   ar
    14     5     2   ar
    15    11    15    1
    16    11    12   ar
    17    20    18    1
    18    21    16    1
    19    18    17   ar
    20    18    19   ar
    21    15    16   ar
    22    15    19   ar
    23    22    17    1
    24    16    17   ar
