@<TRIPOS>MOLECULE
mol_data/opt/b3lyp/geoms/mol2/812-.out
 15 16 0 0 0
SMALL
GASTEIGER

@<TRIPOS>ATOM
      1 C          -0.0426    0.0344   -0.0000 C.ar    1  LIG1        0.1605
      2 N           1.2950   -0.0114    0.0000 N.ar    1  LIG1       -0.1338
      3 C           1.1948    2.2651   -0.0000 C.ar    1  LIG1        0.2380
      4 N          -0.7936    1.1460   -0.0001 N.ar    1  LIG1       -0.1338
      5 N           1.9432    1.1392    0.0000 N.ar    1  LIG1       -0.1226
      6 N          -0.1595    2.2993   -0.0001 N.ar    1  LIG1       -0.1226
      7 H          -0.5688   -0.9146   -0.0000 H       1  LIG1        0.1085
      8 C           1.8635    3.5492    0.0000 C.ar    1  LIG1        0.1751
      9 C           1.3721    4.8317    0.0000 C.ar    1  LIG1       -0.0126
     10 C           2.5052    5.6928    0.0000 C.ar    1  LIG1       -0.0232
     11 C           3.5998    4.8744    0.0000 C.ar    1  LIG1        0.0927
     12 O           3.2303    3.5717    0.0001 O.2     1  LIG1       -0.4597
     13 H           4.6620    5.0607    0.0001 H       1  LIG1        0.1029
     14 H           0.3273    5.1019   -0.0000 H       1  LIG1        0.0656
     15 H           2.5097    6.7730    0.0000 H       1  LIG1        0.0649
@<TRIPOS>BOND
     1     4     6   ar
     2     4     1   ar
     3     6     3   ar
     4    14     9    1
     5     1     7    1
     6     1     2   ar
     7     3     8    1
     8     3     5   ar
     9    15    10    1
    10     9    10   ar
    11     9     8   ar
    12    10    11   ar
    13     8    12   ar
    14     2     5   ar
    15    11    13    1
    16    11    12   ar
