@<TRIPOS>MOLECULE
mol_data/opt/b3lyp/geoms/mol2/812.out
 15 16 0 0 0
SMALL
GASTEIGER

@<TRIPOS>ATOM
      1 C           0.0531   -0.0135   -0.0000 C.ar    1  LIG1        0.1605
      2 N           1.3930    0.0524    0.0001 N.ar    1  LIG1       -0.1338
      3 C           1.0957    2.3147   -0.0000 C.ar    1  LIG1        0.2380
      4 N          -0.7859    1.0293   -0.0001 N.ar    1  LIG1       -0.1338
      5 N           1.9354    1.2516    0.0000 N.ar    1  LIG1       -0.1226
      6 N          -0.2541    2.2381   -0.0001 N.ar    1  LIG1       -0.1226
      7 H          -0.3906   -1.0038    0.0000 H       1  LIG1        0.1085
      8 C           1.7219    3.6200   -0.0000 C.ar    1  LIG1        0.1751
      9 C           3.0429    3.9961   -0.0000 C.ar    1  LIG1       -0.0126
     10 C           3.0521    5.4193   -0.0000 C.ar    1  LIG1       -0.0232
     11 C           1.7407    5.8041   -0.0001 C.ar    1  LIG1        0.0927
     12 O           0.9201    4.7270   -0.0001 O.2     1  LIG1       -0.4597
     13 H           1.2527    6.7657   -0.0001 H       1  LIG1        0.1029
     14 H           3.8857    3.3222    0.0000 H       1  LIG1        0.0656
     15 H           3.9138    6.0709    0.0000 H       1  LIG1        0.0649
@<TRIPOS>BOND
     1    12    11   ar
     2    12     8   ar
     3    13    11    1
     4     6     4   ar
     5     6     3   ar
     6     4     1   ar
     7    11    10   ar
     8     8     3    1
     9     8     9   ar
    10    10     9   ar
    11    10    15    1
    12     3     5   ar
    13     9    14    1
    14     1     7    1
    15     1     2   ar
    16     5     2   ar
