@<TRIPOS>MOLECULE
mol_data/opt/b3lyp/geoms/mol2/81212-13-.out
 30 33 0 0 0
SMALL
GASTEIGER

@<TRIPOS>ATOM
      1 C           0.1149   -0.1787    0.0001 C.ar    1  LIG1        0.1605
      2 N           1.4538   -0.0728    0.0002 N.ar    1  LIG1       -0.1338
      3 C           1.0902    2.1808    0.0001 C.ar    1  LIG1        0.2381
      4 N          -0.7536    0.8397    0.0001 N.ar    1  LIG1       -0.1338
      5 N           1.9617    1.1392    0.0001 N.ar    1  LIG1       -0.1226
      6 N          -0.2596    2.0637    0.0000 N.ar    1  LIG1       -0.1226
      7 H          -0.2990   -1.1813    0.0002 H       1  LIG1        0.1085
      8 C           1.6760    3.4970    0.0000 C.ar    1  LIG1        0.1761
      9 C           2.9876    3.9157    0.0000 C.ar    1  LIG1       -0.0119
     10 C           2.9638    5.3293   -0.0001 C.ar    1  LIG1       -0.0121
     11 C           1.6304    5.6934   -0.0001 C.ar    1  LIG1        0.1707
     12 O           0.8416    4.5852   -0.0000 O.2     1  LIG1       -0.4485
     13 H           3.8485    3.2644    0.0001 H       1  LIG1        0.0657
     14 H           3.8061    6.0038   -0.0001 H       1  LIG1        0.0657
     15 C           0.9643    6.9569   -0.0001 C.ar    1  LIG1        0.1706
     16 C          -0.3595    7.3248   -0.0001 C.ar    1  LIG1       -0.0121
     17 C          -0.3889    8.7436   -0.0003 C.ar    1  LIG1       -0.0137
     18 C           0.9203    9.1694   -0.0003 C.ar    1  LIG1        0.1519
     19 O           1.7566    8.0814   -0.0002 O.2     1  LIG1       -0.4503
     20 H          -1.1999    6.6468   -0.0001 H       1  LIG1        0.0657
     21 H          -1.2627    9.3778   -0.0004 H       1  LIG1        0.0656
     22 C           1.5483   10.4610   -0.0004 C.ar    1  LIG1        0.0821
     23 C           1.0116   11.7445   -0.0002 C.ar    1  LIG1       -0.0334
     24 C           2.0927   12.6590   -0.0002 C.ar    1  LIG1       -0.0437
     25 C           3.2618   11.9212   -0.0008 C.ar    1  LIG1        0.0023
     26 N           2.9220   10.5947   -0.0006 N.ar    1  LIG1       -0.3583
     27 H           3.5610    9.8159   -0.0007 H       1  LIG1        0.1654
     28 H           4.2952   12.2332   -0.0012 H       1  LIG1        0.0807
     29 H          -0.0419   11.9845   -0.0000 H       1  LIG1        0.0640
     30 H           2.0263   13.7373    0.0001 H       1  LIG1        0.0633
@<TRIPOS>BOND
     1    28    25    1
     2    25    26   ar
     3    25    24   ar
     4    27    26    1
     5    26    22   ar
     6    21    17    1
     7    22    18    1
     8    22    23   ar
     9    17    18   ar
    10    17    16   ar
    11    18    19   ar
    12    23    24   ar
    13    23    29    1
    14    19    15   ar
    15    24    30    1
    16    15    16   ar
    17    15    11    1
    18    16    20    1
    19    14    10    1
    20    11    10   ar
    21    11    12   ar
    22    10     9   ar
    23    12     8   ar
    24     8     9   ar
    25     8     3    1
    26     9    13    1
    27     6     3   ar
    28     6     4   ar
    29     3     5   ar
    30     4     1   ar
    31     5     2   ar
    32     1     2   ar
    33     1     7    1
