@<TRIPOS>MOLECULE
mol_data/opt/b3lyp/geoms/mol2/81212.out
 22 24 0 0 0
SMALL
GASTEIGER

@<TRIPOS>ATOM
      1 C           0.1876   -0.1688   -0.0000 C.ar    1  LIG1        0.1605
      2 N           1.5229   -0.0317    0.0000 N.ar    1  LIG1       -0.1338
      3 C           1.1058    2.2122   -0.0000 C.ar    1  LIG1        0.2381
      4 N          -0.7051    0.8286   -0.0001 N.ar    1  LIG1       -0.1338
      5 N           2.0016    1.1931    0.0000 N.ar    1  LIG1       -0.1226
      6 N          -0.2398    2.0639   -0.0001 N.ar    1  LIG1       -0.1226
      7 H          -0.2027   -1.1810   -0.0000 H       1  LIG1        0.1085
      8 C           1.6629    3.5434   -0.0000 C.ar    1  LIG1        0.1761
      9 C           2.9663    3.9859    0.0000 C.ar    1  LIG1       -0.0119
     10 C           2.9119    5.3988    0.0000 C.ar    1  LIG1       -0.0121
     11 C           1.5720    5.7352   -0.0001 C.ar    1  LIG1        0.1707
     12 O           0.8081    4.6121   -0.0001 O.2     1  LIG1       -0.4485
     13 H           3.8405    3.3529    0.0000 H       1  LIG1        0.0657
     14 H           3.7440    6.0871    0.0001 H       1  LIG1        0.0657
     15 C           0.8998    7.0056   -0.0001 C.ar    1  LIG1        0.1697
     16 C           1.3651    8.2987   -0.0001 C.ar    1  LIG1       -0.0128
     17 C           0.2129    9.1391   -0.0002 C.ar    1  LIG1       -0.0232
     18 C          -0.8662    8.3048   -0.0002 C.ar    1  LIG1        0.0927
     19 O          -0.4674    7.0050   -0.0002 O.2     1  LIG1       -0.4598
     20 H          -1.9324    8.4673   -0.0002 H       1  LIG1        0.1029
     21 H           2.4005    8.6068   -0.0001 H       1  LIG1        0.0656
     22 H           0.1911   10.2189   -0.0001 H       1  LIG1        0.0649
@<TRIPOS>BOND
     1    19    18   ar
     2    19    15   ar
     3    20    18    1
     4    18    17   ar
     5    17    22    1
     6    17    16   ar
     7    15    16   ar
     8    15    11    1
     9    12    11   ar
    10    12     8   ar
    11    16    21    1
    12     6     4   ar
    13     6     3   ar
    14     4     1   ar
    15    11    10   ar
    16     8     3    1
    17     8     9   ar
    18     1     7    1
    19     1     2   ar
    20     3     5   ar
    21     9    10   ar
    22     9    13    1
    23    10    14    1
    24     5     2   ar
