@<TRIPOS>MOLECULE
mol_data/opt/b3lyp/geoms/mol2/8128-12.out
 28 31 0 0 0
SMALL
GASTEIGER

@<TRIPOS>ATOM
      1 C           0.3946   -0.2903   -0.0000 C.ar    1  LIG1        0.1605
      2 N           1.7197   -0.0794    0.0000 N.ar    1  LIG1       -0.1338
      3 C           1.1762    2.1350   -0.0000 C.ar    1  LIG1        0.2381
      4 N          -0.5535    0.6552   -0.0001 N.ar    1  LIG1       -0.1338
      5 N           2.1275    1.1722    0.0000 N.ar    1  LIG1       -0.1226
      6 N          -0.1564    1.9146   -0.0001 N.ar    1  LIG1       -0.1226
      7 H           0.0612   -1.3229    0.0000 H       1  LIG1        0.1085
      8 C           1.6615    3.5011   -0.0000 C.ar    1  LIG1        0.1761
      9 C           2.9436    4.0051   -0.0000 C.ar    1  LIG1       -0.0119
     10 C           2.8145    5.4134    0.0000 C.ar    1  LIG1       -0.0119
     11 C           1.4612    5.6749   -0.0001 C.ar    1  LIG1        0.1761
     12 O           0.7537    4.5149   -0.0001 O.2     1  LIG1       -0.4483
     13 H           3.8479    3.4161    0.0000 H       1  LIG1        0.0657
     14 H           3.5964    6.1571    0.0001 H       1  LIG1        0.0657
     15 C           0.7354    6.9305   -0.0001 C.ar    1  LIG1        0.2381
     16 N          -0.6131    6.9113   -0.0001 N.ar    1  LIG1       -0.1219
     17 C          -0.4813    9.1886   -0.0001 C.ar    1  LIG1        0.2381
     18 N           1.4944    8.0522   -0.0000 N.ar    1  LIG1       -0.1219
     19 N          -1.2382    8.0683   -0.0001 N.ar    1  LIG1       -0.1219
     20 N           0.8758    9.2037   -0.0000 N.ar    1  LIG1       -0.1219
     21 C          -1.1329   10.4783   -0.0001 C.ar    1  LIG1        0.1751
     22 C          -0.6257   11.7558   -0.0002 C.ar    1  LIG1       -0.0126
     23 C          -1.7480   12.6302   -0.0002 C.ar    1  LIG1       -0.0232
     24 C          -2.8531   11.8253   -0.0001 C.ar    1  LIG1        0.0927
     25 O          -2.4995   10.5179   -0.0002 O.2     1  LIG1       -0.4597
     26 H          -3.9136   12.0241   -0.0001 H       1  LIG1        0.1029
     27 H           0.4224   12.0138   -0.0001 H       1  LIG1        0.0656
     28 H          -1.7394   13.7101   -0.0001 H       1  LIG1        0.0649
@<TRIPOS>BOND
     1    25    21   ar
     2    25    24   ar
     3    22    23   ar
     4    22    27    1
     5    22    21   ar
     6    23    24   ar
     7    23    28    1
     8    21    17    1
     9    24    26    1
    10    12    11   ar
    11    12     8   ar
    12    19    16   ar
    13    19    17   ar
    14    16    15   ar
    15    17    20   ar
    16     6     4   ar
    17     6     3   ar
    18     4     1   ar
    19    15    11    1
    20    15    18   ar
    21    11    10   ar
    22    20    18   ar
    23     8     3    1
    24     8     9   ar
    25     1     7    1
    26     1     2   ar
    27     3     5   ar
    28     9    10   ar
    29     9    13    1
    30    10    14    1
    31     5     2   ar
