@<TRIPOS>MOLECULE
mol_data/opt/b3lyp/geoms/mol2/8128-.out
 21 23 0 0 0
SMALL
GASTEIGER

@<TRIPOS>ATOM
      1 C           0.1760   -0.1591   -0.0000 C.ar    1  LIG1        0.1605
      2 N           1.5106   -0.0235   -0.0000 N.ar    1  LIG1       -0.1338
      3 C           1.0918    2.2174   -0.0000 C.ar    1  LIG1        0.2381
      4 N          -0.7183    0.8378   -0.0001 N.ar    1  LIG1       -0.1338
      5 N           1.9875    1.2039   -0.0000 N.ar    1  LIG1       -0.1226
      6 N          -0.2505    2.0725   -0.0000 N.ar    1  LIG1       -0.1226
      7 H          -0.2149   -1.1710   -0.0001 H       1  LIG1        0.1085
      8 C           1.6523    3.5559    0.0000 C.ar    1  LIG1        0.1761
      9 C           2.9600    3.9886    0.0000 C.ar    1  LIG1       -0.0119
     10 C           2.9070    5.4024    0.0000 C.ar    1  LIG1       -0.0119
     11 C           1.5706    5.7359   -0.0000 C.ar    1  LIG1        0.1761
     12 O           0.8012    4.6158    0.0000 O.2     1  LIG1       -0.4483
     13 H           3.8317    3.3516    0.0001 H       1  LIG1        0.0657
     14 H           3.7285    6.1028   -0.0000 H       1  LIG1        0.0657
     15 C           0.9114    7.0292   -0.0001 C.ar    1  LIG1        0.2381
     16 N          -0.4377    7.0730   -0.0000 N.ar    1  LIG1       -0.1226
     17 C          -0.1796    9.3306   -0.0001 C.ar    1  LIG1        0.1605
     18 N           1.7289    8.1064   -0.0001 N.ar    1  LIG1       -0.1226
     19 N          -0.9966    8.2696   -0.0001 N.ar    1  LIG1       -0.1338
     20 N           1.1616    9.2949   -0.0002 N.ar    1  LIG1       -0.1338
     21 H          -0.6446   10.3100   -0.0002 H       1  LIG1        0.1085
@<TRIPOS>BOND
     1    20    18   ar
     2    20    17   ar
     3    21    17    1
     4    18    15   ar
     5    17    19   ar
     6     7     1    1
     7    15    11    1
     8    15    16   ar
     9    19    16   ar
    10     4     1   ar
    11     4     6   ar
    12     1     2   ar
    13     6     3   ar
    14     2     5   ar
    15    11    12   ar
    16    11    10   ar
    17     3     5   ar
    18     3     8    1
    19    14    10    1
    20    12     8   ar
    21     8     9   ar
    22    10     9   ar
    23     9    13    1
