@<TRIPOS>MOLECULE
mol_data/opt/b3lyp/geoms/mol2/813-513.out
 31 34 0 0 0
SMALL
GASTEIGER

@<TRIPOS>ATOM
      1 C          -0.1079   -0.1037    0.0010 C.ar    1  LIG1        0.1605
      2 N           1.2303   -0.0723    0.0006 N.ar    1  LIG1       -0.1338
      3 C           0.9942    2.2045    0.0001 C.ar    1  LIG1        0.2193
      4 N          -0.9217    0.9661    0.0010 N.ar    1  LIG1       -0.1338
      5 N           1.8037    1.1140    0.0001 N.ar    1  LIG1       -0.1243
      6 N          -0.3640    2.1558    0.0005 N.ar    1  LIG1       -0.1243
      7 H          -0.5795   -1.0802    0.0014 H       1  LIG1        0.1085
      8 C           1.6318    3.4904   -0.0005 C.ar    1  LIG1        0.0880
      9 C           1.1123    4.7846   -0.0005 C.ar    1  LIG1       -0.0326
     10 C           2.1994    5.6716   -0.0010 C.ar    1  LIG1       -0.0352
     11 C           3.3803    4.9127   -0.0013 C.ar    1  LIG1        0.0537
     12 N           3.0069    3.5951   -0.0010 N.ar    1  LIG1       -0.3512
     13 H           3.6105    2.7864   -0.0009 H       1  LIG1        0.1660
     14 H           0.0607    5.0287   -0.0003 H       1  LIG1        0.0640
     15 H           2.1518    6.7511   -0.0012 H       1  LIG1        0.0639
     16 C           4.7617    5.3246   -0.0019 C.ar    1  LIG1        0.0361
     17 C           5.9079    4.5556   -0.0031 C.ar    1  LIG1       -0.0449
     18 C           7.1067    5.3071   -0.0034 C.ar    1  LIG1       -0.0449
     19 C           6.9074    6.6735   -0.0025 C.ar    1  LIG1        0.0361
     20 S           5.1872    7.0286   -0.0011 S.2     1  LIG1       -0.0853
     21 H           5.8960    3.4710   -0.0038 H       1  LIG1        0.0630
     22 H           8.0928    4.8586   -0.0044 H       1  LIG1        0.0630
     23 C           7.9009    7.7208   -0.0025 C.ar    1  LIG1        0.0531
     24 C           9.2913    7.6393   -0.0024 C.ar    1  LIG1       -0.0359
     25 C           9.8056    8.9581   -0.0028 C.ar    1  LIG1       -0.0438
     26 C           8.7285    9.8223   -0.0023 C.ar    1  LIG1        0.0022
     27 N           7.5843    9.0672   -0.0026 N.ar    1  LIG1       -0.3603
     28 H           6.6491    9.4426   -0.0030 H       1  LIG1        0.1653
     29 H           8.6845   10.9008   -0.0022 H       1  LIG1        0.0807
     30 H           9.8638    6.7230   -0.0021 H       1  LIG1        0.0639
     31 H          10.8470    9.2457   -0.0030 H       1  LIG1        0.0633
@<TRIPOS>BOND
     1    22    18    1
     2    21    17    1
     3    18    17   ar
     4    18    19   ar
     5    17    16   ar
     6    31    25    1
     7    28    27    1
     8    25    24   ar
     9    25    26   ar
    10    27    23   ar
    11    27    26   ar
    12    23    19    1
    13    23    24   ar
    14    19    20   ar
    15    24    30    1
    16    26    29    1
    17    16    11    1
    18    16    20   ar
    19    11    10   ar
    20    11    12   ar
    21    15    10    1
    22    10     9   ar
    23    12    13    1
    24    12     8   ar
    25     9     8   ar
    26     9    14    1
    27     8     3    1
    28     3     5   ar
    29     3     6   ar
    30     5     2   ar
    31     6     4   ar
    32     2     1   ar
    33     1     4   ar
    34     1     7    1
