@<TRIPOS>MOLECULE
mol_data/opt/b3lyp/geoms/mol2/813-5-.out
 23 25 0 0 0
SMALL
GASTEIGER

@<TRIPOS>ATOM
      1 C          -0.0098   -0.0424    0.0004 C.ar    1  LIG1        0.1605
      2 N           1.3283    0.0018    0.0003 N.ar    1  LIG1       -0.1338
      3 C           1.0698    2.2755   -0.0002 C.ar    1  LIG1        0.2193
      4 N          -0.8337    1.0189    0.0003 N.ar    1  LIG1       -0.1338
      5 N           1.8896    1.1938   -0.0001 N.ar    1  LIG1       -0.1243
      6 N          -0.2872    2.2144   -0.0000 N.ar    1  LIG1       -0.1243
      7 H          -0.4717   -1.0236    0.0007 H       1  LIG1        0.1085
      8 C           1.6956    3.5685   -0.0005 C.ar    1  LIG1        0.0880
      9 C           1.1633    4.8573   -0.0004 C.ar    1  LIG1       -0.0326
     10 C           2.2412    5.7555   -0.0008 C.ar    1  LIG1       -0.0352
     11 C           3.4285    5.0076   -0.0009 C.ar    1  LIG1        0.0536
     12 N           3.0690    3.6871   -0.0007 N.ar    1  LIG1       -0.3512
     13 H           3.6800    2.8822   -0.0005 H       1  LIG1        0.1660
     14 H           0.1094    5.0909   -0.0003 H       1  LIG1        0.0640
     15 H           2.1834    6.8341   -0.0011 H       1  LIG1        0.0639
     16 C           4.8021    5.4600   -0.0012 C.ar    1  LIG1        0.0355
     17 C           5.2632    6.7598   -0.0008 C.ar    1  LIG1       -0.0455
     18 C           6.6820    6.8575   -0.0013 C.ar    1  LIG1       -0.0541
     19 C           7.3025    5.6387   -0.0020 C.ar    1  LIG1       -0.0237
     20 S           6.1527    4.3394   -0.0021 S.2     1  LIG1       -0.0952
     21 H           8.3603    5.4178   -0.0025 H       1  LIG1        0.0693
     22 H           4.6012    7.6177   -0.0002 H       1  LIG1        0.0629
     23 H           7.2208    7.7979   -0.0011 H       1  LIG1        0.0623
@<TRIPOS>BOND
     1    21    19    1
     2    20    19   ar
     3    20    16   ar
     4    19    18   ar
     5    18    23    1
     6    18    17   ar
     7    16    11    1
     8    16    17   ar
     9    15    10    1
    10    11    10   ar
    11    11    12   ar
    12    10     9   ar
    13    17    22    1
    14    12     8   ar
    15    12    13    1
    16     8     9   ar
    17     8     3    1
    18     9    14    1
    19     3     5   ar
    20     3     6   ar
    21     5     2   ar
    22     6     4   ar
    23     2     1   ar
    24     4     1   ar
    25     1     7    1
