@<TRIPOS>MOLECULE
mol_data/opt/b3lyp/geoms/mol2/813-1313.out
 32 35 0 0 0
SMALL
GASTEIGER

@<TRIPOS>ATOM
      1 C          -0.0332   -0.1274    0.0006 C.ar    1  LIG1        0.1605
      2 N           1.3042   -0.0741    0.0007 N.ar    1  LIG1       -0.1338
      3 C           1.0318    2.1989   -0.0002 C.ar    1  LIG1        0.2193
      4 N          -0.8644    0.9294    0.0002 N.ar    1  LIG1       -0.1338
      5 N           1.8592    1.1207    0.0003 N.ar    1  LIG1       -0.1243
      6 N          -0.3263    2.1276   -0.0003 N.ar    1  LIG1       -0.1243
      7 H          -0.4889   -1.1113    0.0010 H       1  LIG1        0.1085
      8 C           1.6468    3.4939   -0.0006 C.ar    1  LIG1        0.0880
      9 C           1.1044    4.7779   -0.0010 C.ar    1  LIG1       -0.0326
     10 C           2.1751    5.6856   -0.0013 C.ar    1  LIG1       -0.0343
     11 C           3.3714    4.9480   -0.0010 C.ar    1  LIG1        0.0634
     12 N           3.0214    3.6260   -0.0006 N.ar    1  LIG1       -0.3505
     13 H           3.6437    2.8315   -0.0001 H       1  LIG1        0.1660
     14 H           0.0485    5.0025   -0.0011 H       1  LIG1        0.0640
     15 H           2.0941    6.7638   -0.0018 H       1  LIG1        0.0639
     16 C           4.7428    5.3814   -0.0012 C.ar    1  LIG1        0.0634
     17 C           5.9380    4.6685   -0.0015 C.ar    1  LIG1       -0.0343
     18 C           6.9993    5.5962   -0.0015 C.ar    1  LIG1       -0.0343
     19 C           6.4541    6.8786   -0.0013 C.ar    1  LIG1        0.0633
     20 N           5.0835    6.7232   -0.0010 N.ar    1  LIG1       -0.3519
     21 H           4.4045    7.4657   -0.0012 H       1  LIG1        0.1660
     22 H           6.0336    3.5915   -0.0016 H       1  LIG1        0.0639
     23 H           8.0550    5.3685   -0.0017 H       1  LIG1        0.0639
     24 C           7.1229    8.1599   -0.0012 C.ar    1  LIG1        0.0629
     25 C           8.4829    8.4470   -0.0019 C.ar    1  LIG1       -0.0350
     26 C           8.6349    9.8565   -0.0012 C.ar    1  LIG1       -0.0438
     27 C           7.3723   10.4093   -0.0008 C.ar    1  LIG1        0.0022
     28 N           6.4632    9.3772   -0.0004 N.ar    1  LIG1       -0.3595
     29 H           5.4660    9.5106   -0.0000 H       1  LIG1        0.1654
     30 H           7.0457   11.4381   -0.0004 H       1  LIG1        0.0807
     31 H           9.2744    7.7116   -0.0025 H       1  LIG1        0.0639
     32 H           9.5656   10.4056   -0.0013 H       1  LIG1        0.0633
@<TRIPOS>BOND
     1    31    25    1
     2    25    26   ar
     3    25    24   ar
     4    15    10    1
     5    23    18    1
     6    22    17    1
     7    18    17   ar
     8    18    19   ar
     9    17    16   ar
    10    10    11   ar
    11    10     9   ar
    12    32    26    1
    13    19    24    1
    14    19    20   ar
    15    26    27   ar
    16    24    28   ar
    17    16    20   ar
    18    16    11    1
    19    21    20    1
    20    14     9    1
    21    11    12   ar
    22     9     8   ar
    23    27    28   ar
    24    27    30    1
    25     8    12   ar
    26     8     3    1
    27    12    13    1
    28    28    29    1
    29     6     3   ar
    30     6     4   ar
    31     3     5   ar
    32     4     1   ar
    33     5     2   ar
    34     1     2   ar
    35     1     7    1
