@<TRIPOS>MOLECULE
mol_data/opt/b3lyp/geoms/mol2/813-85.out
 29 32 0 0 0
SMALL
GASTEIGER

@<TRIPOS>ATOM
      1 C          -0.0224   -0.0453    0.0005 C.ar    1  LIG1        0.1605
      2 N           1.3163   -0.0085   -0.0001 N.ar    1  LIG1       -0.1338
      3 C           1.0686    2.2630   -0.0001 C.ar    1  LIG1        0.2193
      4 N          -0.8409    1.0187    0.0008 N.ar    1  LIG1       -0.1338
      5 N           1.8832    1.1816   -0.0004 N.ar    1  LIG1       -0.1243
      6 N          -0.2851    2.2118    0.0005 N.ar    1  LIG1       -0.1243
      7 H          -0.4889   -1.0247    0.0007 H       1  LIG1        0.1085
      8 C           1.6985    3.5622   -0.0003 C.ar    1  LIG1        0.0880
      9 C           1.1482    4.8477    0.0002 C.ar    1  LIG1       -0.0325
     10 C           2.2153    5.7586   -0.0006 C.ar    1  LIG1       -0.0325
     11 C           3.3987    5.0127   -0.0010 C.ar    1  LIG1        0.0880
     12 N           3.0625    3.6874   -0.0009 N.ar    1  LIG1       -0.3491
     13 H           3.7193    2.9184   -0.0012 H       1  LIG1        0.1661
     14 H           0.0915    5.0666    0.0008 H       1  LIG1        0.0640
     15 H           2.1652    6.8368   -0.0006 H       1  LIG1        0.0640
     16 C           4.7820    5.4325   -0.0016 C.ar    1  LIG1        0.2194
     17 N           5.7248    4.4618   -0.0020 N.ar    1  LIG1       -0.1237
     18 C           7.2548    6.1510   -0.0028 C.ar    1  LIG1        0.2099
     19 N           5.0493    6.7584   -0.0017 N.ar    1  LIG1       -0.1237
     20 N           6.9844    4.8239   -0.0026 N.ar    1  LIG1       -0.1246
     21 N           6.3073    7.1203   -0.0023 N.ar    1  LIG1       -0.1246
     22 C           8.6429    6.5626   -0.0035 C.ar    1  LIG1        0.0598
     23 C           9.7616    5.7553   -0.0041 C.ar    1  LIG1       -0.0438
     24 C          10.9726    6.4940   -0.0047 C.ar    1  LIG1       -0.0540
     25 C          10.7608    7.8500   -0.0044 C.ar    1  LIG1       -0.0236
     26 S           9.0803    8.2560   -0.0036 S.2     1  LIG1       -0.0934
     27 H          11.5017    8.6380   -0.0047 H       1  LIG1        0.0693
     28 H           9.6924    4.6746   -0.0042 H       1  LIG1        0.0630
     29 H          11.9576    6.0425   -0.0053 H       1  LIG1        0.0623
@<TRIPOS>BOND
     1    29    24    1
     2    27    25    1
     3    24    25   ar
     4    24    23   ar
     5    25    26   ar
     6    28    23    1
     7    23    22   ar
     8    26    22   ar
     9    22    18    1
    10    18    20   ar
    11    18    21   ar
    12    20    17   ar
    13    21    19   ar
    14    17    16   ar
    15    19    16   ar
    16    16    11    1
    17    13    12    1
    18    11    12   ar
    19    11    10   ar
    20    12     8   ar
    21    15    10    1
    22    10     9   ar
    23     5     2   ar
    24     5     3   ar
    25     8     3    1
    26     8     9   ar
    27     2     1   ar
    28     3     6   ar
    29     9    14    1
    30     1     7    1
    31     1     4   ar
    32     6     4   ar
