@<TRIPOS>MOLECULE
mol_data/opt/b3lyp/geoms/mol2/813-.out
 16 17 0 0 0
SMALL
GASTEIGER

@<TRIPOS>ATOM
      1 C           0.0227   -0.0129    0.0002 C.ar    1  LIG1        0.1605
      2 N           1.3608    0.0216    0.0001 N.ar    1  LIG1       -0.1338
      3 C           1.1191    2.2976   -0.0002 C.ar    1  LIG1        0.2193
      4 N          -0.7931    1.0534    0.0001 N.ar    1  LIG1       -0.1338
      5 N           1.9300    1.2102   -0.0001 N.ar    1  LIG1       -0.1243
      6 N          -0.2372    2.2456   -0.0001 N.ar    1  LIG1       -0.1243
      7 H          -0.4460   -0.9910    0.0004 H       1  LIG1        0.1085
      8 C           1.7552    3.5883   -0.0003 C.ar    1  LIG1        0.0875
      9 C           1.2337    4.8793   -0.0002 C.ar    1  LIG1       -0.0333
     10 C           2.3261    5.7725   -0.0006 C.ar    1  LIG1       -0.0437
     11 C           3.4865    5.0095   -0.0005 C.ar    1  LIG1        0.0023
     12 N           3.1308    3.6958   -0.0005 N.ar    1  LIG1       -0.3582
     13 H           3.7411    2.8917   -0.0004 H       1  LIG1        0.1654
     14 H           4.5238    5.3091   -0.0006 H       1  LIG1        0.0807
     15 H           0.1818    5.1209   -0.0001 H       1  LIG1        0.0640
     16 H           2.2814    6.8520   -0.0008 H       1  LIG1        0.0633
@<TRIPOS>BOND
     1    16    10    1
     2    10    11   ar
     3    10     9   ar
     4    14    11    1
     5    12    11   ar
     6    12    13    1
     7    12     8   ar
     8     8     9   ar
     9     8     3    1
    10     9    15    1
    11     3     5   ar
    12     3     6   ar
    13     5     2   ar
    14     6     4   ar
    15     2     1   ar
    16     4     1   ar
    17     1     7    1
