@<TRIPOS>MOLECULE
mol_data/opt/b3lyp/geoms/mol2/813-8-5-.out
 29 32 0 0 0
SMALL
GASTEIGER

@<TRIPOS>ATOM
      1 C           0.0211   -0.0632    0.0004 C.ar    1  LIG1        0.1605
      2 N           1.3592   -0.0097   -0.0001 N.ar    1  LIG1       -0.1338
      3 C           1.0832    2.2585   -0.0002 C.ar    1  LIG1        0.2193
      4 N          -0.8107    0.9905    0.0005 N.ar    1  LIG1       -0.1338
      5 N           1.9112    1.1874   -0.0003 N.ar    1  LIG1       -0.1243
      6 N          -0.2697    2.1905    0.0003 N.ar    1  LIG1       -0.1243
      7 H          -0.4331   -1.0483    0.0006 H       1  LIG1        0.1085
      8 C           1.6976    3.5651   -0.0004 C.ar    1  LIG1        0.0880
      9 C           1.1326    4.8443   -0.0000 C.ar    1  LIG1       -0.0325
     10 C           2.1891    5.7674   -0.0007 C.ar    1  LIG1       -0.0325
     11 C           3.3811    5.0351   -0.0009 C.ar    1  LIG1        0.0880
     12 N           3.0600    3.7061   -0.0008 N.ar    1  LIG1       -0.3491
     13 H           3.7256    2.9445   -0.0009 H       1  LIG1        0.1661
     14 H           0.0734    5.0511    0.0004 H       1  LIG1        0.0640
     15 H           2.1264    6.8449   -0.0008 H       1  LIG1        0.0640
     16 C           4.7596    5.4700   -0.0014 C.ar    1  LIG1        0.2194
     17 N           5.0111    6.8008   -0.0015 N.ar    1  LIG1       -0.1237
     18 C           7.2221    6.2229   -0.0023 C.ar    1  LIG1        0.2099
     19 N           5.7128    4.5120   -0.0016 N.ar    1  LIG1       -0.1237
     20 N           6.2626    7.1834   -0.0020 N.ar    1  LIG1       -0.1246
     21 N           6.9668    4.8951   -0.0021 N.ar    1  LIG1       -0.1246
     22 C           8.6059    6.6491   -0.0029 C.ar    1  LIG1        0.0598
     23 C           9.0890    7.9412   -0.0031 C.ar    1  LIG1       -0.0438
     24 C          10.5065    7.9982   -0.0036 C.ar    1  LIG1       -0.0540
     25 C          11.0823    6.7525   -0.0039 C.ar    1  LIG1       -0.0236
     26 S           9.9090    5.4826   -0.0033 S.2     1  LIG1       -0.0934
     27 H          12.1358    6.5077   -0.0043 H       1  LIG1        0.0693
     28 H           8.4319    8.8020   -0.0028 H       1  LIG1        0.0630
     29 H          11.0756    8.9202   -0.0039 H       1  LIG1        0.0623
@<TRIPOS>BOND
     1    27    25    1
     2    25    24   ar
     3    25    26   ar
     4    29    24    1
     5    24    23   ar
     6    26    22   ar
     7    23    22   ar
     8    23    28    1
     9    22    18    1
    10    18    21   ar
    11    18    20   ar
    12    21    19   ar
    13    20    17   ar
    14    19    16   ar
    15    17    16   ar
    16    16    11    1
    17    13    12    1
    18    11    12   ar
    19    11    10   ar
    20    15    10    1
    21    12     8   ar
    22    10     9   ar
    23     8     3    1
    24     8     9   ar
    25     5     3   ar
    26     5     2   ar
    27     3     6   ar
    28     2     1   ar
    29     9    14    1
    30     6     4   ar
    31     1     4   ar
    32     1     7    1
