@<TRIPOS>MOLECULE
mol_data/opt/b3lyp/geoms/mol2/813-12-.out
 23 25 0 0 0
SMALL
GASTEIGER

@<TRIPOS>ATOM
      1 C          -0.0123   -0.0286    0.0004 C.ar    1  LIG1        0.1605
      2 N           1.3260    0.0053    0.0001 N.ar    1  LIG1       -0.1338
      3 C           1.0857    2.2808   -0.0002 C.ar    1  LIG1        0.2193
      4 N          -0.8280    1.0390    0.0005 N.ar    1  LIG1       -0.1338
      5 N           1.8973    1.1927   -0.0002 N.ar    1  LIG1       -0.1243
      6 N          -0.2717    2.2301    0.0002 N.ar    1  LIG1       -0.1243
      7 H          -0.4819   -1.0062    0.0007 H       1  LIG1        0.1085
      8 C           1.7193    3.5703   -0.0004 C.ar    1  LIG1        0.0880
      9 C           1.1895    4.8613   -0.0002 C.ar    1  LIG1       -0.0325
     10 C           2.2684    5.7596   -0.0007 C.ar    1  LIG1       -0.0327
     11 C           3.4485    5.0043   -0.0009 C.ar    1  LIG1        0.0826
     12 N           3.0923    3.6856   -0.0007 N.ar    1  LIG1       -0.3492
     13 H           3.7235    2.8972   -0.0008 H       1  LIG1        0.1661
     14 H           0.1358    5.0960    0.0000 H       1  LIG1        0.0640
     15 H           2.2152    6.8385   -0.0009 H       1  LIG1        0.0640
     16 C           4.8279    5.4149   -0.0014 C.ar    1  LIG1        0.1509
     17 C           5.4580    6.6332   -0.0015 C.ar    1  LIG1       -0.0144
     18 C           6.8614    6.3634   -0.0019 C.ar    1  LIG1       -0.0233
     19 C           6.9929    5.0082   -0.0020 C.ar    1  LIG1        0.0926
     20 O           5.7650    4.4118   -0.0016 O.2     1  LIG1       -0.4615
     21 H           7.8394    4.3403   -0.0023 H       1  LIG1        0.1029
     22 H           4.9775    7.6004   -0.0013 H       1  LIG1        0.0656
     23 H           7.6647    7.0855   -0.0021 H       1  LIG1        0.0649
@<TRIPOS>BOND
     1    21    19    1
     2    23    18    1
     3    19    18   ar
     4    19    20   ar
     5    18    17   ar
     6    20    16   ar
     7    17    16   ar
     8    17    22    1
     9    16    11    1
    10    11    10   ar
    11    11    12   ar
    12    15    10    1
    13    13    12    1
    14    10     9   ar
    15    12     8   ar
    16     8     9   ar
    17     8     3    1
    18     9    14    1
    19     5     3   ar
    20     5     2   ar
    21     3     6   ar
    22     2     1   ar
    23     6     4   ar
    24     1     4   ar
    25     1     7    1
