@<TRIPOS>MOLECULE
mol_data/opt/b3lyp/geoms/mol2/813-4-4-.out
 36 39 0 0 0
SMALL
GASTEIGER

@<TRIPOS>ATOM
      1 C          -0.2071   -0.0699    0.0030 C.ar    1  LIG1        0.1605
      2 N           1.1315   -0.0493    0.0018 N.ar    1  LIG1       -0.1338
      3 C           0.9135    2.2290    0.0011 C.ar    1  LIG1        0.2193
      4 N          -1.0120    1.0058    0.0033 N.ar    1  LIG1       -0.1338
      5 N           1.7137    1.1325    0.0008 N.ar    1  LIG1       -0.1243
      6 N          -0.4443    2.1915    0.0023 N.ar    1  LIG1       -0.1243
      7 H          -0.6863   -1.0428    0.0039 H       1  LIG1        0.1085
      8 C           1.5619    3.5107   -0.0000 C.ar    1  LIG1        0.0879
      9 C           1.0531    4.8089    0.0001 C.ar    1  LIG1       -0.0326
     10 C           2.1498    5.6842   -0.0013 C.ar    1  LIG1       -0.0357
     11 C           3.3251    4.9174   -0.0022 C.ar    1  LIG1        0.0470
     12 N           2.9357    3.6049   -0.0014 N.ar    1  LIG1       -0.3516
     13 H           3.5279    2.7880   -0.0014 H       1  LIG1        0.1660
     14 H           0.0039    5.0633    0.0010 H       1  LIG1        0.0640
     15 H           2.1034    6.7631   -0.0017 H       1  LIG1        0.0639
     16 C           5.0683    6.6962   -0.0041 C.ar    1  LIG1       -0.0521
     17 C           6.3931    7.1077   -0.0056 C.ar    1  LIG1       -0.0534
     18 C           4.7242    5.3327   -0.0037 C.ar    1  LIG1       -0.0017
     19 C           7.4619    6.1897   -0.0066 C.ar    1  LIG1       -0.0178
     20 H           6.5874    8.1735   -0.0059 H       1  LIG1        0.0624
     21 C           5.7843    4.4095   -0.0047 C.ar    1  LIG1       -0.0521
     22 C           7.1085    4.8271   -0.0062 C.ar    1  LIG1       -0.0534
     23 H           5.5877    3.3412   -0.0045 H       1  LIG1        0.0624
     24 H           4.2869    7.4489   -0.0034 H       1  LIG1        0.0624
     25 H           7.8753    4.0620   -0.0069 H       1  LIG1        0.0624
     26 C           9.2286    8.0007   -0.0080 C.ar    1  LIG1       -0.0540
     27 C          10.5573    8.4179   -0.0094 C.ar    1  LIG1       -0.0612
     28 C           8.8839    6.6353   -0.0082 C.ar    1  LIG1       -0.0179
     29 C          11.5922    7.4831   -0.0110 C.ar    1  LIG1       -0.0617
     30 H          10.7820    9.4806   -0.0092 H       1  LIG1        0.0618
     31 C           9.9457    5.7102   -0.0098 C.ar    1  LIG1       -0.0540
     32 C          11.2750    6.1249   -0.0113 C.ar    1  LIG1       -0.0612
     33 H           9.7446    4.6453   -0.0101 H       1  LIG1        0.0624
     34 H          12.6283    7.8075   -0.0122 H       1  LIG1        0.0618
     35 H           8.4561    8.7611   -0.0066 H       1  LIG1        0.0624
     36 H          12.0656    5.3802   -0.0126 H       1  LIG1        0.0618
@<TRIPOS>BOND
     1    36    32    1
     2    34    29    1
     3    32    29   ar
     4    32    31   ar
     5    29    27   ar
     6    33    31    1
     7    31    28   ar
     8    27    30    1
     9    27    26   ar
    10    28    26   ar
    11    28    19    1
    12    26    35    1
    13    25    22    1
    14    19    22   ar
    15    19    17   ar
    16    22    21   ar
    17    20    17    1
    18    17    16   ar
    19    21    23    1
    20    21    18   ar
    21    16    18   ar
    22    16    24    1
    23    18    11    1
    24    11    12   ar
    25    11    10   ar
    26    15    10    1
    27    13    12    1
    28    12     8   ar
    29    10     9   ar
    30     8     9   ar
    31     8     3    1
    32     9    14    1
    33     5     3   ar
    34     5     2   ar
    35     3     6   ar
    36     2     1   ar
    37     6     4   ar
    38     1     4   ar
    39     1     7    1
