@<TRIPOS>MOLECULE
mol_data/opt/b3lyp/geoms/mol2/813-13.out
 24 26 0 0 0
SMALL
GASTEIGER

@<TRIPOS>ATOM
      1 C          -0.0149   -0.0439    0.0006 C.ar    1  LIG1        0.1605
      2 N           1.3231   -0.0033    0.0007 N.ar    1  LIG1       -0.1338
      3 C           1.0718    2.2727   -0.0001 C.ar    1  LIG1        0.2193
      4 N          -0.8362    1.0200    0.0002 N.ar    1  LIG1       -0.1338
      5 N           1.8885    1.1867    0.0004 N.ar    1  LIG1       -0.1243
      6 N          -0.2866    2.2135   -0.0002 N.ar    1  LIG1       -0.1243
      7 H          -0.4795   -1.0235    0.0009 H       1  LIG1        0.1085
      8 C           1.6990    3.5624   -0.0005 C.ar    1  LIG1        0.0880
      9 C           1.1686    4.8512   -0.0009 C.ar    1  LIG1       -0.0326
     10 C           2.2487    5.7489   -0.0010 C.ar    1  LIG1       -0.0343
     11 C           3.4358    4.9999   -0.0009 C.ar    1  LIG1        0.0634
     12 N           3.0745    3.6821   -0.0007 N.ar    1  LIG1       -0.3505
     13 H           3.6906    2.8827   -0.0003 H       1  LIG1        0.1660
     14 H           0.1148    5.0863   -0.0011 H       1  LIG1        0.0640
     15 H           2.1796    6.8277   -0.0012 H       1  LIG1        0.0639
     16 C           4.8162    5.4190   -0.0011 C.ar    1  LIG1        0.0629
     17 C           6.0001    4.6884   -0.0017 C.ar    1  LIG1       -0.0350
     18 C           7.0785    5.6077   -0.0020 C.ar    1  LIG1       -0.0438
     19 C           6.5374    6.8778   -0.0009 C.ar    1  LIG1        0.0022
     20 N           5.1724    6.7535   -0.0006 N.ar    1  LIG1       -0.3595
     21 H           4.5206    7.5210   -0.0002 H       1  LIG1        0.1654
     22 H           7.0093    7.8488   -0.0005 H       1  LIG1        0.0807
     23 H           6.0797    3.6102   -0.0021 H       1  LIG1        0.0639
     24 H           8.1323    5.3679   -0.0026 H       1  LIG1        0.0633
@<TRIPOS>BOND
     1    24    18    1
     2    23    17    1
     3    18    17   ar
     4    18    19   ar
     5    17    16   ar
     6    15    10    1
     7    16    11    1
     8    16    20   ar
     9    14     9    1
    10    10     9   ar
    11    10    11   ar
    12     9     8   ar
    13    11    12   ar
    14    19    20   ar
    15    19    22    1
    16    12     8   ar
    17    12    13    1
    18    20    21    1
    19     8     3    1
    20     6     3   ar
    21     6     4   ar
    22     3     5   ar
    23     4     1   ar
    24     5     2   ar
    25     1     2   ar
    26     1     7    1
