@<TRIPOS>MOLECULE
mol_data/opt/b3lyp/geoms/mol2/813-5.out
 23 25 0 0 0
SMALL
GASTEIGER

@<TRIPOS>ATOM
      1 C          -0.0482   -0.0408    0.0006 C.ar    1  LIG1        0.1605
      2 N           1.2901   -0.0124    0.0002 N.ar    1  LIG1       -0.1338
      3 C           1.0585    2.2644   -0.0001 C.ar    1  LIG1        0.2193
      4 N          -0.8597    1.0302    0.0007 N.ar    1  LIG1       -0.1338
      5 N           1.8656    1.1731   -0.0001 N.ar    1  LIG1       -0.1243
      6 N          -0.2990    2.2190    0.0003 N.ar    1  LIG1       -0.1243
      7 H          -0.5217   -1.0166    0.0009 H       1  LIG1        0.1085
      8 C           1.6992    3.5503   -0.0004 C.ar    1  LIG1        0.0880
      9 C           1.1821    4.8451   -0.0003 C.ar    1  LIG1       -0.0326
     10 C           2.2721    5.7295   -0.0009 C.ar    1  LIG1       -0.0352
     11 C           3.4493    4.9679   -0.0011 C.ar    1  LIG1        0.0536
     12 N           3.0737    3.6516   -0.0008 N.ar    1  LIG1       -0.3512
     13 H           3.6757    2.8416   -0.0007 H       1  LIG1        0.1660
     14 H           0.1312    5.0916    0.0001 H       1  LIG1        0.0640
     15 H           2.2276    6.8093   -0.0011 H       1  LIG1        0.0639
     16 C           4.8365    5.3768   -0.0016 C.ar    1  LIG1        0.0355
     17 C           5.9732    4.5951   -0.0028 C.ar    1  LIG1       -0.0455
     18 C           7.1795    5.3496   -0.0029 C.ar    1  LIG1       -0.0541
     19 C           6.9614    6.6998   -0.0019 C.ar    1  LIG1       -0.0237
     20 S           5.2685    7.0753   -0.0008 S.2     1  LIG1       -0.0952
     21 H           7.6884    7.4995   -0.0018 H       1  LIG1        0.0693
     22 H           5.9539    3.5106   -0.0036 H       1  LIG1        0.0629
     23 H           8.1676    4.9047   -0.0038 H       1  LIG1        0.0623
@<TRIPOS>BOND
     1    23    18    1
     2    22    17    1
     3    18    17   ar
     4    18    19   ar
     5    17    16   ar
     6    19    21    1
     7    19    20   ar
     8    16    11    1
     9    16    20   ar
    10    15    10    1
    11    11    10   ar
    12    11    12   ar
    13    10     9   ar
    14    12    13    1
    15    12     8   ar
    16     8     9   ar
    17     8     3    1
    18     9    14    1
    19     5     3   ar
    20     5     2   ar
    21     3     6   ar
    22     2     1   ar
    23     6     4   ar
    24     1     4   ar
    25     1     7    1
