@<TRIPOS>MOLECULE
mol_data/opt/b3lyp/geoms/mol2/813-8-.out
 22 24 0 0 0
SMALL
GASTEIGER

@<TRIPOS>ATOM
      1 C           0.0140   -0.0282    0.0004 C.ar    1  LIG1        0.1605
      2 N           1.3528    0.0082    0.0002 N.ar    1  LIG1       -0.1338
      3 C           1.1044    2.2793   -0.0001 C.ar    1  LIG1        0.2193
      4 N          -0.8050    1.0353    0.0003 N.ar    1  LIG1       -0.1338
      5 N           1.9188    1.1987   -0.0000 N.ar    1  LIG1       -0.1243
      6 N          -0.2486    2.2285    0.0001 N.ar    1  LIG1       -0.1243
      7 H          -0.4522   -1.0074    0.0005 H       1  LIG1        0.1085
      8 C           1.7355    3.5791   -0.0004 C.ar    1  LIG1        0.0880
      9 C           1.1851    4.8649   -0.0004 C.ar    1  LIG1       -0.0325
     10 C           2.2527    5.7752   -0.0005 C.ar    1  LIG1       -0.0325
     11 C           3.4352    5.0283   -0.0009 C.ar    1  LIG1        0.0880
     12 N           3.0981    3.7027   -0.0008 N.ar    1  LIG1       -0.3491
     13 H           3.7543    2.9329   -0.0008 H       1  LIG1        0.1661
     14 H           0.1280    5.0844   -0.0001 H       1  LIG1        0.0640
     15 H           2.2032    6.8536   -0.0005 H       1  LIG1        0.0640
     16 C           4.8191    5.4463   -0.0014 C.ar    1  LIG1        0.2193
     17 N           5.0828    6.7740   -0.0014 N.ar    1  LIG1       -0.1243
     18 C           7.2699    6.1583   -0.0022 C.ar    1  LIG1        0.1605
     19 N           5.7571    4.4714   -0.0017 N.ar    1  LIG1       -0.1243
     20 N           6.3491    7.1349   -0.0018 N.ar    1  LIG1       -0.1338
     21 N           7.0223    4.8422   -0.0021 N.ar    1  LIG1       -0.1338
     22 H           8.3102    6.4640   -0.0026 H       1  LIG1        0.1085
@<TRIPOS>BOND
     1    22    18    1
     2    18    21   ar
     3    18    20   ar
     4    21    19   ar
     5    20    17   ar
     6    19    16   ar
     7    16    17   ar
     8    16    11    1
     9    11    12   ar
    10    11    10   ar
    11    13    12    1
    12    12     8   ar
    13    10    15    1
    14    10     9   ar
    15     8     9   ar
    16     8     3    1
    17     9    14    1
    18     3     5   ar
    19     3     6   ar
    20     5     2   ar
    21     6     4   ar
    22     2     1   ar
    23     4     1   ar
    24     1     7    1
