@<TRIPOS>MOLECULE
mol_data/opt/b3lyp/geoms/mol2/813-12.out
 23 25 0 0 0
SMALL
GASTEIGER

@<TRIPOS>ATOM
      1 C           0.0093   -0.0393    0.0005 C.ar    1  LIG1        0.1605
      2 N           1.3472    0.0047    0.0004 N.ar    1  LIG1       -0.1338
      3 C           1.0892    2.2792   -0.0000 C.ar    1  LIG1        0.2193
      4 N          -0.8148    1.0221    0.0004 N.ar    1  LIG1       -0.1338
      5 N           1.9087    1.1968    0.0002 N.ar    1  LIG1       -0.1243
      6 N          -0.2681    2.2173    0.0001 N.ar    1  LIG1       -0.1243
      7 H          -0.4525   -1.0201    0.0008 H       1  LIG1        0.1085
      8 C           1.7145    3.5722   -0.0004 C.ar    1  LIG1        0.0880
      9 C           1.1822    4.8613   -0.0007 C.ar    1  LIG1       -0.0325
     10 C           2.2600    5.7615   -0.0006 C.ar    1  LIG1       -0.0327
     11 C           3.4419    5.0105   -0.0010 C.ar    1  LIG1        0.0826
     12 N           3.0887    3.6894   -0.0008 N.ar    1  LIG1       -0.3492
     13 H           3.7023    2.8879   -0.0007 H       1  LIG1        0.1661
     14 H           0.1277    5.0940   -0.0007 H       1  LIG1        0.0640
     15 H           2.2143    6.8398   -0.0005 H       1  LIG1        0.0640
     16 C           4.8132    5.4474   -0.0014 C.ar    1  LIG1        0.1509
     17 C           6.0229    4.7973   -0.0020 C.ar    1  LIG1       -0.0144
     18 C           7.0287    5.8120   -0.0022 C.ar    1  LIG1       -0.0233
     19 C           6.3678    7.0027   -0.0017 C.ar    1  LIG1        0.0926
     20 O           5.0202    6.8013   -0.0011 O.2     1  LIG1       -0.4615
     21 H           6.6885    8.0328   -0.0016 H       1  LIG1        0.1029
     22 H           6.1823    3.7286   -0.0023 H       1  LIG1        0.0656
     23 H           8.1000    5.6702   -0.0027 H       1  LIG1        0.0649
@<TRIPOS>BOND
     1    23    18    1
     2    22    17    1
     3    18    17   ar
     4    18    19   ar
     5    17    16   ar
     6    19    21    1
     7    19    20   ar
     8    16    20   ar
     9    16    11    1
    10    11    12   ar
    11    11    10   ar
    12    12    13    1
    13    12     8   ar
    14     9    14    1
    15     9    10   ar
    16     9     8   ar
    17    10    15    1
    18     8     3    1
    19     3     6   ar
    20     3     5   ar
    21     6     4   ar
    22     5     2   ar
    23     4     1   ar
    24     2     1   ar
    25     1     7    1
