@<TRIPOS>MOLECULE
mol_data/opt/b3lyp/geoms/mol2/813.out
 16 17 0 0 0
SMALL
GASTEIGER

@<TRIPOS>ATOM
      1 C          -0.0239    0.0104   -0.0002 C.ar    1  LIG1        0.1605
      2 N           1.3187   -0.0027   -0.0001 N.ar    1  LIG1       -0.1338
      3 C           1.1670    2.2736    0.0001 C.ar    1  LIG1        0.2193
      4 N          -0.7989    1.1018   -0.0002 N.ar    1  LIG1       -0.1338
      5 N           1.9390    1.1573    0.0001 N.ar    1  LIG1       -0.1243
      6 N          -0.1894    2.2702   -0.0001 N.ar    1  LIG1       -0.1243
      7 H          -0.5253   -0.9513   -0.0004 H       1  LIG1        0.1085
      8 C           1.8182    3.5568    0.0003 C.ar    1  LIG1        0.0875
      9 C           3.1640    3.9140    0.0003 C.ar    1  LIG1       -0.0333
     10 C           3.2233    5.3238    0.0007 C.ar    1  LIG1       -0.0437
     11 C           1.9168    5.7945    0.0004 C.ar    1  LIG1        0.0023
     12 N           1.0791    4.7220    0.0004 N.ar    1  LIG1       -0.3582
     13 H           0.0696    4.7279    0.0002 H       1  LIG1        0.1654
     14 H           1.5343    6.8042    0.0005 H       1  LIG1        0.0807
     15 H           3.9883    3.2172    0.0003 H       1  LIG1        0.0640
     16 H           4.1139    5.9355    0.0009 H       1  LIG1        0.0633
@<TRIPOS>BOND
     1     7     1    1
     2     1     4   ar
     3     1     2   ar
     4     4     6   ar
     5     2     5   ar
     6     6     3   ar
     7     5     3   ar
     8     3     8    1
     9    13    12    1
    10    15     9    1
    11     8     9   ar
    12     8    12   ar
    13     9    10   ar
    14    12    11   ar
    15    11    14    1
    16    11    10   ar
    17    10    16    1
