@<TRIPOS>MOLECULE
mol_data/opt/b3lyp/geoms/mol2/81313.out
 24 26 0 0 0
SMALL
GASTEIGER

@<TRIPOS>ATOM
      1 C          -0.0035   -0.0579   -0.0008 C.ar    1  LIG1        0.1605
      2 N           1.3410   -0.0707   -0.0006 N.ar    1  LIG1       -0.1338
      3 C           1.1902    2.2061    0.0000 C.ar    1  LIG1        0.2193
      4 N          -0.7779    1.0339   -0.0007 N.ar    1  LIG1       -0.1338
      5 N           1.9626    1.0863   -0.0001 N.ar    1  LIG1       -0.1243
      6 N          -0.1695    2.2022   -0.0003 N.ar    1  LIG1       -0.1243
      7 H          -0.5044   -1.0197   -0.0012 H       1  LIG1        0.1085
      8 C           1.8343    3.4855    0.0005 C.ar    1  LIG1        0.0880
      9 C           3.1769    3.8610    0.0007 C.ar    1  LIG1       -0.0326
     10 C           3.2216    5.2631    0.0011 C.ar    1  LIG1       -0.0343
     11 C           1.9026    5.7424    0.0011 C.ar    1  LIG1        0.0634
     12 N           1.0823    4.6460    0.0007 N.ar    1  LIG1       -0.3505
     13 H           0.0740    4.6119    0.0001 H       1  LIG1        0.1660
     14 H           4.0103    3.1747    0.0007 H       1  LIG1        0.0640
     15 H           4.1066    5.8823    0.0015 H       1  LIG1        0.0639
     16 C           1.4292    7.1054    0.0014 C.ar    1  LIG1        0.0629
     17 C           2.1512    8.2940    0.0009 C.ar    1  LIG1       -0.0350
     18 C           1.2276    9.3674    0.0017 C.ar    1  LIG1       -0.0438
     19 C          -0.0400    8.8218    0.0023 C.ar    1  LIG1        0.0022
     20 N           0.0899    7.4554    0.0023 N.ar    1  LIG1       -0.3595
     21 H          -0.6875    6.8158    0.0029 H       1  LIG1        0.1654
     22 H          -1.0136    9.2880    0.0029 H       1  LIG1        0.0807
     23 H           3.2291    8.3681    0.0001 H       1  LIG1        0.0639
     24 H           1.4619   10.4221    0.0017 H       1  LIG1        0.0633
@<TRIPOS>BOND
     1     7     1    1
     2     1     4   ar
     3     1     2   ar
     4     4     6   ar
     5     2     5   ar
     6     6     3   ar
     7     5     3   ar
     8     3     8    1
     9    23    17    1
    10    13    12    1
    11     8    12   ar
    12     8     9   ar
    13    12    11   ar
    14    14     9    1
    15     9    10   ar
    16    17    16   ar
    17    17    18   ar
    18    11    10   ar
    19    11    16    1
    20    10    15    1
    21    16    20   ar
    22    24    18    1
    23    18    19   ar
    24    19    20   ar
    25    19    22    1
    26    20    21    1
