@<TRIPOS>MOLECULE
mol_data/opt/b3lyp/geoms/mol2/81312.out
 23 25 0 0 0
SMALL
GASTEIGER

@<TRIPOS>ATOM
      1 C          -0.0156   -0.0272   -0.0005 C.ar    1  LIG1        0.1605
      2 N           1.3278   -0.0396   -0.0003 N.ar    1  LIG1       -0.1338
      3 C           1.1736    2.2370    0.0000 C.ar    1  LIG1        0.2193
      4 N          -0.7914    1.0639   -0.0004 N.ar    1  LIG1       -0.1338
      5 N           1.9469    1.1201   -0.0000 N.ar    1  LIG1       -0.1243
      6 N          -0.1840    2.2332   -0.0002 N.ar    1  LIG1       -0.1243
      7 H          -0.5160   -0.9889   -0.0007 H       1  LIG1        0.1085
      8 C           1.8253    3.5173    0.0004 C.ar    1  LIG1        0.0880
      9 C           3.1762    3.8676    0.0007 C.ar    1  LIG1       -0.0325
     10 C           3.2480    5.2697    0.0006 C.ar    1  LIG1       -0.0327
     11 C           1.9357    5.7611    0.0008 C.ar    1  LIG1        0.0826
     12 N           1.0943    4.6852    0.0007 N.ar    1  LIG1       -0.3492
     13 H           0.0849    4.7177    0.0006 H       1  LIG1        0.1661
     14 H           3.9963    3.1650    0.0007 H       1  LIG1        0.0640
     15 H           4.1433    5.8743    0.0006 H       1  LIG1        0.0640
     16 C           1.4371    7.1112    0.0011 C.ar    1  LIG1        0.1509
     17 C           2.0333    8.3463    0.0011 C.ar    1  LIG1       -0.0144
     18 C           0.9755    9.3071    0.0015 C.ar    1  LIG1       -0.0233
     19 C          -0.1874    8.5989    0.0017 C.ar    1  LIG1        0.0926
     20 O           0.0721    7.2588    0.0016 O.2     1  LIG1       -0.4615
     21 H          -1.2302    8.8756    0.0019 H       1  LIG1        0.1029
     22 H           3.0949    8.5426    0.0008 H       1  LIG1        0.0656
     23 H           1.0714   10.3833    0.0015 H       1  LIG1        0.0649
@<TRIPOS>BOND
     1     7     1    1
     2     1     4   ar
     3     1     2   ar
     4     4     6   ar
     5     2     5   ar
     6     6     3   ar
     7     5     3   ar
     8     3     8    1
     9     8     9   ar
    10     8    12   ar
    11    15    10    1
    12    10     9   ar
    13    10    11   ar
    14    13    12    1
    15     9    14    1
    16    12    11   ar
    17    22    17    1
    18    11    16    1
    19    17    16   ar
    20    17    18   ar
    21    16    20   ar
    22    18    23    1
    23    18    19   ar
    24    20    19   ar
    25    19    21    1
