@<TRIPOS>MOLECULE
mol_data/opt/b3lyp/geoms/mol2/8131313-.out
 32 35 0 0 0
SMALL
GASTEIGER

@<TRIPOS>ATOM
      1 C           0.0840   -0.1442   -0.0014 C.ar    1  LIG1        0.1605
      2 N           1.4288   -0.1425   -0.0010 N.ar    1  LIG1       -0.1338
      3 C           1.2534    2.1327   -0.0003 C.ar    1  LIG1        0.2193
      4 N          -0.7020    0.9393   -0.0014 N.ar    1  LIG1       -0.1338
      5 N           2.0379    1.0208   -0.0004 N.ar    1  LIG1       -0.1243
      6 N          -0.1066    2.1142   -0.0008 N.ar    1  LIG1       -0.1243
      7 H          -0.4065   -1.1113   -0.0019 H       1  LIG1        0.1085
      8 C           1.8842    3.4179    0.0004 C.ar    1  LIG1        0.0880
      9 C           3.2240    3.8055    0.0010 C.ar    1  LIG1       -0.0326
     10 C           3.2573    5.2069    0.0015 C.ar    1  LIG1       -0.0343
     11 C           1.9330    5.6760    0.0012 C.ar    1  LIG1        0.0634
     12 N           1.1220    4.5718    0.0006 N.ar    1  LIG1       -0.3505
     13 H           0.1140    4.5292   -0.0000 H       1  LIG1        0.1660
     14 H           4.0630    3.1260    0.0010 H       1  LIG1        0.0640
     15 H           4.1371    5.8334    0.0020 H       1  LIG1        0.0639
     16 C           1.4504    7.0318    0.0016 C.ar    1  LIG1        0.0634
     17 C           2.1640    8.2267    0.0014 C.ar    1  LIG1       -0.0343
     18 C           1.2369    9.2895    0.0020 C.ar    1  LIG1       -0.0343
     19 C          -0.0448    8.7427    0.0024 C.ar    1  LIG1        0.0633
     20 N           0.1087    7.3738    0.0022 N.ar    1  LIG1       -0.3519
     21 H          -0.6653    6.7303    0.0022 H       1  LIG1        0.1660
     22 H           3.2410    8.3105    0.0010 H       1  LIG1        0.0639
     23 H           1.4788   10.3432    0.0022 H       1  LIG1        0.0639
     24 C          -1.3496    9.3608    0.0031 C.ar    1  LIG1        0.0629
     25 C          -2.6289    8.8149    0.0050 C.ar    1  LIG1       -0.0350
     26 C          -3.5600    9.8856    0.0051 C.ar    1  LIG1       -0.0438
     27 C          -2.8375   11.0601    0.0026 C.ar    1  LIG1        0.0022
     28 N          -1.5044   10.7327    0.0017 N.ar    1  LIG1       -0.3595
     29 H          -0.7451   11.3938    0.0002 H       1  LIG1        0.1654
     30 H          -3.1587   12.0906    0.0016 H       1  LIG1        0.0807
     31 H          -2.8722    7.7610    0.0066 H       1  LIG1        0.0639
     32 H          -4.6374    9.8043    0.0065 H       1  LIG1        0.0633
@<TRIPOS>BOND
     1     7     1    1
     2     1     4   ar
     3     1     2   ar
     4     4     6   ar
     5     2     5   ar
     6     6     3   ar
     7     5     3   ar
     8     3     8    1
     9    13    12    1
    10    29    28    1
    11     8    12   ar
    12     8     9   ar
    13    12    11   ar
    14    22    17    1
    15     9    14    1
    16     9    10   ar
    17    11    10   ar
    18    11    16    1
    19    17    16   ar
    20    17    18   ar
    21    10    15    1
    22    16    20   ar
    23    30    27    1
    24    28    27   ar
    25    28    24   ar
    26    18    23    1
    27    18    19   ar
    28    20    21    1
    29    20    19   ar
    30    19    24    1
    31    27    26   ar
    32    24    25   ar
    33    25    26   ar
    34    25    31    1
    35    26    32    1
