@<TRIPOS>MOLECULE
mol_data/opt/b3lyp/geoms/mol2/81313-.out
 24 26 0 0 0
SMALL
GASTEIGER

@<TRIPOS>ATOM
      1 C          -0.0262   -0.0383   -0.0006 C.ar    1  LIG1        0.1605
      2 N           1.3177   -0.0572   -0.0001 N.ar    1  LIG1       -0.1338
      3 C           1.1755    2.2208    0.0001 C.ar    1  LIG1        0.2193
      4 N          -0.7962    1.0567   -0.0008 N.ar    1  LIG1       -0.1338
      5 N           1.9430    1.0984    0.0003 N.ar    1  LIG1       -0.1243
      6 N          -0.1832    2.2228   -0.0005 N.ar    1  LIG1       -0.1243
      7 H          -0.5313   -0.9976   -0.0009 H       1  LIG1        0.1085
      8 C           1.8312    3.4963    0.0005 C.ar    1  LIG1        0.0880
      9 C           3.1806    3.8450    0.0011 C.ar    1  LIG1       -0.0326
     10 C           3.2509    5.2477    0.0010 C.ar    1  LIG1       -0.0343
     11 C           1.9396    5.7482    0.0008 C.ar    1  LIG1        0.0634
     12 N           1.1019    4.6686    0.0005 N.ar    1  LIG1       -0.3505
     13 H           0.0927    4.6821   -0.0000 H       1  LIG1        0.1660
     14 H           4.0008    3.1429    0.0013 H       1  LIG1        0.0640
     15 H           4.1555    5.8395    0.0013 H       1  LIG1        0.0639
     16 C           1.4468    7.1041    0.0009 C.ar    1  LIG1        0.0629
     17 C           0.1522    7.6131    0.0015 C.ar    1  LIG1       -0.0350
     18 C           0.2408    9.0274    0.0016 C.ar    1  LIG1       -0.0438
     19 C           1.5816    9.3563    0.0003 C.ar    1  LIG1        0.0022
     20 N           2.3009    8.1896    0.0001 N.ar    1  LIG1       -0.3595
     21 H           3.3060    8.1284   -0.0005 H       1  LIG1        0.1654
     22 H           2.0755   10.3163   -0.0003 H       1  LIG1        0.0807
     23 H          -0.7583    7.0301    0.0022 H       1  LIG1        0.0639
     24 H          -0.5832    9.7267    0.0022 H       1  LIG1        0.0633
@<TRIPOS>BOND
     1     7     1    1
     2     4     1   ar
     3     4     6   ar
     4     1     2   ar
     5     6     3   ar
     6    21    20    1
     7    22    19    1
     8     2     5   ar
     9    13    12    1
    10     3     5   ar
    11     3     8    1
    12    20    19   ar
    13    20    16   ar
    14    19    18   ar
    15     8    12   ar
    16     8     9   ar
    17    12    11   ar
    18    11    16    1
    19    11    10   ar
    20    16    17   ar
    21    10     9   ar
    22    10    15    1
    23     9    14    1
    24    17    18   ar
    25    17    23    1
    26    18    24    1
