@<TRIPOS>MOLECULE
mol_data/opt/b3lyp/geoms/mol2/81312-13-.out
 31 34 0 0 0
SMALL
GASTEIGER

@<TRIPOS>ATOM
      1 C          -0.1022   -0.0638   -0.0006 C.ar    1  LIG1        0.1605
      2 N           1.2414   -0.1044   -0.0004 N.ar    1  LIG1       -0.1338
      3 C           1.1358    2.1745    0.0000 C.ar    1  LIG1        0.2193
      4 N          -0.8543    1.0435   -0.0006 N.ar    1  LIG1       -0.1338
      5 N           1.8855    1.0408   -0.0001 N.ar    1  LIG1       -0.1243
      6 N          -0.2223    2.1996   -0.0002 N.ar    1  LIG1       -0.1243
      7 H          -0.6229   -1.0151   -0.0010 H       1  LIG1        0.1085
      8 C           1.8110    3.4408    0.0005 C.ar    1  LIG1        0.0880
      9 C           3.1658    3.7721    0.0008 C.ar    1  LIG1       -0.0325
     10 C           3.2571    5.1726    0.0011 C.ar    1  LIG1       -0.0327
     11 C           1.9524    5.6867    0.0010 C.ar    1  LIG1        0.0826
     12 N           1.0949    4.6203    0.0007 N.ar    1  LIG1       -0.3492
     13 H           0.0858    4.6420    0.0004 H       1  LIG1        0.1661
     14 H           3.9756    3.0581    0.0008 H       1  LIG1        0.0640
     15 H           4.1570    5.7687    0.0014 H       1  LIG1        0.0640
     16 C           1.4952    7.0465    0.0013 C.ar    1  LIG1        0.1518
     17 C           0.2558    7.6404    0.0016 C.ar    1  LIG1       -0.0137
     18 C           0.4677    9.0458    0.0017 C.ar    1  LIG1       -0.0137
     19 C           1.8285    9.2401    0.0016 C.ar    1  LIG1        0.1518
     20 O           2.4637    8.0231    0.0013 O.2     1  LIG1       -0.4519
     21 H          -0.6993    7.1343    0.0017 H       1  LIG1        0.0656
     22 H          -0.2860    9.8188    0.0019 H       1  LIG1        0.0656
     23 C           2.6716   10.4040    0.0016 C.ar    1  LIG1        0.0821
     24 C           2.3668   11.7610    0.0019 C.ar    1  LIG1       -0.0334
     25 C           3.5914   12.4733    0.0021 C.ar    1  LIG1       -0.0437
     26 C           4.6137   11.5434    0.0013 C.ar    1  LIG1        0.0023
     27 N           4.0473   10.2961    0.0013 N.ar    1  LIG1       -0.3583
     28 H           4.5401    9.4175    0.0012 H       1  LIG1        0.1654
     29 H           5.6857   11.6700    0.0010 H       1  LIG1        0.0807
     30 H           1.3713   12.1811    0.0022 H       1  LIG1        0.0640
     31 H           3.7138   13.5468    0.0025 H       1  LIG1        0.0633
@<TRIPOS>BOND
     1     7     1    1
     2     1     4   ar
     3     1     2   ar
     4     4     6   ar
     5     2     5   ar
     6     6     3   ar
     7     5     3   ar
     8     3     8    1
     9    13    12    1
    10     8    12   ar
    11     8     9   ar
    12    12    11   ar
    13    14     9    1
    14     9    10   ar
    15    29    26    1
    16    11    10   ar
    17    11    16    1
    18    10    15    1
    19    28    27    1
    20    26    27   ar
    21    26    25   ar
    22    16    20   ar
    23    16    17   ar
    24    20    19   ar
    25    27    23   ar
    26    19    23    1
    27    19    18   ar
    28    17    21    1
    29    17    18   ar
    30    23    24   ar
    31    18    22    1
    32    24    25   ar
    33    24    30    1
    34    25    31    1
