@<TRIPOS>MOLECULE
mol_data/opt/b3lyp/geoms/mol2/81312-.out
 23 25 0 0 0
SMALL
GASTEIGER

@<TRIPOS>ATOM
      1 C          -0.0370   -0.0161   -0.0005 C.ar    1  LIG1        0.1605
      2 N           1.3065   -0.0388   -0.0003 N.ar    1  LIG1       -0.1338
      3 C           1.1703    2.2387    0.0000 C.ar    1  LIG1        0.2193
      4 N          -0.8044    1.0807   -0.0005 N.ar    1  LIG1       -0.1338
      5 N           1.9349    1.1156    0.0000 N.ar    1  LIG1       -0.1243
      6 N          -0.1874    2.2450   -0.0003 N.ar    1  LIG1       -0.1243
      7 H          -0.5447   -0.9740   -0.0008 H       1  LIG1        0.1085
      8 C           1.8297    3.5146    0.0004 C.ar    1  LIG1        0.0880
      9 C           3.1805    3.8620    0.0008 C.ar    1  LIG1       -0.0325
     10 C           3.2542    5.2643    0.0006 C.ar    1  LIG1       -0.0327
     11 C           1.9444    5.7595    0.0008 C.ar    1  LIG1        0.0826
     12 N           1.0992    4.6844    0.0007 N.ar    1  LIG1       -0.3492
     13 H           0.0898    4.6946    0.0004 H       1  LIG1        0.1661
     14 H           3.9992    3.1578    0.0009 H       1  LIG1        0.0640
     15 H           4.1444    5.8746    0.0006 H       1  LIG1        0.0640
     16 C           1.4714    7.1187    0.0011 C.ar    1  LIG1        0.1509
     17 C           0.2256    7.6967    0.0017 C.ar    1  LIG1       -0.0144
     18 C           0.4342    9.1101    0.0017 C.ar    1  LIG1       -0.0233
     19 C           1.7833    9.2955    0.0013 C.ar    1  LIG1        0.0926
     20 O           2.4305    8.0965    0.0008 O.2     1  LIG1       -0.4615
     21 H           2.4152   10.1700    0.0011 H       1  LIG1        0.1029
     22 H          -0.7251    7.1832    0.0020 H       1  LIG1        0.0656
     23 H          -0.3219    9.8822    0.0021 H       1  LIG1        0.0649
@<TRIPOS>BOND
     1     7     1    1
     2     4     1   ar
     3     4     6   ar
     4     1     2   ar
     5     2     5   ar
     6     6     3   ar
     7     3     5   ar
     8     3     8    1
     9     8    12   ar
    10     8     9   ar
    11    13    12    1
    12    15    10    1
    13    10     9   ar
    14    10    11   ar
    15    12    11   ar
    16    20    16   ar
    17    20    19   ar
    18     9    14    1
    19    11    16    1
    20    21    19    1
    21    16    17   ar
    22    19    18   ar
    23    17    18   ar
    24    17    22    1
    25    18    23    1
