@<TRIPOS>MOLECULE
mol_data/opt/b3lyp/geoms/mol2/8131312.out
 31 34 0 0 0
SMALL
GASTEIGER

@<TRIPOS>ATOM
      1 C           0.0731   -0.1271   -0.0011 C.ar    1  LIG1        0.1605
      2 N           1.4177   -0.1251   -0.0008 N.ar    1  LIG1       -0.1338
      3 C           1.2413    2.1497   -0.0001 C.ar    1  LIG1        0.2193
      4 N          -0.7133    0.9561   -0.0009 N.ar    1  LIG1       -0.1338
      5 N           2.0262    1.0388   -0.0002 N.ar    1  LIG1       -0.1243
      6 N          -0.1181    2.1311   -0.0004 N.ar    1  LIG1       -0.1243
      7 H          -0.4172   -1.0943   -0.0015 H       1  LIG1        0.1085
      8 C           1.8725    3.4358    0.0004 C.ar    1  LIG1        0.0880
      9 C           3.2128    3.8214    0.0007 C.ar    1  LIG1       -0.0326
     10 C           3.2475    5.2231    0.0012 C.ar    1  LIG1       -0.0343
     11 C           1.9239    5.6924    0.0011 C.ar    1  LIG1        0.0634
     12 N           1.1114    4.5895    0.0006 N.ar    1  LIG1       -0.3505
     13 H           0.1031    4.5502    0.0001 H       1  LIG1        0.1660
     14 H           4.0509    3.1408    0.0007 H       1  LIG1        0.0640
     15 H           4.1278    5.8489    0.0016 H       1  LIG1        0.0639
     16 C           1.4407    7.0487    0.0014 C.ar    1  LIG1        0.0634
     17 C           2.1564    8.2457    0.0011 C.ar    1  LIG1       -0.0343
     18 C           1.2327    9.3095    0.0017 C.ar    1  LIG1       -0.0328
     19 C          -0.0452    8.7571    0.0024 C.ar    1  LIG1        0.0826
     20 N           0.1020    7.3881    0.0023 N.ar    1  LIG1       -0.3506
     21 H          -0.6857    6.7598    0.0028 H       1  LIG1        0.1660
     22 H           3.2335    8.3275    0.0004 H       1  LIG1        0.0639
     23 H           1.4610   10.3654    0.0017 H       1  LIG1        0.0640
     24 C          -1.3505    9.3624    0.0032 C.ar    1  LIG1        0.1509
     25 C          -1.8080   10.6551    0.0032 C.ar    1  LIG1       -0.0144
     26 C          -3.2362   10.5806    0.0042 C.ar    1  LIG1       -0.0233
     27 C          -3.5553    9.2580    0.0050 C.ar    1  LIG1        0.0926
     28 O          -2.4185    8.4969    0.0043 O.2     1  LIG1       -0.4615
     29 H          -4.4856    8.7129    0.0059 H       1  LIG1        0.1029
     30 H          -1.1996   11.5473    0.0025 H       1  LIG1        0.0656
     31 H          -3.9316   11.4072    0.0045 H       1  LIG1        0.0649
@<TRIPOS>BOND
     1     7     1    1
     2     1     4   ar
     3     1     2   ar
     4     4     6   ar
     5     2     5   ar
     6     6     3   ar
     7     5     3   ar
     8     3     8    1
     9    13    12    1
    10    22    17    1
    11     8    12   ar
    12     8     9   ar
    13    12    11   ar
    14    14     9    1
    15     9    10   ar
    16    17    16   ar
    17    17    18   ar
    18    11    10   ar
    19    11    16    1
    20    10    15    1
    21    16    20   ar
    22    23    18    1
    23    18    19   ar
    24    20    19   ar
    25    20    21    1
    26    19    24    1
    27    30    25    1
    28    25    24   ar
    29    25    26   ar
    30    24    28   ar
    31    26    31    1
    32    26    27   ar
    33    28    27   ar
    34    27    29    1
