@<TRIPOS>MOLECULE
mol_data/opt/b3lyp/geoms/mol2/813138.out
 30 33 0 0 0
SMALL
GASTEIGER

@<TRIPOS>ATOM
      1 C           0.0571   -0.1151   -0.0009 C.ar    1  LIG1        0.1605
      2 N           1.4009   -0.1120   -0.0006 N.ar    1  LIG1       -0.1338
      3 C           1.2210    2.1606   -0.0000 C.ar    1  LIG1        0.2193
      4 N          -0.7310    0.9672   -0.0008 N.ar    1  LIG1       -0.1338
      5 N           2.0075    1.0543   -0.0002 N.ar    1  LIG1       -0.1243
      6 N          -0.1354    2.1424   -0.0003 N.ar    1  LIG1       -0.1243
      7 H          -0.4324   -1.0827   -0.0012 H       1  LIG1        0.1085
      8 C           1.8534    3.4513    0.0005 C.ar    1  LIG1        0.0880
      9 C           3.1944    3.8317    0.0007 C.ar    1  LIG1       -0.0326
     10 C           3.2311    5.2342    0.0011 C.ar    1  LIG1       -0.0343
     11 C           1.9095    5.7029    0.0010 C.ar    1  LIG1        0.0634
     12 N           1.0935    4.6016    0.0007 N.ar    1  LIG1       -0.3505
     13 H           0.0845    4.5650    0.0002 H       1  LIG1        0.1660
     14 H           4.0309    3.1493    0.0006 H       1  LIG1        0.0640
     15 H           4.1125    5.8585    0.0015 H       1  LIG1        0.0639
     16 C           1.4298    7.0618    0.0014 C.ar    1  LIG1        0.0634
     17 C           2.1639    8.2563    0.0010 C.ar    1  LIG1       -0.0343
     18 C           1.2547    9.3250    0.0016 C.ar    1  LIG1       -0.0326
     19 C          -0.0277    8.7789    0.0023 C.ar    1  LIG1        0.0880
     20 N           0.1031    7.4066    0.0022 N.ar    1  LIG1       -0.3505
     21 H          -0.7052    6.8014    0.0028 H       1  LIG1        0.1660
     22 H           3.2419    8.3240    0.0003 H       1  LIG1        0.0639
     23 H           1.4773   10.3813    0.0015 H       1  LIG1        0.0640
     24 C          -1.3306    9.3866    0.0032 C.ar    1  LIG1        0.2193
     25 N          -1.4129   10.7414    0.0032 N.ar    1  LIG1       -0.1243
     26 C          -3.6650   10.4270    0.0049 C.ar    1  LIG1        0.1605
     27 N          -2.3976    8.5492    0.0039 N.ar    1  LIG1       -0.1243
     28 N          -2.6172   11.2684    0.0041 N.ar    1  LIG1       -0.1338
     29 N          -3.5992    9.0899    0.0047 N.ar    1  LIG1       -0.1338
     30 H          -4.6535   10.8728    0.0054 H       1  LIG1        0.1085
@<TRIPOS>BOND
     1     7     1    1
     2     1     4   ar
     3     1     2   ar
     4     4     6   ar
     5     2     5   ar
     6     6     3   ar
     7     5     3   ar
     8     3     8    1
     9    13    12    1
    10    22    17    1
    11     8     9   ar
    12     8    12   ar
    13    14     9    1
    14     9    10   ar
    15    12    11   ar
    16    17    16   ar
    17    17    18   ar
    18    11    10   ar
    19    11    16    1
    20    10    15    1
    21    16    20   ar
    22    23    18    1
    23    18    19   ar
    24    20    19   ar
    25    20    21    1
    26    19    24    1
    27    24    25   ar
    28    24    27   ar
    29    25    28   ar
    30    27    29   ar
    31    28    26   ar
    32    29    26   ar
    33    26    30    1
