@<TRIPOS>MOLECULE
mol_data/opt/b3lyp/geoms/mol2/81313-5.out
 31 34 0 0 0
SMALL
GASTEIGER

@<TRIPOS>ATOM
      1 C          -0.0739   -0.0988   -0.0006 C.ar    1  LIG1        0.1605
      2 N           1.2700   -0.1285   -0.0001 N.ar    1  LIG1       -0.1338
      3 C           1.1454    2.1496    0.0002 C.ar    1  LIG1        0.2193
      4 N          -0.8350    1.0023   -0.0007 N.ar    1  LIG1       -0.1338
      5 N           1.9045    1.0220    0.0003 N.ar    1  LIG1       -0.1243
      6 N          -0.2127    2.1637   -0.0003 N.ar    1  LIG1       -0.1243
      7 H          -0.5868   -1.0543   -0.0009 H       1  LIG1        0.1085
      8 C           1.8120    3.4205    0.0005 C.ar    1  LIG1        0.0880
      9 C           3.1644    3.7576    0.0009 C.ar    1  LIG1       -0.0326
     10 C           3.2467    5.1591    0.0013 C.ar    1  LIG1       -0.0343
     11 C           1.9392    5.6708    0.0009 C.ar    1  LIG1        0.0634
     12 N           1.0918    4.5974    0.0004 N.ar    1  LIG1       -0.3505
     13 H           0.0826    4.6171   -0.0001 H       1  LIG1        0.1660
     14 H           3.9782    3.0485    0.0010 H       1  LIG1        0.0640
     15 H           4.1565    5.7432    0.0019 H       1  LIG1        0.0639
     16 C           1.4604    7.0287    0.0010 C.ar    1  LIG1        0.0633
     17 C           0.1677    7.5488    0.0015 C.ar    1  LIG1       -0.0344
     18 C           0.2670    8.9546    0.0012 C.ar    1  LIG1       -0.0353
     19 C           1.6193    9.2911    0.0008 C.ar    1  LIG1        0.0536
     20 N           2.3223    8.1055    0.0006 N.ar    1  LIG1       -0.3526
     21 H           3.3263    8.0328    0.0004 H       1  LIG1        0.1660
     22 H          -0.7481    6.9744    0.0019 H       1  LIG1        0.0639
     23 H          -0.5540    9.6573    0.0013 H       1  LIG1        0.0639
     24 C           2.2809   10.5766    0.0004 C.ar    1  LIG1        0.0355
     25 C           3.6304   10.8640   -0.0006 C.ar    1  LIG1       -0.0455
     26 C           3.9150   12.2592   -0.0006 C.ar    1  LIG1       -0.0541
     27 C           2.7879   13.0322    0.0004 C.ar    1  LIG1       -0.0237
     28 S           1.3481   12.0614    0.0013 S.2     1  LIG1       -0.0952
     29 H           2.7088   14.1100    0.0007 H       1  LIG1        0.0693
     30 H           4.4059   10.1053   -0.0014 H       1  LIG1        0.0629
     31 H           4.9188   12.6681   -0.0013 H       1  LIG1        0.0623
@<TRIPOS>BOND
     1    30    25    1
     2    31    26    1
     3     7     1    1
     4     4     1   ar
     5     4     6   ar
     6     1     2   ar
     7    25    26   ar
     8    25    24   ar
     9    26    27   ar
    10     6     3   ar
    11     2     5   ar
    12    13    12    1
    13     3     5   ar
    14     3     8    1
    15    21    20    1
    16    24    19    1
    17    24    28   ar
    18    27    29    1
    19    27    28   ar
    20    12     8   ar
    21    12    11   ar
    22     8     9   ar
    23    20    19   ar
    24    20    16   ar
    25    19    18   ar
    26    11    16    1
    27    11    10   ar
    28     9    14    1
    29     9    10   ar
    30    16    17   ar
    31    18    23    1
    32    18    17   ar
    33    10    15    1
    34    17    22    1
