@<TRIPOS>MOLECULE
mol_data/opt/b3lyp/geoms/mol2/8134-.out
 26 28 0 0 0
SMALL
GASTEIGER

@<TRIPOS>ATOM
      1 C          -0.0259   -0.0607   -0.0004 C.ar    1  LIG1        0.1605
      2 N           1.3174   -0.0821    0.0002 N.ar    1  LIG1       -0.1338
      3 C           1.1796    2.1950    0.0002 C.ar    1  LIG1        0.2193
      4 N          -0.7940    1.0358   -0.0008 N.ar    1  LIG1       -0.1338
      5 N           1.9452    1.0730    0.0006 N.ar    1  LIG1       -0.1243
      6 N          -0.1777    2.2003   -0.0005 N.ar    1  LIG1       -0.1243
      7 H          -0.5330   -1.0193   -0.0007 H       1  LIG1        0.1085
      8 C           1.8375    3.4722    0.0004 C.ar    1  LIG1        0.0879
      9 C           3.1867    3.8221    0.0009 C.ar    1  LIG1       -0.0326
     10 C           3.2512    5.2243    0.0010 C.ar    1  LIG1       -0.0357
     11 C           1.9412    5.7251    0.0004 C.ar    1  LIG1        0.0470
     12 N           1.1073    4.6399    0.0001 N.ar    1  LIG1       -0.3516
     13 H           0.0983    4.6392   -0.0005 H       1  LIG1        0.1660
     14 H           4.0086    3.1222    0.0013 H       1  LIG1        0.0640
     15 H           4.1521    5.8196    0.0015 H       1  LIG1        0.0639
     16 C           0.0816    7.4106    0.0003 C.ar    1  LIG1       -0.0526
     17 C          -0.3593    8.7316    0.0001 C.ar    1  LIG1       -0.0611
     18 C           1.4552    7.1054    0.0002 C.ar    1  LIG1       -0.0017
     19 C           0.5594    9.7818   -0.0001 C.ar    1  LIG1       -0.0617
     20 H          -1.4252    8.9390    0.0001 H       1  LIG1        0.0618
     21 C           2.3690    8.1760    0.0000 C.ar    1  LIG1       -0.0526
     22 C           1.9262    9.4948   -0.0001 C.ar    1  LIG1       -0.0611
     23 H           3.4346    7.9730   -0.0000 H       1  LIG1        0.0624
     24 H           0.2151   10.8113   -0.0003 H       1  LIG1        0.0618
     25 H          -0.6604    6.6175    0.0005 H       1  LIG1        0.0624
     26 H           2.6521   10.3025   -0.0003 H       1  LIG1        0.0618
@<TRIPOS>BOND
     1     4     6   ar
     2     4     1   ar
     3     7     1    1
     4    13    12    1
     5     6     3   ar
     6     1     2   ar
     7    26    22    1
     8    24    19    1
     9    22    19   ar
    10    22    21   ar
    11    19    17   ar
    12    23    21    1
    13    21    18   ar
    14    17    20    1
    15    17    16   ar
    16    12    11   ar
    17    12     8   ar
    18     3     8    1
    19     3     5   ar
    20     2     5   ar
    21    18    16   ar
    22    18    11    1
    23    16    25    1
    24    11    10   ar
    25     8     9   ar
    26     9    10   ar
    27     9    14    1
    28    10    15    1
