@<TRIPOS>MOLECULE
mol_data/opt/b3lyp/geoms/mol2/8134.out
 26 28 0 0 0
SMALL
GASTEIGER

@<TRIPOS>ATOM
      1 C           0.0049   -0.0777   -0.0012 C.ar    1  LIG1        0.1605
      2 N           1.3483   -0.0875   -0.0010 N.ar    1  LIG1       -0.1338
      3 C           1.1906    2.1889   -0.0001 C.ar    1  LIG1        0.2193
      4 N          -0.7731    1.0118   -0.0009 N.ar    1  LIG1       -0.1338
      5 N           1.9657    1.0733   -0.0005 N.ar    1  LIG1       -0.1243
      6 N          -0.1669    2.1817   -0.0004 N.ar    1  LIG1       -0.1243
      7 H          -0.4938   -1.0406   -0.0017 H       1  LIG1        0.1085
      8 C           1.8371    3.4715    0.0006 C.ar    1  LIG1        0.0879
      9 C           3.1833    3.8330    0.0009 C.ar    1  LIG1       -0.0326
     10 C           3.2357    5.2357    0.0012 C.ar    1  LIG1       -0.0357
     11 C           1.9215    5.7256    0.0015 C.ar    1  LIG1        0.0470
     12 N           1.0972    4.6332    0.0011 N.ar    1  LIG1       -0.3516
     13 H           0.0883    4.6242    0.0009 H       1  LIG1        0.1660
     14 H           4.0116    3.1398    0.0007 H       1  LIG1        0.0640
     15 H           4.1315    5.8386    0.0015 H       1  LIG1        0.0639
     16 C           2.3281    8.1803    0.0021 C.ar    1  LIG1       -0.0526
     17 C           1.8739    9.4952    0.0027 C.ar    1  LIG1       -0.0611
     18 C           1.4237    7.1017    0.0022 C.ar    1  LIG1       -0.0017
     19 C           0.5049    9.7703    0.0034 C.ar    1  LIG1       -0.0617
     20 H           2.5929   10.3092    0.0026 H       1  LIG1        0.0618
     21 C           0.0474    7.3952    0.0029 C.ar    1  LIG1       -0.0526
     22 C          -0.4047    8.7122    0.0035 C.ar    1  LIG1       -0.0611
     23 H          -0.6878    6.5958    0.0031 H       1  LIG1        0.0624
     24 H           0.1515   10.7967    0.0039 H       1  LIG1        0.0618
     25 H           3.3952    7.9866    0.0015 H       1  LIG1        0.0624
     26 H          -1.4723    8.9106    0.0040 H       1  LIG1        0.0618
@<TRIPOS>BOND
     1     7     1    1
     2     1     2   ar
     3     1     4   ar
     4     2     5   ar
     5     4     6   ar
     6     5     3   ar
     7     6     3   ar
     8     3     8    1
     9     8     9   ar
    10     8    12   ar
    11    14     9    1
    12    13    12    1
    13     9    10   ar
    14    12    11   ar
    15    10    15    1
    16    10    11   ar
    17    25    16    1
    18    11    18    1
    19    16    18   ar
    20    16    17   ar
    21    18    21   ar
    22    20    17    1
    23    17    19   ar
    24    21    23    1
    25    21    22   ar
    26    19    22   ar
    27    19    24    1
    28    22    26    1
