@<TRIPOS>MOLECULE
mol_data/opt/b3lyp/geoms/mol2/8135-4.out
 33 36 0 0 0
SMALL
GASTEIGER

@<TRIPOS>ATOM
      1 C           0.0032   -0.1767   -0.0017 C.ar    1  LIG1        0.1605
      2 N           1.3471   -0.1801   -0.0016 N.ar    1  LIG1       -0.1338
      3 C           1.1782    2.0945   -0.0004 C.ar    1  LIG1        0.2193
      4 N          -0.7796    0.9093   -0.0011 N.ar    1  LIG1       -0.1338
      5 N           1.9591    0.9830   -0.0009 N.ar    1  LIG1       -0.1243
      6 N          -0.1792    2.0823   -0.0005 N.ar    1  LIG1       -0.1243
      7 H          -0.4909   -1.1420   -0.0022 H       1  LIG1        0.1085
      8 C           1.8190    3.3800    0.0003 C.ar    1  LIG1        0.0880
      9 C           3.1647    3.7463    0.0004 C.ar    1  LIG1       -0.0326
     10 C           3.2154    5.1484    0.0012 C.ar    1  LIG1       -0.0352
     11 C           1.8980    5.6311    0.0014 C.ar    1  LIG1        0.0537
     12 N           1.0726    4.5383    0.0009 N.ar    1  LIG1       -0.3512
     13 H           0.0634    4.5314    0.0007 H       1  LIG1        0.1660
     14 H           3.9938    3.0551   -0.0000 H       1  LIG1        0.0640
     15 H           4.1045    5.7628    0.0016 H       1  LIG1        0.0639
     16 C           1.3916    6.9826    0.0022 C.ar    1  LIG1        0.0361
     17 C           0.0835    7.4230    0.0032 C.ar    1  LIG1       -0.0449
     18 C          -0.0391    8.8331    0.0037 C.ar    1  LIG1       -0.0463
     19 C           1.1661    9.5045    0.0032 C.ar    1  LIG1        0.0200
     20 S           2.4872    8.3473    0.0020 S.2     1  LIG1       -0.0868
     21 H          -0.7733    6.7579    0.0036 H       1  LIG1        0.0630
     22 H          -0.9983    9.3362    0.0045 H       1  LIG1        0.0629
     23 C           2.7220   11.4743    0.0044 C.ar    1  LIG1       -0.0535
     24 C           2.9451   12.8485    0.0047 C.ar    1  LIG1       -0.0612
     25 C           1.4158   10.9499    0.0036 C.ar    1  LIG1       -0.0113
     26 C           1.8701   13.7379    0.0043 C.ar    1  LIG1       -0.0617
     27 H           3.9640   13.2243    0.0054 H       1  LIG1        0.0618
     28 C           0.3417   11.8615    0.0031 C.ar    1  LIG1       -0.0535
     29 C           0.5675   13.2343    0.0035 C.ar    1  LIG1       -0.0612
     30 H          -0.6792   11.4951    0.0023 H       1  LIG1        0.0624
     31 H           2.0440   14.8095    0.0045 H       1  LIG1        0.0618
     32 H           3.5753   10.8024    0.0049 H       1  LIG1        0.0624
     33 H          -0.2793   13.9144    0.0031 H       1  LIG1        0.0618
@<TRIPOS>BOND
     1     7     1    1
     2     1     2   ar
     3     1     4   ar
     4     2     5   ar
     5     4     6   ar
     6     5     3   ar
     7     6     3   ar
     8     3     8    1
     9    14     9    1
    10     8     9   ar
    11     8    12   ar
    12     9    10   ar
    13    13    12    1
    14    12    11   ar
    15    10    11   ar
    16    10    15    1
    17    11    16    1
    18    20    16   ar
    19    20    19   ar
    20    16    17   ar
    21    30    28    1
    22    33    29    1
    23    28    29   ar
    24    28    25   ar
    25    17    21    1
    26    17    18   ar
    27    19    25    1
    28    19    18   ar
    29    29    26   ar
    30    25    23   ar
    31    18    22    1
    32    26    31    1
    33    26    24   ar
    34    23    24   ar
    35    23    32    1
    36    24    27    1
