@<TRIPOS>MOLECULE
mol_data/opt/b3lyp/geoms/mol2/8135.out
 23 25 0 0 0
SMALL
GASTEIGER

@<TRIPOS>ATOM
      1 C          -0.0280   -0.0332   -0.0005 C.ar    1  LIG1        0.1605
      2 N           1.3154   -0.0559   -0.0002 N.ar    1  LIG1       -0.1338
      3 C           1.1790    2.2209    0.0002 C.ar    1  LIG1        0.2193
      4 N          -0.7953    1.0639   -0.0004 N.ar    1  LIG1       -0.1338
      5 N           1.9441    1.0986    0.0001 N.ar    1  LIG1       -0.1243
      6 N          -0.1782    2.2280   -0.0001 N.ar    1  LIG1       -0.1243
      7 H          -0.5360   -0.9914   -0.0007 H       1  LIG1        0.1085
      8 C           1.8382    3.4972    0.0005 C.ar    1  LIG1        0.0880
      9 C           3.1886    3.8445    0.0006 C.ar    1  LIG1       -0.0326
     10 C           3.2607    5.2457    0.0009 C.ar    1  LIG1       -0.0352
     11 C           1.9501    5.7470    0.0008 C.ar    1  LIG1        0.0536
     12 N           1.1092    4.6673    0.0005 N.ar    1  LIG1       -0.3512
     13 H           0.0987    4.6733    0.0001 H       1  LIG1        0.1660
     14 H           4.0077    3.1412    0.0006 H       1  LIG1        0.0640
     15 H           4.1584    5.8464    0.0013 H       1  LIG1        0.0639
     16 C           1.4881    7.1174    0.0009 C.ar    1  LIG1        0.0355
     17 C           2.2515    8.2660    0.0002 C.ar    1  LIG1       -0.0455
     18 C           1.4787    9.4598    0.0006 C.ar    1  LIG1       -0.0541
     19 C           0.1312    9.2252    0.0017 C.ar    1  LIG1       -0.0237
     20 S          -0.2187    7.5259    0.0022 S.2     1  LIG1       -0.0952
     21 H          -0.6800    9.9390    0.0022 H       1  LIG1        0.0693
     22 H           3.3350    8.2510   -0.0007 H       1  LIG1        0.0629
     23 H           1.9079   10.4550    0.0001 H       1  LIG1        0.0623
@<TRIPOS>BOND
     1    22    17    1
     2     7     1    1
     3     1     4   ar
     4     1     2   ar
     5     4     6   ar
     6     2     5   ar
     7     6     3   ar
     8     5     3   ar
     9    13    12    1
    10    23    18    1
    11     3     8    1
    12    17    18   ar
    13    17    16   ar
    14     8    12   ar
    15     8     9   ar
    16    12    11   ar
    17    14     9    1
    18     9    10   ar
    19    18    19   ar
    20    11    10   ar
    21    11    16    1
    22    10    15    1
    23    16    20   ar
    24    19    20   ar
    25    19    21    1
