@<TRIPOS>MOLECULE
mol_data/opt/b3lyp/geoms/mol2/8138-5.out
 29 32 0 0 0
SMALL
GASTEIGER

@<TRIPOS>ATOM
      1 C          -0.0633   -0.0209   -0.0003 C.ar    1  LIG1        0.1605
      2 N           1.2788   -0.0544   -0.0004 N.ar    1  LIG1       -0.1338
      3 C           1.1573    2.2215    0.0002 C.ar    1  LIG1        0.2193
      4 N          -0.8231    1.0818    0.0000 N.ar    1  LIG1       -0.1338
      5 N           1.9145    1.0982   -0.0002 N.ar    1  LIG1       -0.1243
      6 N          -0.1964    2.2415    0.0003 N.ar    1  LIG1       -0.1243
      7 H          -0.5790   -0.9753   -0.0004 H       1  LIG1        0.1085
      8 C           1.8343    3.4968    0.0003 C.ar    1  LIG1        0.0880
      9 C           3.1966    3.8120    0.0001 C.ar    1  LIG1       -0.0325
     10 C           3.3015    5.2111    0.0007 C.ar    1  LIG1       -0.0325
     11 C           2.0006    5.7256    0.0008 C.ar    1  LIG1        0.0880
     12 N           1.1298    4.6715    0.0006 N.ar    1  LIG1       -0.3491
     13 H           0.1212    4.7472    0.0007 H       1  LIG1        0.1661
     14 H           3.9975    3.0886   -0.0003 H       1  LIG1        0.0640
     15 H           4.2012    5.8072    0.0008 H       1  LIG1        0.0640
     16 C           1.5217    7.0894    0.0011 C.ar    1  LIG1        0.2194
     17 N           0.1835    7.2774    0.0013 N.ar    1  LIG1       -0.1237
     18 C           0.6470    9.5114    0.0018 C.ar    1  LIG1        0.2099
     19 N           2.4357    8.0889    0.0012 N.ar    1  LIG1       -0.1237
     20 N          -0.2622    8.5106    0.0016 N.ar    1  LIG1       -0.1246
     21 N           1.9911    9.3197    0.0016 N.ar    1  LIG1       -0.1246
     22 C           0.1580   10.8742    0.0022 C.ar    1  LIG1        0.0598
     23 C           0.9021   12.0358    0.0023 C.ar    1  LIG1       -0.0438
     24 C           0.0975   13.2041    0.0028 C.ar    1  LIG1       -0.0540
     25 C          -1.2447   12.9177    0.0030 C.ar    1  LIG1       -0.0236
     26 S          -1.5570   11.2171    0.0026 S.2     1  LIG1       -0.0934
     27 H          -2.0725   13.6138    0.0034 H       1  LIG1        0.0693
     28 H           1.9850   12.0263    0.0021 H       1  LIG1        0.0630
     29 H           0.4938   14.2126    0.0029 H       1  LIG1        0.0623
@<TRIPOS>BOND
     1     7     1    1
     2     2     1   ar
     3     2     5   ar
     4     1     4   ar
     5    14     9    1
     6     5     3   ar
     7     4     6   ar
     8     9     8   ar
     9     9    10   ar
    10     3     6   ar
    11     3     8    1
    12     8    12   ar
    13    12    13    1
    14    12    11   ar
    15    10    11   ar
    16    10    15    1
    17    11    16    1
    18    16    19   ar
    19    16    17   ar
    20    19    21   ar
    21    17    20   ar
    22    21    18   ar
    23    20    18   ar
    24    18    22    1
    25    28    23    1
    26    22    23   ar
    27    22    26   ar
    28    23    24   ar
    29    26    25   ar
    30    24    29    1
    31    24    25   ar
    32    25    27    1
