@<TRIPOS>MOLECULE
mol_data/opt/b3lyp/geoms/mol2/81388.out
 28 31 0 0 0
SMALL
GASTEIGER

@<TRIPOS>ATOM
      1 C          -0.0401   -0.0238   -0.0004 C.ar    1  LIG1        0.1605
      2 N           1.3019   -0.0458   -0.0005 N.ar    1  LIG1       -0.1338
      3 C           1.1593    2.2272    0.0001 C.ar    1  LIG1        0.2193
      4 N          -0.8102    1.0721   -0.0001 N.ar    1  LIG1       -0.1338
      5 N           1.9269    1.1133   -0.0002 N.ar    1  LIG1       -0.1243
      6 N          -0.1927    2.2370    0.0001 N.ar    1  LIG1       -0.1243
      7 H          -0.5476   -0.9826   -0.0006 H       1  LIG1        0.1085
      8 C           1.8268    3.5113    0.0003 C.ar    1  LIG1        0.0880
      9 C           3.1888    3.8341    0.0002 C.ar    1  LIG1       -0.0325
     10 C           3.2845    5.2322    0.0007 C.ar    1  LIG1       -0.0325
     11 C           1.9789    5.7384    0.0008 C.ar    1  LIG1        0.0880
     12 N           1.1139    4.6767    0.0006 N.ar    1  LIG1       -0.3491
     13 H           0.1043    4.7443    0.0007 H       1  LIG1        0.1661
     14 H           3.9936    3.1150   -0.0001 H       1  LIG1        0.0640
     15 H           4.1799    5.8351    0.0008 H       1  LIG1        0.0640
     16 C           1.4952    7.0946    0.0012 C.ar    1  LIG1        0.2194
     17 N           2.4048    8.0994    0.0014 N.ar    1  LIG1       -0.1236
     18 C           0.6090    9.5003    0.0020 C.ar    1  LIG1        0.2435
     19 N           0.1526    7.2751    0.0013 N.ar    1  LIG1       -0.1236
     20 N           1.9466    9.3271    0.0018 N.ar    1  LIG1       -0.1218
     21 N          -0.2990    8.5070    0.0018 N.ar    1  LIG1       -0.1218
     22 C           0.0985   10.8982    0.0025 C.ar    1  LIG1        0.2434
     23 N           1.0103   11.8885    0.0026 N.ar    1  LIG1       -0.1224
     24 C          -0.7757   13.2883    0.0035 C.ar    1  LIG1        0.1605
     25 N          -1.2371   11.0667    0.0028 N.ar    1  LIG1       -0.1224
     26 N           0.5540   13.1281    0.0031 N.ar    1  LIG1       -0.1338
     27 N          -1.6884   12.3080    0.0033 N.ar    1  LIG1       -0.1338
     28 H          -1.1485   14.3077    0.0036 H       1  LIG1        0.1085
@<TRIPOS>BOND
     1     7     1    1
     2     2     1   ar
     3     2     5   ar
     4     1     4   ar
     5     5     3   ar
     6    14     9    1
     7     4     6   ar
     8     3     6   ar
     9     3     8    1
    10     9     8   ar
    11     9    10   ar
    12     8    12   ar
    13    12    13    1
    14    12    11   ar
    15    10    11   ar
    16    10    15    1
    17    11    16    1
    18    16    19   ar
    19    16    17   ar
    20    19    21   ar
    21    17    20   ar
    22    21    18   ar
    23    20    18   ar
    24    18    22    1
    25    22    23   ar
    26    22    25   ar
    27    23    26   ar
    28    25    27   ar
    29    26    24   ar
    30    27    24   ar
    31    24    28    1
