@<TRIPOS>MOLECULE
mol_data/opt/b3lyp/geoms/mol2/84-.out
 18 19 0 0 0
SMALL
GASTEIGER

@<TRIPOS>ATOM
      1 C          -0.0347   -0.0252    0.0005 C.ar    1  LIG1        0.1605
      2 N           1.3041   -0.0247    0.0005 N.ar    1  LIG1       -0.1339
      3 C           1.1309    2.2580   -0.0004 C.ar    1  LIG1        0.2033
      4 N          -0.8196    1.0594    0.0001 N.ar    1  LIG1       -0.1339
      5 N           1.9045    1.1495   -0.0000 N.ar    1  LIG1       -0.1258
      6 N          -0.2207    2.2344   -0.0003 N.ar    1  LIG1       -0.1258
      7 H          -0.5279   -0.9914    0.0009 H       1  LIG1        0.1085
      8 C           1.0426    4.7541   -0.0015 C.ar    1  LIG1       -0.0509
      9 C           1.6796    5.9918   -0.0020 C.ar    1  LIG1       -0.0611
     10 C           1.8018    3.5721   -0.0009 C.ar    1  LIG1        0.0226
     11 C           3.0744    6.0646   -0.0019 C.ar    1  LIG1       -0.0617
     12 H           1.0869    6.9015   -0.0024 H       1  LIG1        0.0618
     13 C           3.2044    3.6502   -0.0009 C.ar    1  LIG1       -0.0509
     14 C           3.8335    4.8919   -0.0014 C.ar    1  LIG1       -0.0611
     15 H           3.7845    2.7350   -0.0004 H       1  LIG1        0.0625
     16 H           3.5684    7.0317   -0.0023 H       1  LIG1        0.0618
     17 H          -0.0387    4.6871   -0.0015 H       1  LIG1        0.0625
     18 H           4.9178    4.9453   -0.0013 H       1  LIG1        0.0618
@<TRIPOS>BOND
     1    12     9    1
     2    16    11    1
     3     9    11   ar
     4     9     8   ar
     5    11    14   ar
     6    17     8    1
     7     8    10   ar
     8    14    18    1
     9    14    13   ar
    10    10    13   ar
    11    10     3    1
    12    13    15    1
    13     3     6   ar
    14     3     5   ar
    15     6     4   ar
    16     5     2   ar
    17     4     1   ar
    18     2     1   ar
    19     1     7    1
