@<TRIPOS>MOLECULE
mol_data/opt/b3lyp/geoms/mol2/84-12.out
 25 27 0 0 0
SMALL
GASTEIGER

@<TRIPOS>ATOM
      1 C          -0.0413   -0.0890    0.0013 C.ar    1  LIG1        0.1605
      2 N           1.2977   -0.0790    0.0011 N.ar    1  LIG1       -0.1339
      3 C           1.1084    2.2027   -0.0003 C.ar    1  LIG1        0.2033
      4 N          -0.8338    0.9906    0.0007 N.ar    1  LIG1       -0.1339
      5 N           1.8906    1.0984    0.0003 N.ar    1  LIG1       -0.1258
      6 N          -0.2444    2.1696   -0.0001 N.ar    1  LIG1       -0.1258
      7 H          -0.5280   -1.0587    0.0020 H       1  LIG1        0.1085
      8 C           1.0082    4.6992   -0.0020 C.ar    1  LIG1       -0.0503
      9 C           1.6310    5.9389   -0.0028 C.ar    1  LIG1       -0.0504
     10 C           1.7681    3.5171   -0.0012 C.ar    1  LIG1        0.0227
     11 C           3.0354    6.0391   -0.0029 C.ar    1  LIG1        0.0173
     12 H           1.0342    6.8436   -0.0034 H       1  LIG1        0.0625
     13 C           3.1714    3.6119   -0.0013 C.ar    1  LIG1       -0.0503
     14 C           3.7922    4.8509   -0.0022 C.ar    1  LIG1       -0.0504
     15 H           3.7618    2.7032   -0.0007 H       1  LIG1        0.0625
     16 H          -0.0734    4.6306   -0.0019 H       1  LIG1        0.0625
     17 H           4.8763    4.9009   -0.0022 H       1  LIG1        0.0625
     18 C           3.6938    7.3351   -0.0038 C.ar    1  LIG1        0.1348
     19 C           5.0093    7.7307   -0.0044 C.ar    1  LIG1       -0.0159
     20 C           5.0128    9.1577   -0.0052 C.ar    1  LIG1       -0.0233
     21 C           3.7044    9.5386   -0.0051 C.ar    1  LIG1        0.0926
     22 O           2.8912    8.4489   -0.0043 O.2     1  LIG1       -0.4629
     23 H           3.2087   10.4965   -0.0055 H       1  LIG1        0.1029
     24 H           5.8734    7.0825   -0.0043 H       1  LIG1        0.0655
     25 H           5.8730    9.8111   -0.0058 H       1  LIG1        0.0649
@<TRIPOS>BOND
     1    25    20    1
     2    23    21    1
     3    20    21   ar
     4    20    19   ar
     5    21    22   ar
     6    19    24    1
     7    19    18   ar
     8    22    18   ar
     9    18    11    1
    10    12     9    1
    11    11     9   ar
    12    11    14   ar
    13     9     8   ar
    14    17    14    1
    15    14    13   ar
    16     8    16    1
    17     8    10   ar
    18    13    10   ar
    19    13    15    1
    20    10     3    1
    21     3     6   ar
    22     3     5   ar
    23     6     4   ar
    24     5     2   ar
    25     4     1   ar
    26     2     1   ar
    27     1     7    1
