@<TRIPOS>MOLECULE
mol_data/opt/b3lyp/geoms/mol2/84-12-.out
 25 27 0 0 0
SMALL
GASTEIGER

@<TRIPOS>ATOM
      1 C          -0.0887   -0.0647    0.0013 C.ar    1  LIG1        0.1605
      2 N           1.2505   -0.0772    0.0011 N.ar    1  LIG1       -0.1339
      3 C           1.0996    2.2073   -0.0003 C.ar    1  LIG1        0.2033
      4 N          -0.8628    1.0280    0.0007 N.ar    1  LIG1       -0.1339
      5 N           1.8631    1.0899    0.0003 N.ar    1  LIG1       -0.1258
      6 N          -0.2536    2.1970   -0.0001 N.ar    1  LIG1       -0.1258
      7 H          -0.5915   -1.0261    0.0020 H       1  LIG1        0.1085
      8 C           1.0378    4.7048   -0.0020 C.ar    1  LIG1       -0.0503
      9 C           1.6805    5.9324   -0.0028 C.ar    1  LIG1       -0.0504
     10 C           1.7809    3.5105   -0.0012 C.ar    1  LIG1        0.0227
     11 C           3.0870    6.0127   -0.0029 C.ar    1  LIG1        0.0173
     12 H           1.0878    6.8414   -0.0035 H       1  LIG1        0.0625
     13 C           3.1842    3.5846   -0.0013 C.ar    1  LIG1       -0.0503
     14 C           3.8264    4.8143   -0.0022 C.ar    1  LIG1       -0.0504
     15 H           3.7608    2.6670   -0.0007 H       1  LIG1        0.0625
     16 H          -0.0447    4.6526   -0.0019 H       1  LIG1        0.0625
     17 H           4.9094    4.8589   -0.0022 H       1  LIG1        0.0625
     18 C           3.7540    7.3042   -0.0038 C.ar    1  LIG1        0.1348
     19 C           3.3064    8.6029   -0.0044 C.ar    1  LIG1       -0.0159
     20 C           4.4624    9.4396   -0.0051 C.ar    1  LIG1       -0.0233
     21 C           5.5360    8.6003   -0.0050 C.ar    1  LIG1        0.0926
     22 O           5.1269    7.3037   -0.0041 O.2     1  LIG1       -0.4629
     23 H           6.6031    8.7578   -0.0053 H       1  LIG1        0.1029
     24 H           2.2756    8.9254   -0.0043 H       1  LIG1        0.0655
     25 H           4.4901   10.5194   -0.0057 H       1  LIG1        0.0649
@<TRIPOS>BOND
     1    25    20    1
     2    23    21    1
     3    20    21   ar
     4    20    19   ar
     5    21    22   ar
     6    19    24    1
     7    19    18   ar
     8    22    18   ar
     9    18    11    1
    10    12     9    1
    11    11     9   ar
    12    11    14   ar
    13     9     8   ar
    14    17    14    1
    15    14    13   ar
    16     8    16    1
    17     8    10   ar
    18    13    10   ar
    19    13    15    1
    20    10     3    1
    21     3     6   ar
    22     3     5   ar
    23     6     4   ar
    24     5     2   ar
    25     4     1   ar
    26     2     1   ar
    27     1     7    1
