@<TRIPOS>MOLECULE
mol_data/opt/b3lyp/geoms/mol2/84-13.out
 26 28 0 0 0
SMALL
GASTEIGER

@<TRIPOS>ATOM
      1 C          -0.0578   -0.1065    0.0011 C.ar    1  LIG1        0.1605
      2 N           1.2813   -0.0994    0.0012 N.ar    1  LIG1       -0.1339
      3 C           1.0981    2.1833   -0.0003 C.ar    1  LIG1        0.2033
      4 N          -0.8476    0.9752    0.0004 N.ar    1  LIG1       -0.1339
      5 N           1.8776    1.0761    0.0004 N.ar    1  LIG1       -0.1258
      6 N          -0.2558    2.1527   -0.0004 N.ar    1  LIG1       -0.1258
      7 H          -0.5467   -1.0750    0.0017 H       1  LIG1        0.1085
      8 C           1.0039    4.6783   -0.0021 C.ar    1  LIG1       -0.0503
      9 C           1.6310    5.9153   -0.0029 C.ar    1  LIG1       -0.0520
     10 C           1.7594    3.4941   -0.0012 C.ar    1  LIG1        0.0227
     11 C           3.0370    6.0293   -0.0028 C.ar    1  LIG1       -0.0017
     12 H           1.0044    6.8025   -0.0037 H       1  LIG1        0.0624
     13 C           3.1629    3.5933   -0.0010 C.ar    1  LIG1       -0.0503
     14 C           3.7834    4.8312   -0.0018 C.ar    1  LIG1       -0.0520
     15 H           3.7552    2.6857   -0.0003 H       1  LIG1        0.0625
     16 H          -0.0779    4.6139   -0.0022 H       1  LIG1        0.0625
     17 H           4.8670    4.8767   -0.0016 H       1  LIG1        0.0624
     18 C           3.7139    7.3183   -0.0036 C.ar    1  LIG1        0.0465
     19 C           5.0709    7.6340   -0.0042 C.ar    1  LIG1       -0.0364
     20 C           5.1984    9.0427   -0.0052 C.ar    1  LIG1       -0.0438
     21 C           3.9209    9.5692   -0.0044 C.ar    1  LIG1        0.0022
     22 N           3.0365    8.5254   -0.0037 N.ar    1  LIG1       -0.3607
     23 H           2.0353    8.6271   -0.0033 H       1  LIG1        0.1653
     24 H           3.5767   10.5926   -0.0044 H       1  LIG1        0.0807
     25 H           5.8829    6.9217   -0.0043 H       1  LIG1        0.0639
     26 H           6.1175    9.6105   -0.0060 H       1  LIG1        0.0633
@<TRIPOS>BOND
     1    26    20    1
     2    20    21   ar
     3    20    19   ar
     4    24    21    1
     5    21    22   ar
     6    25    19    1
     7    19    18   ar
     8    22    18   ar
     9    22    23    1
    10    12     9    1
    11    18    11    1
    12     9    11   ar
    13     9     8   ar
    14    11    14   ar
    15    16     8    1
    16     8    10   ar
    17    14    17    1
    18    14    13   ar
    19    10    13   ar
    20    10     3    1
    21    13    15    1
    22     6     3   ar
    23     6     4   ar
    24     3     5   ar
    25     4     1   ar
    26     5     2   ar
    27     1     2   ar
    28     1     7    1
