@<TRIPOS>MOLECULE
mol_data/opt/b3lyp/geoms/mol2/84-13-.out
 26 28 0 0 0
SMALL
GASTEIGER

@<TRIPOS>ATOM
      1 C          -0.0929   -0.0886    0.0015 C.ar    1  LIG1        0.1605
      2 N           1.2464   -0.0975    0.0016 N.ar    1  LIG1       -0.1339
      3 C           1.0901    2.1874   -0.0002 C.ar    1  LIG1        0.2033
      4 N          -0.8695    1.0024    0.0006 N.ar    1  LIG1       -0.1339
      5 N           1.8563    1.0708    0.0007 N.ar    1  LIG1       -0.1258
      6 N          -0.2640    2.1730   -0.0003 N.ar    1  LIG1       -0.1258
      7 H          -0.5932   -1.0511    0.0022 H       1  LIG1        0.1085
      8 C           1.0278    4.6869   -0.0023 C.ar    1  LIG1       -0.0503
      9 C           1.6699    5.9138   -0.0032 C.ar    1  LIG1       -0.0520
     10 C           1.7674    3.4900   -0.0012 C.ar    1  LIG1        0.0227
     11 C           3.0784    6.0082   -0.0031 C.ar    1  LIG1       -0.0017
     12 H           1.0736    6.8197   -0.0042 H       1  LIG1        0.0624
     13 C           3.1699    3.5688   -0.0011 C.ar    1  LIG1       -0.0503
     14 C           3.8074    4.8004   -0.0020 C.ar    1  LIG1       -0.0520
     15 H           3.7499    2.6533   -0.0002 H       1  LIG1        0.0625
     16 H          -0.0548    4.6372   -0.0024 H       1  LIG1        0.0625
     17 H           4.8936    4.8105   -0.0017 H       1  LIG1        0.0624
     18 C           3.7290    7.3105   -0.0041 C.ar    1  LIG1        0.0465
     19 C           3.1924    8.5963   -0.0044 C.ar    1  LIG1       -0.0364
     20 C           4.2613    9.5228   -0.0051 C.ar    1  LIG1       -0.0438
     21 C           5.4349    8.7936   -0.0061 C.ar    1  LIG1        0.0022
     22 N           5.1044    7.4660   -0.0051 N.ar    1  LIG1       -0.3607
     23 H           5.7719    6.7129   -0.0053 H       1  LIG1        0.1653
     24 H           6.4666    9.1122   -0.0071 H       1  LIG1        0.0807
     25 H           2.1399    8.8391   -0.0037 H       1  LIG1        0.0639
     26 H           4.1850   10.6005   -0.0053 H       1  LIG1        0.0633
@<TRIPOS>BOND
     1    24    21    1
     2    21    20   ar
     3    21    22   ar
     4    23    22    1
     5    26    20    1
     6    20    19   ar
     7    22    18   ar
     8    19    18   ar
     9    19    25    1
    10    12     9    1
    11    18    11    1
    12     9    11   ar
    13     9     8   ar
    14    11    14   ar
    15    16     8    1
    16     8    10   ar
    17    14    17    1
    18    14    13   ar
    19    10    13   ar
    20    10     3    1
    21    13    15    1
    22     6     3   ar
    23     6     4   ar
    24     3     5   ar
    25     4     1   ar
    26     5     2   ar
    27     1     2   ar
    28     1     7    1
