@<TRIPOS>MOLECULE
mol_data/opt/b3lyp/geoms/mol2/84-13-4.out
 36 39 0 0 0
SMALL
GASTEIGER

@<TRIPOS>ATOM
      1 C          -0.2142   -0.1409    0.0023 C.ar    1  LIG1        0.1605
      2 N           1.1251   -0.1621    0.0024 N.ar    1  LIG1       -0.1339
      3 C           0.9892    2.1240    0.0002 C.ar    1  LIG1        0.2033
      4 N          -0.9811    0.9570    0.0012 N.ar    1  LIG1       -0.1339
      5 N           1.7453    1.0005    0.0013 N.ar    1  LIG1       -0.1258
      6 N          -0.3650    2.1221    0.0001 N.ar    1  LIG1       -0.1258
      7 H          -0.7233   -1.0990    0.0032 H       1  LIG1        0.1085
      8 C           0.9491    4.6233   -0.0024 C.ar    1  LIG1       -0.0503
      9 C           1.6021    5.8442   -0.0036 C.ar    1  LIG1       -0.0520
     10 C           1.6782    3.4197   -0.0011 C.ar    1  LIG1        0.0227
     11 C           3.0119    5.9253   -0.0034 C.ar    1  LIG1       -0.0017
     12 H           1.0140    6.7553   -0.0047 H       1  LIG1        0.0624
     13 C           3.0816    3.4855   -0.0009 C.ar    1  LIG1       -0.0503
     14 C           3.7305    4.7108   -0.0020 C.ar    1  LIG1       -0.0520
     15 H           3.6528    2.5645    0.0001 H       1  LIG1        0.0625
     16 H          -0.1339    4.5830   -0.0026 H       1  LIG1        0.0625
     17 H           4.8165    4.7107   -0.0018 H       1  LIG1        0.0624
     18 C           3.6735    7.2198   -0.0046 C.ar    1  LIG1        0.0469
     19 C           3.1460    8.5116   -0.0053 C.ar    1  LIG1       -0.0358
     20 C           4.2177    9.4225   -0.0064 C.ar    1  LIG1       -0.0358
     21 C           5.4071    8.6930   -0.0063 C.ar    1  LIG1        0.0469
     22 N           5.0466    7.3652   -0.0053 N.ar    1  LIG1       -0.3542
     23 H           5.6995    6.6003   -0.0045 H       1  LIG1        0.1659
     24 H           2.0961    8.7649   -0.0051 H       1  LIG1        0.0639
     25 H           4.1373   10.4995   -0.0073 H       1  LIG1        0.0639
     26 C           7.8780    8.2368   -0.0088 C.ar    1  LIG1       -0.0526
     27 C           9.1957    8.6883   -0.0095 C.ar    1  LIG1       -0.0611
     28 C           6.7990    9.1408   -0.0071 C.ar    1  LIG1       -0.0017
     29 C           9.4737   10.0552   -0.0088 C.ar    1  LIG1       -0.0617
     30 H          10.0075    7.9667   -0.0108 H       1  LIG1        0.0618
     31 C           7.0980   10.5172   -0.0064 C.ar    1  LIG1       -0.0526
     32 C           8.4144   10.9659   -0.0072 C.ar    1  LIG1       -0.0611
     33 H           6.2898   11.2408   -0.0051 H       1  LIG1        0.0624
     34 H          10.5008   10.4067   -0.0094 H       1  LIG1        0.0618
     35 H           7.7027    7.1645   -0.0097 H       1  LIG1        0.0624
     36 H           8.6148   12.0334   -0.0066 H       1  LIG1        0.0618
@<TRIPOS>BOND
     1    30    27    1
     2    35    26    1
     3    27    26   ar
     4    27    29   ar
     5    34    29    1
     6    26    28   ar
     7    29    32   ar
     8    25    20    1
     9    32    36    1
    10    32    31   ar
    11    28    31   ar
    12    28    21    1
    13    31    33    1
    14    20    21   ar
    15    20    19   ar
    16    21    22   ar
    17    19    24    1
    18    19    18   ar
    19    22    18   ar
    20    22    23    1
    21    12     9    1
    22    18    11    1
    23     9    11   ar
    24     9     8   ar
    25    11    14   ar
    26    16     8    1
    27     8    10   ar
    28    14    17    1
    29    14    13   ar
    30    10    13   ar
    31    10     3    1
    32    13    15    1
    33     6     3   ar
    34     6     4   ar
    35     3     5   ar
    36     4     1   ar
    37     5     2   ar
    38     1     2   ar
    39     1     7    1
