@<TRIPOS>MOLECULE
mol_data/opt/b3lyp/geoms/mol2/84-128.out
 31 34 0 0 0
SMALL
GASTEIGER

@<TRIPOS>ATOM
      1 C           0.0438   -0.2179    0.0015 C.ar    1  LIG1        0.1605
      2 N           1.3822   -0.1764    0.0015 N.ar    1  LIG1       -0.1339
      3 C           1.1378    2.0987   -0.0002 C.ar    1  LIG1        0.2033
      4 N          -0.7744    0.8424    0.0007 N.ar    1  LIG1       -0.1339
      5 N           1.9464    1.0154    0.0006 N.ar    1  LIG1       -0.1258
      6 N          -0.2127    2.0351   -0.0002 N.ar    1  LIG1       -0.1258
      7 H          -0.4198   -1.1989    0.0022 H       1  LIG1        0.1085
      8 C           0.9768    4.5926   -0.0021 C.ar    1  LIG1       -0.0503
      9 C           1.5690    5.8474   -0.0031 C.ar    1  LIG1       -0.0504
     10 C           1.7668    3.4307   -0.0012 C.ar    1  LIG1        0.0227
     11 C           2.9708    5.9763   -0.0030 C.ar    1  LIG1        0.0173
     12 H           0.9523    6.7389   -0.0038 H       1  LIG1        0.0625
     13 C           3.1672    3.5557   -0.0011 C.ar    1  LIG1       -0.0503
     14 C           3.7588    4.8094   -0.0020 C.ar    1  LIG1       -0.0504
     15 H           3.7778    2.6607   -0.0004 H       1  LIG1        0.0625
     16 H          -0.1026    4.4972   -0.0022 H       1  LIG1        0.0625
     17 H           4.8414    4.8855   -0.0020 H       1  LIG1        0.0625
     18 C           3.5957    7.2886   -0.0040 C.ar    1  LIG1        0.1358
     19 C           4.9088    7.7154   -0.0044 C.ar    1  LIG1       -0.0151
     20 C           4.8789    9.1302   -0.0054 C.ar    1  LIG1       -0.0120
     21 C           3.5507    9.4887   -0.0055 C.ar    1  LIG1        0.1760
     22 O           2.7680    8.3716   -0.0046 O.2     1  LIG1       -0.4516
     23 H           5.7871    7.0876   -0.0041 H       1  LIG1        0.0656
     24 H           5.7126    9.8156   -0.0059 H       1  LIG1        0.0657
     25 C           2.9040   10.7818   -0.0063 C.ar    1  LIG1        0.2381
     26 N           3.7259   11.8591   -0.0068 N.ar    1  LIG1       -0.1226
     27 C           1.8209   13.0904   -0.0077 C.ar    1  LIG1        0.1605
     28 N           1.5527   10.8337   -0.0065 N.ar    1  LIG1       -0.1226
     29 N           3.1626   13.0479   -0.0076 N.ar    1  LIG1       -0.1338
     30 N           1.0001   12.0330   -0.0073 N.ar    1  LIG1       -0.1338
     31 H           1.3603   14.0727   -0.0086 H       1  LIG1        0.1085
@<TRIPOS>BOND
     1    31    27    1
     2    27    29   ar
     3    27    30   ar
     4    29    26   ar
     5    30    28   ar
     6    26    25   ar
     7    28    25   ar
     8    25    21    1
     9    24    20    1
    10    21    20   ar
    11    21    22   ar
    12    20    19   ar
    13    22    18   ar
    14    19    23    1
    15    19    18   ar
    16    18    11    1
    17    12     9    1
    18     9    11   ar
    19     9     8   ar
    20    11    14   ar
    21    16     8    1
    22     8    10   ar
    23    14    17    1
    24    14    13   ar
    25    10    13   ar
    26    10     3    1
    27    13    15    1
    28     3     6   ar
    29     3     5   ar
    30     6     4   ar
    31     5     2   ar
    32     4     1   ar
    33     2     1   ar
    34     1     7    1
