@<TRIPOS>MOLECULE
mol_data/opt/b3lyp/geoms/mol2/84-4-8.out
 34 37 0 0 0
SMALL
GASTEIGER

@<TRIPOS>ATOM
      1 C          -0.1441   -0.1751    0.0037 C.ar    1  LIG1        0.1605
      2 N           1.1950   -0.1848    0.0036 N.ar    1  LIG1       -0.1339
      3 C           1.0380    2.0980    0.0007 C.ar    1  LIG1        0.2033
      4 N          -0.9210    0.9157    0.0023 N.ar    1  LIG1       -0.1339
      5 N           1.8045    0.9844    0.0021 N.ar    1  LIG1       -0.1258
      6 N          -0.3138    2.0861    0.0008 N.ar    1  LIG1       -0.1258
      7 H          -0.6447   -1.1376    0.0050 H       1  LIG1        0.1085
      8 C           0.9785    4.5975   -0.0027 C.ar    1  LIG1       -0.0504
      9 C           1.6237    5.8262   -0.0043 C.ar    1  LIG1       -0.0534
     10 C           1.7176    3.4046   -0.0011 C.ar    1  LIG1        0.0227
     11 C           3.0296    5.9277   -0.0044 C.ar    1  LIG1       -0.0178
     12 H           1.0088    6.7177   -0.0056 H       1  LIG1        0.0624
     13 C           3.1185    3.4846   -0.0011 C.ar    1  LIG1       -0.0504
     14 C           3.7539    4.7185   -0.0027 C.ar    1  LIG1       -0.0534
     15 H           3.7012    2.5710    0.0002 H       1  LIG1        0.0625
     16 H          -0.1041    4.5498   -0.0027 H       1  LIG1        0.0625
     17 H           4.8370    4.7272   -0.0026 H       1  LIG1        0.0624
     18 C           2.9926    8.4580   -0.0069 C.ar    1  LIG1       -0.0534
     19 C           3.6282    9.6917   -0.0085 C.ar    1  LIG1       -0.0504
     20 C           3.7167    7.2486   -0.0061 C.ar    1  LIG1       -0.0178
     21 C           5.0291    9.7715   -0.0094 C.ar    1  LIG1        0.0227
     22 H           3.0456   10.6055   -0.0091 H       1  LIG1        0.0625
     23 C           5.1226    7.3499   -0.0071 C.ar    1  LIG1       -0.0534
     24 C           5.7680    8.5785   -0.0087 C.ar    1  LIG1       -0.0504
     25 H           5.7373    6.4582   -0.0066 H       1  LIG1        0.0624
     26 H           1.9098    8.4493   -0.0062 H       1  LIG1        0.0624
     27 H           6.8506    8.6261   -0.0094 H       1  LIG1        0.0625
     28 C           5.7089   11.0781   -0.0112 C.ar    1  LIG1        0.2033
     29 N           7.0607   11.0899   -0.0122 N.ar    1  LIG1       -0.1258
     30 C           6.8913   13.3510   -0.0143 C.ar    1  LIG1        0.1605
     31 N           4.9426   12.1918   -0.0116 N.ar    1  LIG1       -0.1258
     32 N           7.6681   12.2602   -0.0138 N.ar    1  LIG1       -0.1339
     33 N           5.5522   13.3610   -0.0132 N.ar    1  LIG1       -0.1339
     34 H           7.3920   14.3133   -0.0151 H       1  LIG1        0.1085
@<TRIPOS>BOND
     1    34    30    1
     2    30    32   ar
     3    30    33   ar
     4    32    29   ar
     5    33    31   ar
     6    29    28   ar
     7    31    28   ar
     8    28    21    1
     9    21    24   ar
    10    21    19   ar
    11    27    24    1
    12    22    19    1
    13    24    23   ar
    14    19    18   ar
    15    23    25    1
    16    23    20   ar
    17    18    26    1
    18    18    20   ar
    19    20    11    1
    20    12     9    1
    21    11     9   ar
    22    11    14   ar
    23     9     8   ar
    24    14    17    1
    25    14    13   ar
    26     8    16    1
    27     8    10   ar
    28    13    10   ar
    29    13    15    1
    30    10     3    1
    31     3     6   ar
    32     3     5   ar
    33     6     4   ar
    34     5     2   ar
    35     4     1   ar
    36     2     1   ar
    37     1     7    1
