@<TRIPOS>MOLECULE
mol_data/opt/b3lyp/geoms/mol2/84-4-12.out
 35 38 0 0 0
SMALL
GASTEIGER

@<TRIPOS>ATOM
      1 C          -0.1301   -0.1956    0.0037 C.ar    1  LIG1        0.1605
      2 N           1.2090   -0.1991    0.0037 N.ar    1  LIG1       -0.1339
      3 C           1.0427    2.0841    0.0007 C.ar    1  LIG1        0.2033
      4 N          -0.9115    0.8918    0.0023 N.ar    1  LIG1       -0.1339
      5 N           1.8138    0.9723    0.0021 N.ar    1  LIG1       -0.1258
      6 N          -0.3102    2.0650    0.0008 N.ar    1  LIG1       -0.1258
      7 H          -0.6264   -1.1603    0.0050 H       1  LIG1        0.1085
      8 C           0.9722    4.5828   -0.0027 C.ar    1  LIG1       -0.0504
      9 C           1.6117    5.8140   -0.0043 C.ar    1  LIG1       -0.0534
     10 C           1.7154    3.3918   -0.0010 C.ar    1  LIG1        0.0227
     11 C           3.0178    5.9242   -0.0044 C.ar    1  LIG1       -0.0178
     12 H           0.9930    6.7031   -0.0056 H       1  LIG1        0.0624
     13 C           3.1164    3.4799   -0.0011 C.ar    1  LIG1       -0.0504
     14 C           3.7459    4.7162   -0.0027 C.ar    1  LIG1       -0.0534
     15 H           3.7038    2.5691    0.0001 H       1  LIG1        0.0625
     16 H          -0.1103    4.5309   -0.0027 H       1  LIG1        0.0625
     17 H           4.8293    4.7299   -0.0026 H       1  LIG1        0.0624
     18 C           2.9737    8.4546   -0.0070 C.ar    1  LIG1       -0.0534
     19 C           3.6044    9.6912   -0.0086 C.ar    1  LIG1       -0.0505
     20 C           3.6976    7.2462   -0.0061 C.ar    1  LIG1       -0.0178
     21 C           5.0064    9.7874   -0.0095 C.ar    1  LIG1        0.0173
     22 H           3.0094   10.5975   -0.0092 H       1  LIG1        0.0625
     23 C           5.1030    7.3577   -0.0070 C.ar    1  LIG1       -0.0534
     24 C           5.7413    8.5889   -0.0087 C.ar    1  LIG1       -0.0505
     25 H           5.7236    6.4696   -0.0065 H       1  LIG1        0.0624
     26 H           1.8904    8.4441   -0.0063 H       1  LIG1        0.0624
     27 H           6.8265    8.6198   -0.0093 H       1  LIG1        0.0625
     28 C           5.6777   11.0772   -0.0112 C.ar    1  LIG1        0.1348
     29 C           6.9962   11.4607   -0.0126 C.ar    1  LIG1       -0.0159
     30 C           7.0126   12.8885   -0.0139 C.ar    1  LIG1       -0.0233
     31 C           5.7085   13.2817   -0.0134 C.ar    1  LIG1        0.0926
     32 O           4.8849   12.1981   -0.0117 O.2     1  LIG1       -0.4629
     33 H           5.2207   14.2437   -0.0140 H       1  LIG1        0.1029
     34 H           7.8542   10.8050   -0.0126 H       1  LIG1        0.0655
     35 H           7.8788   13.5337   -0.0152 H       1  LIG1        0.0649
@<TRIPOS>BOND
     1    35    30    1
     2    33    31    1
     3    30    31   ar
     4    30    29   ar
     5    31    32   ar
     6    34    29    1
     7    29    28   ar
     8    32    28   ar
     9    28    21    1
    10    21    24   ar
    11    21    19   ar
    12    27    24    1
    13    22    19    1
    14    24    23   ar
    15    19    18   ar
    16    23    25    1
    17    23    20   ar
    18    18    26    1
    19    18    20   ar
    20    20    11    1
    21    12     9    1
    22    11     9   ar
    23    11    14   ar
    24     9     8   ar
    25    14    17    1
    26    14    13   ar
    27     8    16    1
    28     8    10   ar
    29    13    10   ar
    30    13    15    1
    31    10     3    1
    32     3     6   ar
    33     3     5   ar
    34     6     4   ar
    35     5     2   ar
    36     4     1   ar
    37     2     1   ar
    38     1     7    1
