@<TRIPOS>MOLECULE
mol_data/opt/b3lyp/geoms/mol2/84-4-.out
 28 30 0 0 0
SMALL
GASTEIGER

@<TRIPOS>ATOM
      1 C          -0.1064   -0.1231    0.0021 C.ar    1  LIG1        0.1605
      2 N           1.2327   -0.1299    0.0022 N.ar    1  LIG1       -0.1339
      3 C           1.0714    2.1536   -0.0001 C.ar    1  LIG1        0.2033
      4 N          -0.8856    0.9660    0.0011 N.ar    1  LIG1       -0.1339
      5 N           1.8400    1.0403    0.0010 N.ar    1  LIG1       -0.1258
      6 N          -0.2812    2.1377   -0.0001 N.ar    1  LIG1       -0.1258
      7 H          -0.6049   -1.0868    0.0031 H       1  LIG1        0.1085
      8 C           1.0065    4.6520   -0.0026 C.ar    1  LIG1       -0.0504
      9 C           1.6495    5.8820   -0.0038 C.ar    1  LIG1       -0.0534
     10 C           1.7473    3.4601   -0.0013 C.ar    1  LIG1        0.0227
     11 C           3.0549    5.9886   -0.0037 C.ar    1  LIG1       -0.0178
     12 H           1.0323    6.7719   -0.0048 H       1  LIG1        0.0624
     13 C           3.1480    3.5444   -0.0012 C.ar    1  LIG1       -0.0504
     14 C           3.7802    4.7800   -0.0024 C.ar    1  LIG1       -0.0534
     15 H           3.7333    2.6323   -0.0002 H       1  LIG1        0.0625
     16 H          -0.0761    4.6024   -0.0027 H       1  LIG1        0.0625
     17 H           4.8628    4.7909   -0.0022 H       1  LIG1        0.0624
     18 C           3.0114    8.5181   -0.0055 C.ar    1  LIG1       -0.0540
     19 C           3.6497    9.7557   -0.0067 C.ar    1  LIG1       -0.0612
     20 C           3.7400    7.3130   -0.0050 C.ar    1  LIG1       -0.0179
     21 C           5.0421    9.8325   -0.0073 C.ar    1  LIG1       -0.0617
     22 H           3.0533   10.6634   -0.0071 H       1  LIG1        0.0618
     23 C           5.1444    7.4155   -0.0056 C.ar    1  LIG1       -0.0540
     24 C           5.7849    8.6519   -0.0068 C.ar    1  LIG1       -0.0612
     25 H           5.7599    6.5239   -0.0053 H       1  LIG1        0.0624
     26 H           5.5408   10.7969   -0.0082 H       1  LIG1        0.0618
     27 H           1.9278    8.5038   -0.0050 H       1  LIG1        0.0624
     28 H           6.8703    8.6904   -0.0073 H       1  LIG1        0.0618
@<TRIPOS>BOND
     1    26    21    1
     2    21    24   ar
     3    21    19   ar
     4    28    24    1
     5    22    19    1
     6    24    23   ar
     7    19    18   ar
     8    23    25    1
     9    23    20   ar
    10    18    27    1
    11    18    20   ar
    12    20    11    1
    13    12     9    1
    14     9    11   ar
    15     9     8   ar
    16    11    14   ar
    17    16     8    1
    18     8    10   ar
    19    14    17    1
    20    14    13   ar
    21    10    13   ar
    22    10     3    1
    23    13    15    1
    24     6     3   ar
    25     6     4   ar
    26     3     5   ar
    27     5     2   ar
    28     4     1   ar
    29     1     2   ar
    30     1     7    1
