@<TRIPOS>MOLECULE
mol_data/opt/b3lyp/geoms/mol2/84-512-.out
 32 35 0 0 0
SMALL
GASTEIGER

@<TRIPOS>ATOM
      1 C          -0.1059   -0.1618    0.0019 C.ar    1  LIG1        0.1605
      2 N           1.2332   -0.1700    0.0020 N.ar    1  LIG1       -0.1339
      3 C           1.0747    2.1140   -0.0000 C.ar    1  LIG1        0.2033
      4 N          -0.8839    0.9285    0.0009 N.ar    1  LIG1       -0.1339
      5 N           1.8421    0.9992    0.0010 N.ar    1  LIG1       -0.1258
      6 N          -0.2786    2.0994   -0.0001 N.ar    1  LIG1       -0.1258
      7 H          -0.6056   -1.1248    0.0027 H       1  LIG1        0.1085
      8 C           1.0096    4.6112   -0.0024 C.ar    1  LIG1       -0.0503
      9 C           1.6524    5.8398   -0.0034 C.ar    1  LIG1       -0.0529
     10 C           1.7516    3.4183   -0.0012 C.ar    1  LIG1        0.0227
     11 C           3.0593    5.9338   -0.0033 C.ar    1  LIG1       -0.0113
     12 H           1.0501    6.7431   -0.0044 H       1  LIG1        0.0624
     13 C           3.1554    3.4976   -0.0011 C.ar    1  LIG1       -0.0503
     14 C           3.7929    4.7277   -0.0021 C.ar    1  LIG1       -0.0529
     15 H           3.7353    2.5821   -0.0001 H       1  LIG1        0.0625
     16 H          -0.0729    4.5603   -0.0024 H       1  LIG1        0.0625
     17 H           4.8769    4.7537   -0.0019 H       1  LIG1        0.0624
     18 C           3.7449    7.2235   -0.0044 C.ar    1  LIG1        0.0200
     19 C           5.1008    7.4849   -0.0055 C.ar    1  LIG1       -0.0462
     20 C           5.4277    8.8608   -0.0064 C.ar    1  LIG1       -0.0434
     21 C           4.3195    9.6830   -0.0062 C.ar    1  LIG1        0.0550
     22 S           2.8495    8.7388   -0.0046 S.2     1  LIG1       -0.0852
     23 H           5.8529    6.7053   -0.0057 H       1  LIG1        0.0629
     24 H           6.4388    9.2482   -0.0073 H       1  LIG1        0.0630
     25 C           4.2840   11.1227   -0.0070 C.ar    1  LIG1        0.1413
     26 C           3.2751   12.0547   -0.0076 C.ar    1  LIG1       -0.0154
     27 C           3.9038   13.3367   -0.0083 C.ar    1  LIG1       -0.0233
     28 C           5.2457   13.1025   -0.0081 C.ar    1  LIG1        0.0926
     29 O           5.4975   11.7634   -0.0073 O.2     1  LIG1       -0.4624
     30 H           6.1133   13.7431   -0.0085 H       1  LIG1        0.1029
     31 H           2.2145   11.8482   -0.0076 H       1  LIG1        0.0655
     32 H           3.4199   14.3025   -0.0090 H       1  LIG1        0.0649
@<TRIPOS>BOND
     1    32    27    1
     2    30    28    1
     3    27    28   ar
     4    27    26   ar
     5    28    29   ar
     6    26    31    1
     7    26    25   ar
     8    24    20    1
     9    29    25   ar
    10    25    21    1
    11    20    21   ar
    12    20    19   ar
    13    21    22   ar
    14    23    19    1
    15    19    18   ar
    16    22    18   ar
    17    18    11    1
    18    12     9    1
    19     9    11   ar
    20     9     8   ar
    21    11    14   ar
    22    16     8    1
    23     8    10   ar
    24    14    17    1
    25    14    13   ar
    26    10    13   ar
    27    10     3    1
    28    13    15    1
    29     6     3   ar
    30     6     4   ar
    31     3     5   ar
    32     4     1   ar
    33     5     2   ar
    34     1     2   ar
    35     1     7    1
