@<TRIPOS>MOLECULE
mol_data/opt/b3lyp/geoms/mol2/84-5.out
 25 27 0 0 0
SMALL
GASTEIGER

@<TRIPOS>ATOM
      1 C          -0.0914   -0.0892    0.0015 C.ar    1  LIG1        0.1605
      2 N           1.2477   -0.0988    0.0014 N.ar    1  LIG1       -0.1339
      3 C           1.0915    2.1851   -0.0002 C.ar    1  LIG1        0.2033
      4 N          -0.8682    1.0018    0.0008 N.ar    1  LIG1       -0.1339
      5 N           1.8576    1.0699    0.0005 N.ar    1  LIG1       -0.1258
      6 N          -0.2615    2.1720   -0.0001 N.ar    1  LIG1       -0.1258
      7 H          -0.5921   -1.0517    0.0022 H       1  LIG1        0.1085
      8 C           1.0288    4.6826   -0.0021 C.ar    1  LIG1       -0.0503
      9 C           1.6728    5.9111   -0.0031 C.ar    1  LIG1       -0.0529
     10 C           1.7700    3.4897   -0.0012 C.ar    1  LIG1        0.0227
     11 C           3.0787    6.0036   -0.0031 C.ar    1  LIG1       -0.0113
     12 H           1.0711    6.8148   -0.0038 H       1  LIG1        0.0624
     13 C           3.1734    3.5676   -0.0012 C.ar    1  LIG1       -0.0503
     14 C           3.8112    4.7983   -0.0022 C.ar    1  LIG1       -0.0529
     15 H           3.7532    2.6520   -0.0005 H       1  LIG1        0.0625
     16 H          -0.0537    4.6324   -0.0021 H       1  LIG1        0.0625
     17 H           4.8952    4.8244   -0.0020 H       1  LIG1        0.0624
     18 C           3.7667    7.2968   -0.0041 C.ar    1  LIG1        0.0193
     19 C           5.1221    7.5536   -0.0053 C.ar    1  LIG1       -0.0469
     20 C           5.4467    8.9378   -0.0060 C.ar    1  LIG1       -0.0541
     21 C           4.3389    9.7406   -0.0053 C.ar    1  LIG1       -0.0237
     22 S           2.8780    8.8127   -0.0038 S.2     1  LIG1       -0.0967
     23 H           4.2904   10.8204   -0.0056 H       1  LIG1        0.0693
     24 H           5.8735    6.7732   -0.0058 H       1  LIG1        0.0629
     25 H           6.4610    9.3195   -0.0070 H       1  LIG1        0.0623
@<TRIPOS>BOND
     1    25    20    1
     2    20    19   ar
     3    20    21   ar
     4    24    19    1
     5    23    21    1
     6    19    18   ar
     7    21    22   ar
     8    18    22   ar
     9    18    11    1
    10    12     9    1
    11    11     9   ar
    12    11    14   ar
    13     9     8   ar
    14    14    17    1
    15    14    13   ar
    16     8    16    1
    17     8    10   ar
    18    13    10   ar
    19    13    15    1
    20    10     3    1
    21     3     6   ar
    22     3     5   ar
    23     6     4   ar
    24     5     2   ar
    25     4     1   ar
    26     2     1   ar
    27     1     7    1
