@<TRIPOS>MOLECULE
mol_data/opt/b3lyp/geoms/mol2/84-55-.out
 32 35 0 0 0
SMALL
GASTEIGER

@<TRIPOS>ATOM
      1 C          -0.0816   -0.1991    0.0019 C.ar    1  LIG1        0.1605
      2 N           1.2576   -0.1982    0.0019 N.ar    1  LIG1       -0.1339
      3 C           1.0834    2.0845   -0.0000 C.ar    1  LIG1        0.2033
      4 N          -0.8670    0.8859    0.0011 N.ar    1  LIG1       -0.1339
      5 N           1.8584    0.9752    0.0009 N.ar    1  LIG1       -0.1258
      6 N          -0.2696    2.0608    0.0001 N.ar    1  LIG1       -0.1258
      7 H          -0.5747   -1.1655    0.0028 H       1  LIG1        0.1085
      8 C           1.0011    4.5813   -0.0022 C.ar    1  LIG1       -0.0503
      9 C           1.6354    5.8144   -0.0033 C.ar    1  LIG1       -0.0529
     10 C           1.7517    3.3940   -0.0011 C.ar    1  LIG1        0.0227
     11 C           3.0414    5.9180   -0.0033 C.ar    1  LIG1       -0.0113
     12 H           1.0270    6.7135   -0.0042 H       1  LIG1        0.0624
     13 C           3.1548    3.4827   -0.0012 C.ar    1  LIG1       -0.0503
     14 C           3.7837    4.7173   -0.0022 C.ar    1  LIG1       -0.0529
     15 H           3.7410    2.5712   -0.0003 H       1  LIG1        0.0625
     16 H          -0.0810    4.5227   -0.0022 H       1  LIG1        0.0625
     17 H           4.8677    4.7510   -0.0021 H       1  LIG1        0.0624
     18 C           3.7177    7.2129   -0.0044 C.ar    1  LIG1        0.0199
     19 C           5.0713    7.4834   -0.0056 C.ar    1  LIG1       -0.0463
     20 C           5.3860    8.8620   -0.0065 C.ar    1  LIG1       -0.0458
     21 C           4.2772    9.6845   -0.0060 C.ar    1  LIG1        0.0265
     22 S           2.8136    8.7210   -0.0044 S.2     1  LIG1       -0.0877
     23 H           5.8303    6.7105   -0.0059 H       1  LIG1        0.0629
     24 H           6.4015    9.2421   -0.0075 H       1  LIG1        0.0629
     25 C           4.2145   11.1304   -0.0067 C.ar    1  LIG1        0.0259
     26 C           3.1065   11.9521   -0.0075 C.ar    1  LIG1       -0.0464
     27 C           3.4252   13.3383   -0.0080 C.ar    1  LIG1       -0.0541
     28 C           4.7724   13.5738   -0.0077 C.ar    1  LIG1       -0.0237
     29 S           5.6821   12.0970   -0.0066 S.2     1  LIG1       -0.0961
     30 H           5.2905   14.5220   -0.0081 H       1  LIG1        0.0693
     31 H           2.0914   11.5710   -0.0077 H       1  LIG1        0.0629
     32 H           2.6822   14.1271   -0.0087 H       1  LIG1        0.0623
@<TRIPOS>BOND
     1    32    27    1
     2    30    28    1
     3    27    28   ar
     4    27    26   ar
     5    28    29   ar
     6    31    26    1
     7    24    20    1
     8    26    25   ar
     9    25    29   ar
    10    25    21    1
    11    20    21   ar
    12    20    19   ar
    13    21    22   ar
    14    23    19    1
    15    19    18   ar
    16    18    22   ar
    17    18    11    1
    18    12     9    1
    19    11     9   ar
    20    11    14   ar
    21     9     8   ar
    22    16     8    1
    23     8    10   ar
    24    14    17    1
    25    14    13   ar
    26    13    10   ar
    27    13    15    1
    28    10     3    1
    29     3     6   ar
    30     3     5   ar
    31     6     4   ar
    32     5     2   ar
    33     4     1   ar
    34     2     1   ar
    35     1     7    1
