@<TRIPOS>MOLECULE
mol_data/opt/b3lyp/geoms/mol2/84-5-.out
 25 27 0 0 0
SMALL
GASTEIGER

@<TRIPOS>ATOM
      1 C          -0.0594   -0.1056    0.0012 C.ar    1  LIG1        0.1605
      2 N           1.2798   -0.0987    0.0011 N.ar    1  LIG1       -0.1339
      3 C           1.0952    2.1830   -0.0003 C.ar    1  LIG1        0.2033
      4 N          -0.8495    0.9755    0.0006 N.ar    1  LIG1       -0.1339
      5 N           1.8752    1.0774    0.0003 N.ar    1  LIG1       -0.1258
      6 N          -0.2574    2.1534   -0.0002 N.ar    1  LIG1       -0.1258
      7 H          -0.5481   -1.0744    0.0019 H       1  LIG1        0.1085
      8 C           1.0007    4.6804   -0.0020 C.ar    1  LIG1       -0.0503
      9 C           1.6268    5.9171   -0.0028 C.ar    1  LIG1       -0.0529
     10 C           1.7576    3.4960   -0.0012 C.ar    1  LIG1        0.0227
     11 C           3.0328    6.0271   -0.0028 C.ar    1  LIG1       -0.0113
     12 H           1.0145    6.8119   -0.0035 H       1  LIG1        0.0624
     13 C           3.1587    3.5917   -0.0012 C.ar    1  LIG1       -0.0503
     14 C           3.7794    4.8322   -0.0020 C.ar    1  LIG1       -0.0529
     15 H           3.7509    2.6841   -0.0006 H       1  LIG1        0.0625
     16 H          -0.0812    4.6157   -0.0020 H       1  LIG1        0.0625
     17 H           4.8645    4.8720   -0.0019 H       1  LIG1        0.0624
     18 C           3.6804    7.3411   -0.0036 C.ar    1  LIG1        0.0193
     19 C           3.0967    8.5911   -0.0037 C.ar    1  LIG1       -0.0469
     20 C           4.0303    9.6634   -0.0047 C.ar    1  LIG1       -0.0541
     21 C           5.3291    9.2336   -0.0052 C.ar    1  LIG1       -0.0237
     22 S           5.4299    7.5058   -0.0046 S.2     1  LIG1       -0.0967
     23 H           6.2337    9.8252   -0.0060 H       1  LIG1        0.0693
     24 H           2.0242    8.7449   -0.0031 H       1  LIG1        0.0629
     25 H           3.7472   10.7095   -0.0049 H       1  LIG1        0.0623
@<TRIPOS>BOND
     1    23    21    1
     2    21    20   ar
     3    21    22   ar
     4    25    20    1
     5    20    19   ar
     6    22    18   ar
     7    19    18   ar
     8    19    24    1
     9    18    11    1
    10    12     9    1
    11    11     9   ar
    12    11    14   ar
    13     9     8   ar
    14    14    17    1
    15    14    13   ar
    16     8    16    1
    17     8    10   ar
    18    13    10   ar
    19    13    15    1
    20    10     3    1
    21     3     6   ar
    22     3     5   ar
    23     6     4   ar
    24     5     2   ar
    25     4     1   ar
    26     2     1   ar
    27     1     7    1
