@<TRIPOS>MOLECULE
mol_data/opt/b3lyp/geoms/mol2/84-513-.out
 33 36 0 0 0
SMALL
GASTEIGER

@<TRIPOS>ATOM
      1 C          -0.1118   -0.1803    0.0022 C.ar    1  LIG1        0.1605
      2 N           1.2274   -0.1890    0.0023 N.ar    1  LIG1       -0.1339
      3 C           1.0705    2.0955    0.0001 C.ar    1  LIG1        0.2033
      4 N          -0.8889    0.9106    0.0011 N.ar    1  LIG1       -0.1339
      5 N           1.8371    0.9796    0.0012 N.ar    1  LIG1       -0.1258
      6 N          -0.2832    2.0811    0.0000 N.ar    1  LIG1       -0.1258
      7 H          -0.6120   -1.1429    0.0030 H       1  LIG1        0.1085
      8 C           1.0074    4.5930   -0.0024 C.ar    1  LIG1       -0.0503
      9 C           1.6508    5.8211   -0.0035 C.ar    1  LIG1       -0.0529
     10 C           1.7479    3.3990   -0.0011 C.ar    1  LIG1        0.0227
     11 C           3.0581    5.9149   -0.0034 C.ar    1  LIG1       -0.0113
     12 H           1.0491    6.7249   -0.0046 H       1  LIG1        0.0624
     13 C           3.1521    3.4780   -0.0010 C.ar    1  LIG1       -0.0503
     14 C           3.7903    4.7074   -0.0021 C.ar    1  LIG1       -0.0529
     15 H           3.7314    2.5620    0.0001 H       1  LIG1        0.0625
     16 H          -0.0752    4.5434   -0.0025 H       1  LIG1        0.0625
     17 H           4.8744    4.7325   -0.0018 H       1  LIG1        0.0624
     18 C           3.7431    7.2036   -0.0046 C.ar    1  LIG1        0.0200
     19 C           5.0980    7.4655   -0.0057 C.ar    1  LIG1       -0.0463
     20 C           5.4231    8.8421   -0.0068 C.ar    1  LIG1       -0.0449
     21 C           4.3186    9.6737   -0.0066 C.ar    1  LIG1        0.0360
     22 S           2.8509    8.7216   -0.0049 S.2     1  LIG1       -0.0868
     23 H           5.8520    6.6877   -0.0058 H       1  LIG1        0.0629
     24 H           6.4461    9.2023   -0.0079 H       1  LIG1        0.0630
     25 C           4.2600   11.1158   -0.0074 C.ar    1  LIG1        0.0531
     26 C           3.1786   11.9921   -0.0084 C.ar    1  LIG1       -0.0359
     27 C           3.6866   13.3136   -0.0085 C.ar    1  LIG1       -0.0438
     28 C           5.0648   13.2253   -0.0087 C.ar    1  LIG1        0.0022
     29 N           5.4017   11.8971   -0.0075 N.ar    1  LIG1       -0.3603
     30 H           6.3434   11.5412   -0.0066 H       1  LIG1        0.1653
     31 H           5.8239   13.9930   -0.0090 H       1  LIG1        0.0807
     32 H           2.1377   11.7009   -0.0087 H       1  LIG1        0.0639
     33 H           3.1112   14.2280   -0.0090 H       1  LIG1        0.0633
@<TRIPOS>BOND
     1    31    28    1
     2    33    27    1
     3    32    26    1
     4    28    27   ar
     5    28    29   ar
     6    27    26   ar
     7    26    25   ar
     8    24    20    1
     9    29    25   ar
    10    29    30    1
    11    25    21    1
    12    20    21   ar
    13    20    19   ar
    14    21    22   ar
    15    23    19    1
    16    19    18   ar
    17    22    18   ar
    18    18    11    1
    19    12     9    1
    20     9    11   ar
    21     9     8   ar
    22    11    14   ar
    23    16     8    1
    24     8    10   ar
    25    14    17    1
    26    14    13   ar
    27    10    13   ar
    28    10     3    1
    29    13    15    1
    30     6     3   ar
    31     6     4   ar
    32     3     5   ar
    33     4     1   ar
    34     5     2   ar
    35     1     2   ar
    36     1     7    1
