@<TRIPOS>MOLECULE
mol_data/opt/b3lyp/geoms/mol2/84-8.out
 24 26 0 0 0
SMALL
GASTEIGER

@<TRIPOS>ATOM
      1 C          -0.0613   -0.0701    0.0013 C.ar    1  LIG1        0.1605
      2 N           1.2779   -0.0719    0.0011 N.ar    1  LIG1       -0.1339
      3 C           1.1059    2.2088   -0.0003 C.ar    1  LIG1        0.2033
      4 N          -0.8452    1.0156    0.0007 N.ar    1  LIG1       -0.1339
      5 N           1.8796    1.1018    0.0003 N.ar    1  LIG1       -0.1258
      6 N          -0.2445    2.1897   -0.0001 N.ar    1  LIG1       -0.1258
      7 H          -0.5557   -1.0355    0.0020 H       1  LIG1        0.1085
      8 C           1.0226    4.7070   -0.0020 C.ar    1  LIG1       -0.0503
      9 C           1.6555    5.9429   -0.0028 C.ar    1  LIG1       -0.0503
     10 C           1.7792    3.5234   -0.0012 C.ar    1  LIG1        0.0227
     11 C           3.0581    6.0207   -0.0029 C.ar    1  LIG1        0.0227
     12 H           1.0744    6.8572   -0.0034 H       1  LIG1        0.0625
     13 C           3.1818    3.6012   -0.0013 C.ar    1  LIG1       -0.0503
     14 C           3.8147    4.8371   -0.0022 C.ar    1  LIG1       -0.0503
     15 H           3.7629    2.6868   -0.0007 H       1  LIG1        0.0625
     16 H          -0.0588    4.6439   -0.0019 H       1  LIG1        0.0625
     17 H           4.8965    4.9000   -0.0023 H       1  LIG1        0.0625
     18 C           3.7315    7.3354   -0.0038 C.ar    1  LIG1        0.2033
     19 N           5.0819    7.3545   -0.0042 N.ar    1  LIG1       -0.1258
     20 C           4.8987    9.6142   -0.0053 C.ar    1  LIG1        0.1605
     21 N           2.9579    8.4425   -0.0042 N.ar    1  LIG1       -0.1258
     22 N           5.6827    8.5286   -0.0050 N.ar    1  LIG1       -0.1339
     23 N           3.5595    9.6161   -0.0051 N.ar    1  LIG1       -0.1339
     24 H           5.3935   10.5802   -0.0061 H       1  LIG1        0.1085
@<TRIPOS>BOND
     1    24    20    1
     2    20    23   ar
     3    20    22   ar
     4    23    21   ar
     5    22    19   ar
     6    21    18   ar
     7    19    18   ar
     8    18    11    1
     9    12     9    1
    10    11     9   ar
    11    11    14   ar
    12     9     8   ar
    13    17    14    1
    14    14    13   ar
    15     8    16    1
    16     8    10   ar
    17    13    10   ar
    18    13    15    1
    19    10     3    1
    20     3     6   ar
    21     3     5   ar
    22     6     4   ar
    23     5     2   ar
    24     4     1   ar
    25     2     1   ar
    26     1     7    1
