@<TRIPOS>MOLECULE
mol_data/opt/b3lyp/geoms/mol2/84.out
 18 19 0 0 0
SMALL
GASTEIGER

@<TRIPOS>ATOM
      1 C           0.0007   -0.0428   -0.0005 C.ar    1  LIG1        0.1605
      2 N           1.3393   -0.0202   -0.0002 N.ar    1  LIG1       -0.1339
      3 C           1.1283    2.2593    0.0004 C.ar    1  LIG1        0.2033
      4 N          -0.8021    1.0286   -0.0005 N.ar    1  LIG1       -0.1339
      5 N           1.9201    1.1637    0.0003 N.ar    1  LIG1       -0.1258
      6 N          -0.2227    2.2133   -0.0000 N.ar    1  LIG1       -0.1258
      7 H          -0.4765   -1.0171   -0.0009 H       1  LIG1        0.1085
      8 C           3.1784    3.6860    0.0015 C.ar    1  LIG1       -0.0509
      9 C           3.7866    4.9380    0.0020 C.ar    1  LIG1       -0.0611
     10 C           1.7773    3.5843    0.0009 C.ar    1  LIG1        0.0226
     11 C           3.0082    6.0977    0.0019 C.ar    1  LIG1       -0.0617
     12 H           4.8700    5.0095    0.0024 H       1  LIG1        0.0618
     13 C           0.9984    4.7535    0.0008 C.ar    1  LIG1       -0.0509
     14 C           1.6145    6.0016    0.0013 C.ar    1  LIG1       -0.0611
     15 H          -0.0818    4.6686    0.0004 H       1  LIG1        0.0625
     16 H           3.4856    7.0731    0.0023 H       1  LIG1        0.0618
     17 H           3.7734    2.7806    0.0016 H       1  LIG1        0.0625
     18 H           1.0068    6.9012    0.0013 H       1  LIG1        0.0618
@<TRIPOS>BOND
     1     7     1    1
     2     1     4   ar
     3     1     2   ar
     4     4     6   ar
     5     2     5   ar
     6     6     3   ar
     7     5     3   ar
     8     3    10    1
     9    15    13    1
    10    13    10   ar
    11    13    14   ar
    12    10     8   ar
    13    18    14    1
    14    14    11   ar
    15     8    17    1
    16     8     9   ar
    17    11     9   ar
    18    11    16    1
    19     9    12    1
