@<TRIPOS>MOLECULE
mol_data/opt/b3lyp/geoms/mol2/8412.out
 25 27 0 0 0
SMALL
GASTEIGER

@<TRIPOS>ATOM
      1 C           0.0015   -0.1098   -0.0013 C.ar    1  LIG1        0.1605
      2 N           1.3401   -0.0738   -0.0007 N.ar    1  LIG1       -0.1339
      3 C           1.1065    2.2038    0.0003 C.ar    1  LIG1        0.2033
      4 N          -0.8118    0.9542   -0.0012 N.ar    1  LIG1       -0.1339
      5 N           1.9100    1.1150    0.0001 N.ar    1  LIG1       -0.1258
      6 N          -0.2455    2.1445   -0.0003 N.ar    1  LIG1       -0.1258
      7 H          -0.4662   -1.0888   -0.0020 H       1  LIG1        0.1085
      8 C           3.1418    3.6525    0.0020 C.ar    1  LIG1       -0.0503
      9 C           3.7386    4.9032    0.0028 C.ar    1  LIG1       -0.0504
     10 C           1.7405    3.5307    0.0012 C.ar    1  LIG1        0.0227
     11 C           2.9592    6.0766    0.0029 C.ar    1  LIG1        0.0173
     12 H           4.8214    4.9741    0.0035 H       1  LIG1        0.0625
     13 C           0.9580    4.6979    0.0013 C.ar    1  LIG1       -0.0503
     14 C           1.5568    5.9494    0.0022 C.ar    1  LIG1       -0.0504
     15 H          -0.1220    4.6088    0.0007 H       1  LIG1        0.0625
     16 H           3.7494    2.7551    0.0019 H       1  LIG1        0.0625
     17 H           0.9428    6.8426    0.0022 H       1  LIG1        0.0625
     18 C           3.5924    7.3850    0.0038 C.ar    1  LIG1        0.1348
     19 C           4.9000    7.8059    0.0044 C.ar    1  LIG1       -0.0159
     20 C           4.8760    9.2327    0.0052 C.ar    1  LIG1       -0.0233
     21 C           3.5605    9.5883    0.0050 C.ar    1  LIG1        0.0926
     22 O           2.7685    8.4832    0.0041 O.2     1  LIG1       -0.4629
     23 H           3.0464   10.5366    0.0053 H       1  LIG1        0.1029
     24 H           5.7764    7.1746    0.0044 H       1  LIG1        0.0655
     25 H           5.7234    9.9026    0.0058 H       1  LIG1        0.0649
@<TRIPOS>BOND
     1     7     1    1
     2     1     4   ar
     3     1     2   ar
     4     4     6   ar
     5     2     5   ar
     6     6     3   ar
     7     5     3   ar
     8     3    10    1
     9    15    13    1
    10    10    13   ar
    11    10     8   ar
    12    13    14   ar
    13    16     8    1
    14     8     9   ar
    15    14    17    1
    16    14    11   ar
    17     9    11   ar
    18     9    12    1
    19    11    18    1
    20    18    22   ar
    21    18    19   ar
    22    22    21   ar
    23    24    19    1
    24    19    20   ar
    25    21    20   ar
    26    21    23    1
    27    20    25    1
