@<TRIPOS>MOLECULE
mol_data/opt/b3lyp/geoms/mol2/8412-.out
 25 27 0 0 0
SMALL
GASTEIGER

@<TRIPOS>ATOM
      1 C          -0.0464   -0.0865   -0.0013 C.ar    1  LIG1        0.1605
      2 N           1.2928   -0.0729   -0.0007 N.ar    1  LIG1       -0.1339
      3 C           1.0975    2.2082    0.0003 C.ar    1  LIG1        0.2033
      4 N          -0.8417    0.9909   -0.0011 N.ar    1  LIG1       -0.1339
      5 N           1.8826    1.1059    0.0001 N.ar    1  LIG1       -0.1258
      6 N          -0.2552    2.1716   -0.0003 N.ar    1  LIG1       -0.1258
      7 H          -0.5304   -1.0575   -0.0020 H       1  LIG1        0.1085
      8 C           3.1551    3.6254    0.0020 C.ar    1  LIG1       -0.0503
      9 C           3.7735    4.8674    0.0028 C.ar    1  LIG1       -0.0504
     10 C           1.7535    3.5244    0.0012 C.ar    1  LIG1        0.0227
     11 C           3.0113    6.0512    0.0029 C.ar    1  LIG1        0.0173
     12 H           4.8553    4.9326    0.0034 H       1  LIG1        0.0625
     13 C           0.9875    4.7041    0.0013 C.ar    1  LIG1       -0.0503
     14 C           1.6065    5.9440    0.0022 C.ar    1  LIG1       -0.0504
     15 H          -0.0937    4.6314    0.0007 H       1  LIG1        0.0625
     16 H           3.7490    2.7189    0.0019 H       1  LIG1        0.0625
     17 H           0.9963    6.8414    0.0022 H       1  LIG1        0.0625
     18 C           3.6532    7.3554    0.0038 C.ar    1  LIG1        0.1348
     19 C           3.1806    8.6452    0.0044 C.ar    1  LIG1       -0.0159
     20 C           4.3203    9.5040    0.0052 C.ar    1  LIG1       -0.0233
     21 C           5.4099    8.6856    0.0051 C.ar    1  LIG1        0.0926
     22 O           5.0258    7.3814    0.0043 O.2     1  LIG1       -0.4629
     23 H           6.4737    8.8636    0.0055 H       1  LIG1        0.1029
     24 H           2.1437    8.9478    0.0043 H       1  LIG1        0.0655
     25 H           4.3272   10.5842    0.0058 H       1  LIG1        0.0649
@<TRIPOS>BOND
     1     7     1    1
     2     1     4   ar
     3     1     2   ar
     4     4     6   ar
     5     2     5   ar
     6     6     3   ar
     7     5     3   ar
     8     3    10    1
     9    15    13    1
    10    10    13   ar
    11    10     8   ar
    12    13    14   ar
    13    16     8    1
    14     8     9   ar
    15    14    17    1
    16    14    11   ar
    17     9    11   ar
    18     9    12    1
    19    11    18    1
    20    18    22   ar
    21    18    19   ar
    22    24    19    1
    23    22    21   ar
    24    19    20   ar
    25    21    20   ar
    26    21    23    1
    27    20    25    1
