@<TRIPOS>MOLECULE
mol_data/opt/b3lyp/geoms/mol2/8413-8.out
 32 35 0 0 0
SMALL
GASTEIGER

@<TRIPOS>ATOM
      1 C          -0.0935   -0.1334   -0.0013 C.ar    1  LIG1        0.1605
      2 N           1.2458   -0.1206   -0.0003 N.ar    1  LIG1       -0.1339
      3 C           1.0504    2.1595    0.0002 C.ar    1  LIG1        0.2033
      4 N          -0.8886    0.9442   -0.0015 N.ar    1  LIG1       -0.1339
      5 N           1.8355    1.0583    0.0004 N.ar    1  LIG1       -0.1258
      6 N          -0.3015    2.1247   -0.0007 N.ar    1  LIG1       -0.1258
      7 H          -0.5779   -1.1043   -0.0019 H       1  LIG1        0.1085
      8 C           3.1086    3.5752    0.0022 C.ar    1  LIG1       -0.0503
      9 C           3.7259    4.8174    0.0031 C.ar    1  LIG1       -0.0520
     10 C           1.7077    3.4760    0.0011 C.ar    1  LIG1        0.0227
     11 C           2.9726    6.0082    0.0028 C.ar    1  LIG1       -0.0017
     12 H           4.8110    4.8496    0.0040 H       1  LIG1        0.0624
     13 C           0.9457    4.6571    0.0009 C.ar    1  LIG1       -0.0503
     14 C           1.5674    5.8958    0.0017 C.ar    1  LIG1       -0.0520
     15 H          -0.1358    4.5877    0.0000 H       1  LIG1        0.0625
     16 H           3.7025    2.6687    0.0025 H       1  LIG1        0.0625
     17 H           0.9560    6.7915    0.0014 H       1  LIG1        0.0624
     18 C           3.6047    7.3226    0.0037 C.ar    1  LIG1        0.0470
     19 C           3.0332    8.6041    0.0045 C.ar    1  LIG1       -0.0357
     20 C           4.0708    9.5484    0.0050 C.ar    1  LIG1       -0.0326
     21 C           5.2712    8.8392    0.0048 C.ar    1  LIG1        0.0879
     22 N           4.9637    7.4994    0.0039 N.ar    1  LIG1       -0.3516
     23 H           5.6787    6.7872    0.0034 H       1  LIG1        0.1660
     24 H           1.9756    8.8214    0.0046 H       1  LIG1        0.0639
     25 H           3.9862   10.6244    0.0056 H       1  LIG1        0.0640
     26 C           6.6423    9.2784    0.0052 C.ar    1  LIG1        0.2193
     27 N           7.5965    8.3155    0.0048 N.ar    1  LIG1       -0.1243
     28 C           9.0871   10.0218    0.0060 C.ar    1  LIG1        0.1605
     29 N           6.8916   10.6118    0.0060 N.ar    1  LIG1       -0.1243
     30 N           8.8562    8.7031    0.0052 N.ar    1  LIG1       -0.1338
     31 N           8.1522   10.9864    0.0063 N.ar    1  LIG1       -0.1338
     32 H          10.1235   10.3415    0.0061 H       1  LIG1        0.1085
@<TRIPOS>BOND
     1     7     1    1
     2     4     1   ar
     3     4     6   ar
     4     1     2   ar
     5     6     3   ar
     6     2     5   ar
     7    15    13    1
     8     3     5   ar
     9     3    10    1
    10    13    10   ar
    11    13    14   ar
    12    10     8   ar
    13    17    14    1
    14    14    11   ar
    15     8    16    1
    16     8     9   ar
    17    11     9   ar
    18    11    18    1
    19     9    12    1
    20    23    22    1
    21    18    22   ar
    22    18    19   ar
    23    22    21   ar
    24    19    24    1
    25    19    20   ar
    26    21    20   ar
    27    21    26    1
    28    27    30   ar
    29    27    26   ar
    30    20    25    1
    31    30    28   ar
    32    26    29   ar
    33    29    31   ar
    34    28    32    1
    35    28    31   ar
