@<TRIPOS>MOLECULE
mol_data/opt/b3lyp/geoms/mol2/844-.out
 28 30 0 0 0
SMALL
GASTEIGER

@<TRIPOS>ATOM
      1 C          -0.0631   -0.1457   -0.0008 C.ar    1  LIG1        0.1605
      2 N           1.2758   -0.1260    0.0001 N.ar    1  LIG1       -0.1339
      3 C           1.0698    2.1537    0.0003 C.ar    1  LIG1        0.2033
      4 N          -0.8634    0.9280   -0.0012 N.ar    1  LIG1       -0.1339
      5 N           1.8601    1.0558    0.0007 N.ar    1  LIG1       -0.1258
      6 N          -0.2823    2.1114   -0.0006 N.ar    1  LIG1       -0.1258
      7 H          -0.5426   -1.1188   -0.0013 H       1  LIG1        0.1085
      8 C           3.1191    3.5852    0.0021 C.ar    1  LIG1       -0.0504
      9 C           3.7271    4.8328    0.0027 C.ar    1  LIG1       -0.0534
     10 C           1.7201    3.4735    0.0010 C.ar    1  LIG1        0.0227
     11 C           2.9786    6.0271    0.0023 C.ar    1  LIG1       -0.0178
     12 H           4.8098    4.8647    0.0037 H       1  LIG1        0.0624
     13 C           0.9566    4.6509    0.0006 C.ar    1  LIG1       -0.0504
     14 C           1.5754    5.8932    0.0012 C.ar    1  LIG1       -0.0534
     15 H          -0.1249    4.5806   -0.0003 H       1  LIG1        0.0625
     16 H           3.7221    2.6849    0.0025 H       1  LIG1        0.0625
     17 H           0.9411    6.7713    0.0007 H       1  LIG1        0.0624
     18 C           2.8859    8.5555    0.0035 C.ar    1  LIG1       -0.0540
     19 C           3.5001    9.8052    0.0042 C.ar    1  LIG1       -0.0612
     20 C           3.6376    7.3646    0.0030 C.ar    1  LIG1       -0.0179
     21 C           4.8910    9.9090    0.0043 C.ar    1  LIG1       -0.0617
     22 H           2.8861   10.7010    0.0046 H       1  LIG1        0.0618
     23 C           5.0398    7.4944    0.0031 C.ar    1  LIG1       -0.0540
     24 C           5.6564    8.7430    0.0038 C.ar    1  LIG1       -0.0612
     25 H           5.6722    6.6146    0.0026 H       1  LIG1        0.0624
     26 H           5.3708   10.8829    0.0048 H       1  LIG1        0.0618
     27 H           1.8029    8.5205    0.0036 H       1  LIG1        0.0624
     28 H           6.7408    8.8022    0.0038 H       1  LIG1        0.0618
@<TRIPOS>BOND
     1     7     1    1
     2     4     1   ar
     3     4     6   ar
     4     1     2   ar
     5     6     3   ar
     6    15    13    1
     7     2     5   ar
     8     3     5   ar
     9     3    10    1
    10    13    10   ar
    11    13    14   ar
    12    17    14    1
    13    10     8   ar
    14    14    11   ar
    15     8    16    1
    16     8     9   ar
    17    11     9   ar
    18    11    20    1
    19    25    23    1
    20     9    12    1
    21    20    23   ar
    22    20    18   ar
    23    23    24   ar
    24    18    27    1
    25    18    19   ar
    26    24    28    1
    27    24    21   ar
    28    19    21   ar
    29    19    22    1
    30    21    26    1
