@<TRIPOS>MOLECULE
mol_data/opt/b3lyp/geoms/mol2/84412.out
 35 38 0 0 0
SMALL
GASTEIGER

@<TRIPOS>ATOM
      1 C          -0.0380   -0.2409   -0.0037 C.ar    1  LIG1        0.1605
      2 N           1.3006   -0.2017   -0.0023 N.ar    1  LIG1       -0.1339
      3 C           1.0615    2.0751   -0.0007 C.ar    1  LIG1        0.2033
      4 N          -0.8537    0.8211   -0.0037 N.ar    1  LIG1       -0.1339
      5 N           1.8677    0.9884   -0.0008 N.ar    1  LIG1       -0.1258
      6 N          -0.2901    2.0128   -0.0022 N.ar    1  LIG1       -0.1258
      7 H          -0.5033   -1.2210   -0.0050 H       1  LIG1        0.1085
      8 C           3.0897    3.5361    0.0027 C.ar    1  LIG1       -0.0504
      9 C           3.6796    4.7918    0.0043 C.ar    1  LIG1       -0.0534
     10 C           1.6921    3.4035    0.0010 C.ar    1  LIG1        0.0227
     11 C           2.9135    5.9760    0.0044 C.ar    1  LIG1       -0.0178
     12 H           4.7618    4.8397    0.0057 H       1  LIG1        0.0624
     13 C           0.9115    4.5703    0.0011 C.ar    1  LIG1       -0.0504
     14 C           1.5116    5.8211    0.0027 C.ar    1  LIG1       -0.0534
     15 H          -0.1688    4.4841   -0.0002 H       1  LIG1        0.0625
     16 H           3.7057    2.6444    0.0027 H       1  LIG1        0.0625
     17 H           0.8650    6.6905    0.0026 H       1  LIG1        0.0624
     18 C           4.9517    7.4759    0.0071 C.ar    1  LIG1       -0.0534
     19 C           5.5499    8.7270    0.0087 C.ar    1  LIG1       -0.0505
     20 C           3.5506    7.3191    0.0062 C.ar    1  LIG1       -0.0178
     21 C           4.7768    9.9011    0.0095 C.ar    1  LIG1        0.0173
     22 H           6.6334    8.7929    0.0093 H       1  LIG1        0.0625
     23 C           2.7881    8.5035    0.0070 C.ar    1  LIG1       -0.0534
     24 C           3.3786    9.7598    0.0086 C.ar    1  LIG1       -0.0505
     25 H           1.7055    8.4582    0.0065 H       1  LIG1        0.0624
     26 H           5.6004    6.6084    0.0064 H       1  LIG1        0.0624
     27 H           2.7547   10.6465    0.0093 H       1  LIG1        0.0625
     28 C           5.4060   11.2120    0.0112 C.ar    1  LIG1        0.1348
     29 C           6.7115   11.6379    0.0121 C.ar    1  LIG1       -0.0159
     30 C           6.6817   13.0655    0.0137 C.ar    1  LIG1       -0.0233
     31 C           5.3656   13.4163    0.0136 C.ar    1  LIG1        0.0926
     32 O           4.5775   12.3067    0.0122 O.2     1  LIG1       -0.4629
     33 H           4.8470   14.3620    0.0145 H       1  LIG1        0.1029
     34 H           7.5903   11.0102    0.0117 H       1  LIG1        0.0655
     35 H           7.5267   13.7384    0.0147 H       1  LIG1        0.0649
@<TRIPOS>BOND
     1     7     1    1
     2     1     4   ar
     3     1     2   ar
     4     4     6   ar
     5     2     5   ar
     6     6     3   ar
     7     5     3   ar
     8     3    10    1
     9    15    13    1
    10    10    13   ar
    11    10     8   ar
    12    13    14   ar
    13    17    14    1
    14     8    16    1
    15     8     9   ar
    16    14    11   ar
    17     9    11   ar
    18     9    12    1
    19    11    20    1
    20    20    23   ar
    21    20    18   ar
    22    26    18    1
    23    25    23    1
    24    23    24   ar
    25    18    19   ar
    26    24    27    1
    27    24    21   ar
    28    19    22    1
    29    19    21   ar
    30    21    28    1
    31    28    29   ar
    32    28    32   ar
    33    34    29    1
    34    29    30   ar
    35    32    31   ar
    36    31    30   ar
    37    31    33    1
    38    30    35    1
