@<TRIPOS>MOLECULE
mol_data/opt/b3lyp/geoms/mol2/8448-.out
 34 37 0 0 0
SMALL
GASTEIGER

@<TRIPOS>ATOM
      1 C          -0.0536   -0.2203   -0.0037 C.ar    1  LIG1        0.1605
      2 N           1.2851   -0.1877   -0.0023 N.ar    1  LIG1       -0.1339
      3 C           1.0560    2.0890   -0.0007 C.ar    1  LIG1        0.2033
      4 N          -0.8647    0.8453   -0.0037 N.ar    1  LIG1       -0.1339
      5 N           1.8573    1.0003   -0.0008 N.ar    1  LIG1       -0.1258
      6 N          -0.2948    2.0344   -0.0021 N.ar    1  LIG1       -0.1258
      7 H          -0.5235   -1.1982   -0.0050 H       1  LIG1        0.1085
      8 C           3.0916    3.5407    0.0027 C.ar    1  LIG1       -0.0504
      9 C           3.6877    4.7940    0.0043 C.ar    1  LIG1       -0.0534
     10 C           1.6938    3.4165    0.0010 C.ar    1  LIG1        0.0227
     11 C           2.9256    5.9798    0.0044 C.ar    1  LIG1       -0.0178
     12 H           4.7698    4.8368    0.0056 H       1  LIG1        0.0624
     13 C           0.9175    4.5854    0.0011 C.ar    1  LIG1       -0.0504
     14 C           1.5236    5.8339    0.0027 C.ar    1  LIG1       -0.0534
     15 H          -0.1631    4.5036   -0.0002 H       1  LIG1        0.0625
     16 H           3.7028    2.6459    0.0027 H       1  LIG1        0.0625
     17 H           0.8809    6.7058    0.0026 H       1  LIG1        0.0624
     18 C           4.9723    7.4679    0.0069 C.ar    1  LIG1       -0.0534
     19 C           5.5782    8.7165    0.0085 C.ar    1  LIG1       -0.0504
     20 C           3.5703    7.3218    0.0061 C.ar    1  LIG1       -0.0178
     21 C           4.8017    9.8852    0.0094 C.ar    1  LIG1        0.0227
     22 H           6.6587    8.7984    0.0091 H       1  LIG1        0.0625
     23 C           2.8081    8.5075    0.0070 C.ar    1  LIG1       -0.0534
     24 C           3.4040    9.7608    0.0087 C.ar    1  LIG1       -0.0504
     25 H           1.7259    8.4644    0.0066 H       1  LIG1        0.0624
     26 H           5.6149    6.5963    0.0062 H       1  LIG1        0.0624
     27 H           2.7926   10.6556    0.0094 H       1  LIG1        0.0625
     28 C           5.4394   11.2129    0.0112 C.ar    1  LIG1        0.2033
     29 N           4.6379   12.3015    0.0122 N.ar    1  LIG1       -0.1258
     30 C           6.5486   13.5224    0.0143 C.ar    1  LIG1        0.1605
     31 N           6.7901   11.2678    0.0116 N.ar    1  LIG1       -0.1258
     32 N           5.2099   13.4896    0.0138 N.ar    1  LIG1       -0.1339
     33 N           7.3599   12.4569    0.0132 N.ar    1  LIG1       -0.1339
     34 H           7.0183   14.5002    0.0151 H       1  LIG1        0.1085
@<TRIPOS>BOND
     1     7     1    1
     2     1     4   ar
     3     1     2   ar
     4     4     6   ar
     5     2     5   ar
     6     6     3   ar
     7     5     3   ar
     8     3    10    1
     9    15    13    1
    10    10    13   ar
    11    10     8   ar
    12    13    14   ar
    13    17    14    1
    14     8    16    1
    15     8     9   ar
    16    14    11   ar
    17     9    11   ar
    18     9    12    1
    19    11    20    1
    20    20    18   ar
    21    20    23   ar
    22    26    18    1
    23    25    23    1
    24    18    19   ar
    25    23    24   ar
    26    19    22    1
    27    19    21   ar
    28    24    27    1
    29    24    21   ar
    30    21    28    1
    31    28    31   ar
    32    28    29   ar
    33    31    33   ar
    34    29    32   ar
    35    33    30   ar
    36    32    30   ar
    37    30    34    1
