@<TRIPOS>MOLECULE
mol_data/opt/b3lyp/geoms/mol2/845-.out
 25 27 0 0 0
SMALL
GASTEIGER

@<TRIPOS>ATOM
      1 C          -0.0166   -0.1266   -0.0015 C.ar    1  LIG1        0.1605
      2 N           1.3223   -0.0937   -0.0008 N.ar    1  LIG1       -0.1339
      3 C           1.0936    2.1840    0.0002 C.ar    1  LIG1        0.2033
      4 N          -0.8275    0.9390   -0.0014 N.ar    1  LIG1       -0.1339
      5 N           1.8948    1.0936    0.0001 N.ar    1  LIG1       -0.1258
      6 N          -0.2582    2.1281   -0.0005 N.ar    1  LIG1       -0.1258
      7 H          -0.4863   -1.1046   -0.0022 H       1  LIG1        0.1085
      8 C           3.1295    3.6320    0.0021 C.ar    1  LIG1       -0.0503
      9 C           3.7262    4.8842    0.0030 C.ar    1  LIG1       -0.0529
     10 C           1.7304    3.5095    0.0012 C.ar    1  LIG1        0.0227
     11 C           2.9569    6.0645    0.0031 C.ar    1  LIG1       -0.0113
     12 H           4.8102    4.9449    0.0038 H       1  LIG1        0.0624
     13 C           0.9510    4.6791    0.0012 C.ar    1  LIG1       -0.0503
     14 C           1.5531    5.9276    0.0022 C.ar    1  LIG1       -0.0529
     15 H          -0.1294    4.5938    0.0005 H       1  LIG1        0.0625
     16 H           3.7387    2.7357    0.0021 H       1  LIG1        0.0625
     17 H           0.9237    6.8106    0.0021 H       1  LIG1        0.0624
     18 C           3.5789    7.3907    0.0041 C.ar    1  LIG1        0.0193
     19 C           2.9713    8.6293    0.0050 C.ar    1  LIG1       -0.0469
     20 C           3.8841    9.7193    0.0058 C.ar    1  LIG1       -0.0541
     21 C           5.1910    9.3145    0.0055 C.ar    1  LIG1       -0.0237
     22 S           5.3249    7.5890    0.0042 S.2     1  LIG1       -0.0967
     23 H           6.0840    9.9234    0.0059 H       1  LIG1        0.0693
     24 H           1.8961    8.7624    0.0052 H       1  LIG1        0.0629
     25 H           3.5811   10.7598    0.0066 H       1  LIG1        0.0623
@<TRIPOS>BOND
     1     7     1    1
     2     1     4   ar
     3     1     2   ar
     4     4     6   ar
     5     2     5   ar
     6     6     3   ar
     7     5     3   ar
     8     3    10    1
     9    15    13    1
    10    10    13   ar
    11    10     8   ar
    12    13    14   ar
    13    16     8    1
    14     8     9   ar
    15    17    14    1
    16    14    11   ar
    17     9    11   ar
    18     9    12    1
    19    11    18    1
    20    18    22   ar
    21    18    19   ar
    22    22    21   ar
    23    19    24    1
    24    19    20   ar
    25    21    20   ar
    26    21    23    1
    27    20    25    1
