@<TRIPOS>MOLECULE
mol_data/opt/b3lyp/geoms/mol2/845.out
 25 27 0 0 0
SMALL
GASTEIGER

@<TRIPOS>ATOM
      1 C          -0.0489   -0.1109   -0.0012 C.ar    1  LIG1        0.1605
      2 N           1.2901   -0.0946   -0.0006 N.ar    1  LIG1       -0.1339
      3 C           1.0897    2.1858    0.0003 C.ar    1  LIG1        0.2033
      4 N          -0.8466    0.9648   -0.0012 N.ar    1  LIG1       -0.1339
      5 N           1.8773    1.0858    0.0002 N.ar    1  LIG1       -0.1258
      6 N          -0.2628    2.1466   -0.0004 N.ar    1  LIG1       -0.1258
      7 H          -0.5308   -1.0830   -0.0019 H       1  LIG1        0.1085
      8 C           3.1446    3.6082    0.0020 C.ar    1  LIG1       -0.0503
      9 C           3.7585    4.8510    0.0028 C.ar    1  LIG1       -0.0529
     10 C           1.7429    3.5034    0.0012 C.ar    1  LIG1        0.0227
     11 C           3.0032    6.0420    0.0028 C.ar    1  LIG1       -0.0113
     12 H           4.8418    4.8978    0.0036 H       1  LIG1        0.0624
     13 C           0.9791    4.6818    0.0012 C.ar    1  LIG1       -0.0503
     14 C           1.5992    5.9225    0.0020 C.ar    1  LIG1       -0.0529
     15 H          -0.1023    4.6112    0.0005 H       1  LIG1        0.0625
     16 H           3.7418    2.7038    0.0020 H       1  LIG1        0.0625
     17 H           0.9802    6.8146    0.0018 H       1  LIG1        0.0624
     18 C           3.6661    7.3482    0.0036 C.ar    1  LIG1        0.0193
     19 C           5.0164    7.6311    0.0034 C.ar    1  LIG1       -0.0469
     20 C           5.3143    9.0212    0.0045 C.ar    1  LIG1       -0.0541
     21 C           4.1913    9.8026    0.0054 C.ar    1  LIG1       -0.0237
     22 S           2.7484    8.8469    0.0050 S.2     1  LIG1       -0.0967
     23 H           4.1220   10.8813    0.0063 H       1  LIG1        0.0693
     24 H           5.7827    6.8652    0.0025 H       1  LIG1        0.0629
     25 H           6.3211    9.4223    0.0045 H       1  LIG1        0.0623
@<TRIPOS>BOND
     1     7     1    1
     2     1     4   ar
     3     1     2   ar
     4     4     6   ar
     5     2     5   ar
     6     6     3   ar
     7     5     3   ar
     8     3    10    1
     9    15    13    1
    10    10    13   ar
    11    10     8   ar
    12    13    14   ar
    13    17    14    1
    14    14    11   ar
    15     8    16    1
    16     8     9   ar
    17    24    19    1
    18    11     9   ar
    19    11    18    1
    20     9    12    1
    21    19    18   ar
    22    19    20   ar
    23    18    22   ar
    24    20    25    1
    25    20    21   ar
    26    22    21   ar
    27    21    23    1
