@<TRIPOS>MOLECULE
mol_data/opt/b3lyp/geoms/mol2/8454-.out
 35 38 0 0 0
SMALL
GASTEIGER

@<TRIPOS>ATOM
      1 C          -0.0693   -0.2326   -0.0014 C.ar    1  LIG1        0.1605
      2 N           1.2697   -0.2142   -0.0007 N.ar    1  LIG1       -0.1339
      3 C           1.0659    2.0660    0.0002 C.ar    1  LIG1        0.2033
      4 N          -0.8688    0.8420   -0.0012 N.ar    1  LIG1       -0.1339
      5 N           1.8552    0.9669    0.0001 N.ar    1  LIG1       -0.1258
      6 N          -0.2867    2.0246   -0.0004 N.ar    1  LIG1       -0.1258
      7 H          -0.5497   -1.2053   -0.0020 H       1  LIG1        0.1085
      8 C           3.1188    3.4909    0.0019 C.ar    1  LIG1       -0.0503
      9 C           3.7314    4.7340    0.0028 C.ar    1  LIG1       -0.0529
     10 C           1.7169    3.3841    0.0011 C.ar    1  LIG1        0.0227
     11 C           2.9739    5.9247    0.0028 C.ar    1  LIG1       -0.0113
     12 H           4.8146    4.7816    0.0035 H       1  LIG1        0.0624
     13 C           0.9512    4.5616    0.0012 C.ar    1  LIG1       -0.0503
     14 C           1.5694    5.8030    0.0020 C.ar    1  LIG1       -0.0529
     15 H          -0.1301    4.4893    0.0005 H       1  LIG1        0.0625
     16 H           3.7164    2.5873    0.0020 H       1  LIG1        0.0625
     17 H           0.9495    6.6945    0.0019 H       1  LIG1        0.0624
     18 C           3.6333    7.2291    0.0036 C.ar    1  LIG1        0.0199
     19 C           4.9830    7.5167    0.0035 C.ar    1  LIG1       -0.0463
     20 C           5.2777    8.9001    0.0045 C.ar    1  LIG1       -0.0463
     21 C           4.1624    9.7125    0.0053 C.ar    1  LIG1        0.0199
     22 S           2.7145    8.7247    0.0049 S.2     1  LIG1       -0.0883
     23 H           5.7527    6.7547    0.0027 H       1  LIG1        0.0629
     24 H           6.2910    9.2823    0.0045 H       1  LIG1        0.0629
     25 C           2.8590   11.8582    0.0065 C.ar    1  LIG1       -0.0535
     26 C           2.8059   13.2494    0.0075 C.ar    1  LIG1       -0.0612
     27 C           4.0913   11.1781    0.0064 C.ar    1  LIG1       -0.0113
     28 C           3.9819   14.0003    0.0085 C.ar    1  LIG1       -0.0617
     29 H           1.8408   13.7473    0.0076 H       1  LIG1        0.0618
     30 C           5.2690   11.9510    0.0073 C.ar    1  LIG1       -0.0535
     31 C           5.2131   13.3412    0.0083 C.ar    1  LIG1       -0.0612
     32 H           6.2374   11.4625    0.0073 H       1  LIG1        0.0624
     33 H           3.9404   15.0853    0.0093 H       1  LIG1        0.0618
     34 H           1.9301   11.2951    0.0058 H       1  LIG1        0.0624
     35 H           6.1367   13.9128    0.0091 H       1  LIG1        0.0618
@<TRIPOS>BOND
     1     7     1    1
     2     1     4   ar
     3     1     2   ar
     4     4     6   ar
     5     2     5   ar
     6     6     3   ar
     7     5     3   ar
     8     3    10    1
     9    15    13    1
    10    10    13   ar
    11    10     8   ar
    12    13    14   ar
    13    17    14    1
    14     8    16    1
    15     8     9   ar
    16    14    11   ar
    17    23    19    1
    18     9    11   ar
    19     9    12    1
    20    11    18    1
    21    19    18   ar
    22    19    20   ar
    23    18    22   ar
    24    24    20    1
    25    20    21   ar
    26    22    21   ar
    27    21    27    1
    28    34    25    1
    29    27    25   ar
    30    27    30   ar
    31    25    26   ar
    32    32    30    1
    33    30    31   ar
    34    26    29    1
    35    26    28   ar
    36    31    28   ar
    37    31    35    1
    38    28    33    1
