@<TRIPOS>MOLECULE
mol_data/opt/b3lyp/geoms/mol2/848-.out
 24 26 0 0 0
SMALL
GASTEIGER

@<TRIPOS>ATOM
      1 C          -0.0193   -0.0910   -0.0013 C.ar    1  LIG1        0.1605
      2 N           1.3196   -0.0671   -0.0007 N.ar    1  LIG1       -0.1339
      3 C           1.1039    2.2098    0.0003 C.ar    1  LIG1        0.2033
      4 N          -0.8240    0.9793   -0.0011 N.ar    1  LIG1       -0.1339
      5 N           1.8986    1.1178    0.0001 N.ar    1  LIG1       -0.1258
      6 N          -0.2459    2.1647   -0.0003 N.ar    1  LIG1       -0.1258
      7 H          -0.4952   -1.0658   -0.0020 H       1  LIG1        0.1085
      8 C           3.1528    3.6417    0.0020 C.ar    1  LIG1       -0.0503
      9 C           3.7619    4.8894    0.0028 C.ar    1  LIG1       -0.0503
     10 C           1.7519    3.5371    0.0012 C.ar    1  LIG1        0.0227
     11 C           2.9829    6.0583    0.0029 C.ar    1  LIG1        0.0227
     12 H           4.8421    4.9730    0.0034 H       1  LIG1        0.0625
     13 C           0.9728    4.7060    0.0013 C.ar    1  LIG1       -0.0503
     14 C           1.5820    5.9537    0.0022 C.ar    1  LIG1       -0.0503
     15 H          -0.1074    4.6224    0.0007 H       1  LIG1        0.0625
     16 H           3.7509    2.7385    0.0019 H       1  LIG1        0.0625
     17 H           0.9835    6.8570    0.0022 H       1  LIG1        0.0625
     18 C           3.6309    7.3858    0.0038 C.ar    1  LIG1        0.2033
     19 N           2.8361    8.4776    0.0042 N.ar    1  LIG1       -0.1258
     20 C           4.7540    9.6865    0.0053 C.ar    1  LIG1        0.1605
     21 N           4.9807    7.4308    0.0043 N.ar    1  LIG1       -0.1258
     22 N           3.4151    9.6627    0.0050 N.ar    1  LIG1       -0.1339
     23 N           5.5588    8.6162    0.0051 N.ar    1  LIG1       -0.1339
     24 H           5.2301   10.6619    0.0062 H       1  LIG1        0.1085
@<TRIPOS>BOND
     1     7     1    1
     2     1     4   ar
     3     1     2   ar
     4     4     6   ar
     5     2     5   ar
     6     6     3   ar
     7     5     3   ar
     8     3    10    1
     9    15    13    1
    10    10    13   ar
    11    10     8   ar
    12    13    14   ar
    13    16     8    1
    14     8     9   ar
    15    14    17    1
    16    14    11   ar
    17     9    11   ar
    18     9    12    1
    19    11    18    1
    20    18    19   ar
    21    18    21   ar
    22    19    22   ar
    23    21    23   ar
    24    22    20   ar
    25    23    20   ar
    26    20    24    1
