@<TRIPOS>MOLECULE
mol_data/opt/b3lyp/geoms/mol2/848-5-.out
 31 34 0 0 0
SMALL
GASTEIGER

@<TRIPOS>ATOM
      1 C          -0.0221   -0.1498   -0.0021 C.ar    1  LIG1        0.1605
      2 N           1.3166   -0.1181   -0.0015 N.ar    1  LIG1       -0.1339
      3 C           1.0882    2.1583   -0.0001 C.ar    1  LIG1        0.2033
      4 N          -0.8328    0.9160   -0.0018 N.ar    1  LIG1       -0.1339
      5 N           1.8890    1.0699   -0.0004 N.ar    1  LIG1       -0.1258
      6 N          -0.2619    2.1047   -0.0007 N.ar    1  LIG1       -0.1258
      7 H          -0.4926   -1.1277   -0.0030 H       1  LIG1        0.1085
      8 C           3.1285    3.6018    0.0020 C.ar    1  LIG1       -0.0503
      9 C           3.7304    4.8527    0.0031 C.ar    1  LIG1       -0.0503
     10 C           1.7280    3.4880    0.0011 C.ar    1  LIG1        0.0227
     11 C           2.9456    6.0185    0.0034 C.ar    1  LIG1        0.0227
     12 H           4.8101    4.9421    0.0037 H       1  LIG1        0.0625
     13 C           0.9430    4.6533    0.0014 C.ar    1  LIG1       -0.0503
     14 C           1.5449    5.9042    0.0026 C.ar    1  LIG1       -0.0503
     15 H          -0.1368    4.5640    0.0008 H       1  LIG1        0.0625
     16 H           3.7324    2.7021    0.0017 H       1  LIG1        0.0625
     17 H           0.9409    6.8041    0.0028 H       1  LIG1        0.0625
     18 C           3.5852    7.3477    0.0046 C.ar    1  LIG1        0.2034
     19 N           2.7876    8.4389    0.0051 N.ar    1  LIG1       -0.1252
     20 C           4.7019    9.6775    0.0067 C.ar    1  LIG1        0.2099
     21 N           4.9338    7.4067    0.0051 N.ar    1  LIG1       -0.1252
     22 N           3.3485    9.6235    0.0061 N.ar    1  LIG1       -0.1247
     23 N           5.5029    8.5877    0.0062 N.ar    1  LIG1       -0.1247
     24 C           5.3302   10.9819    0.0078 C.ar    1  LIG1        0.0598
     25 C           4.7108   12.2146    0.0085 C.ar    1  LIG1       -0.0438
     26 C           5.6326   13.2926    0.0096 C.ar    1  LIG1       -0.0540
     27 C           6.9377   12.8670    0.0096 C.ar    1  LIG1       -0.0236
     28 S           7.0714   11.1438    0.0085 S.2     1  LIG1       -0.0934
     29 H           7.8332   13.4731    0.0104 H       1  LIG1        0.0693
     30 H           3.6330   12.3173    0.0082 H       1  LIG1        0.0630
     31 H           5.3440   14.3368    0.0103 H       1  LIG1        0.0623
@<TRIPOS>BOND
     1     7     1    1
     2     1     4   ar
     3     1     2   ar
     4     4     6   ar
     5     2     5   ar
     6     6     3   ar
     7     5     3   ar
     8     3    10    1
     9    15    13    1
    10    10    13   ar
    11    10     8   ar
    12    13    14   ar
    13    16     8    1
    14     8     9   ar
    15    14    17    1
    16    14    11   ar
    17     9    11   ar
    18     9    12    1
    19    11    18    1
    20    18    19   ar
    21    18    21   ar
    22    19    22   ar
    23    21    23   ar
    24    22    20   ar
    25    23    20   ar
    26    20    24    1
    27    24    25   ar
    28    24    28   ar
    29    30    25    1
    30    25    26   ar
    31    28    27   ar
    32    26    27   ar
    33    26    31    1
    34    27    29    1
