@<TRIPOS>MOLECULE
mol_data/opt/b3lyp/geoms/mol2/848-8-.out
 30 33 0 0 0
SMALL
GASTEIGER

@<TRIPOS>ATOM
      1 C          -0.0358   -0.1272   -0.0020 C.ar    1  LIG1        0.1605
      2 N           1.3032   -0.1030   -0.0013 N.ar    1  LIG1       -0.1339
      3 C           1.0865    2.1733    0.0000 C.ar    1  LIG1        0.2033
      4 N          -0.8409    0.9430   -0.0017 N.ar    1  LIG1       -0.1339
      5 N           1.8818    1.0822   -0.0003 N.ar    1  LIG1       -0.1258
      6 N          -0.2629    2.1285   -0.0007 N.ar    1  LIG1       -0.1258
      7 H          -0.5114   -1.1022   -0.0028 H       1  LIG1        0.1085
      8 C           3.1355    3.6055    0.0020 C.ar    1  LIG1       -0.0503
      9 C           3.7446    4.8528    0.0031 C.ar    1  LIG1       -0.0503
     10 C           1.7344    3.5013    0.0012 C.ar    1  LIG1        0.0227
     11 C           2.9641    6.0218    0.0033 C.ar    1  LIG1        0.0227
     12 H           4.8248    4.9367    0.0038 H       1  LIG1        0.0625
     13 C           0.9541    4.6697    0.0014 C.ar    1  LIG1       -0.0503
     14 C           1.5623    5.9175    0.0025 C.ar    1  LIG1       -0.0503
     15 H          -0.1259    4.5851    0.0007 H       1  LIG1        0.0625
     16 H           3.7333    2.7024    0.0019 H       1  LIG1        0.0625
     17 H           0.9634    6.8207    0.0026 H       1  LIG1        0.0625
     18 C           3.6097    7.3454    0.0045 C.ar    1  LIG1        0.2034
     19 N           2.8178    8.4409    0.0049 N.ar    1  LIG1       -0.1251
     20 C           4.7372    9.6571    0.0064 C.ar    1  LIG1        0.2435
     21 N           4.9605    7.3958    0.0050 N.ar    1  LIG1       -0.1251
     22 N           3.3928    9.6217    0.0059 N.ar    1  LIG1       -0.1218
     23 N           5.5370    8.5758    0.0060 N.ar    1  LIG1       -0.1218
     24 C           5.3905   10.9965    0.0075 C.ar    1  LIG1        0.2434
     25 N           4.5855   12.0746    0.0079 N.ar    1  LIG1       -0.1224
     26 C           6.5058   13.2831    0.0092 C.ar    1  LIG1        0.1605
     27 N           6.7357   11.0258    0.0079 N.ar    1  LIG1       -0.1224
     28 N           5.1667   13.2610    0.0089 N.ar    1  LIG1       -0.1338
     29 N           7.3128   12.2142    0.0089 N.ar    1  LIG1       -0.1338
     30 H           6.9817   14.2588    0.0104 H       1  LIG1        0.1085
@<TRIPOS>BOND
     1     7     1    1
     2     1     4   ar
     3     1     2   ar
     4     4     6   ar
     5     2     5   ar
     6     6     3   ar
     7     5     3   ar
     8     3    10    1
     9    15    13    1
    10    10    13   ar
    11    10     8   ar
    12    13    14   ar
    13    16     8    1
    14     8     9   ar
    15    14    17    1
    16    14    11   ar
    17     9    11   ar
    18     9    12    1
    19    11    18    1
    20    18    19   ar
    21    18    21   ar
    22    19    22   ar
    23    21    23   ar
    24    22    20   ar
    25    23    20   ar
    26    20    24    1
    27    24    27   ar
    28    24    25   ar
    29    27    29   ar
    30    25    28   ar
    31    28    26   ar
    32    29    26   ar
    33    26    30    1
