@<TRIPOS>MOLECULE
mol_data/opt/b3lyp/geoms/mol2/84812-.out
 31 34 0 0 0
SMALL
GASTEIGER

@<TRIPOS>ATOM
      1 C          -0.0884   -0.1021   -0.0019 C.ar    1  LIG1        0.1605
      2 N           1.2507   -0.0959   -0.0013 N.ar    1  LIG1       -0.1339
      3 C           1.0658    2.1845    0.0000 C.ar    1  LIG1        0.2033
      4 N          -0.8787    0.9789   -0.0016 N.ar    1  LIG1       -0.1339
      5 N           1.8457    1.0810   -0.0003 N.ar    1  LIG1       -0.1258
      6 N          -0.2852    2.1566   -0.0006 N.ar    1  LIG1       -0.1258
      7 H          -0.5773   -1.0709   -0.0027 H       1  LIG1        0.1085
      8 C           3.1331    3.5888    0.0020 C.ar    1  LIG1       -0.0503
      9 C           3.7587    4.8280    0.0030 C.ar    1  LIG1       -0.0503
     10 C           1.7307    3.5017    0.0012 C.ar    1  LIG1        0.0227
     11 C           2.9964    6.0086    0.0033 C.ar    1  LIG1        0.0227
     12 H           4.8400    4.8973    0.0037 H       1  LIG1        0.0625
     13 C           0.9681    4.6817    0.0014 C.ar    1  LIG1       -0.0503
     14 C           1.5937    5.9210    0.0025 C.ar    1  LIG1       -0.0503
     15 H          -0.1132    4.6130    0.0008 H       1  LIG1        0.0625
     16 H           3.7198    2.6777    0.0018 H       1  LIG1        0.0625
     17 H           1.0070    6.8320    0.0027 H       1  LIG1        0.0625
     18 C           3.6616    7.3251    0.0044 C.ar    1  LIG1        0.2034
     19 N           5.0105    7.3579    0.0049 N.ar    1  LIG1       -0.1251
     20 C           4.8248    9.6260    0.0064 C.ar    1  LIG1        0.2381
     21 N           2.8839    8.4316    0.0049 N.ar    1  LIG1       -0.1251
     22 N           5.6108    8.5264    0.0059 N.ar    1  LIG1       -0.1220
     23 N           3.4705    9.6023    0.0059 N.ar    1  LIG1       -0.1220
     24 C           5.4428   10.9332    0.0075 C.ar    1  LIG1        0.1751
     25 C           4.9025   12.1966    0.0082 C.ar    1  LIG1       -0.0126
     26 C           6.0019   13.1002    0.0092 C.ar    1  LIG1       -0.0232
     27 C           7.1275   12.3246    0.0091 C.ar    1  LIG1        0.0927
     28 O           6.8080   11.0082    0.0081 O.2     1  LIG1       -0.4597
     29 H           8.1823   12.5512    0.0096 H       1  LIG1        0.1029
     30 H           3.8481   12.4269    0.0080 H       1  LIG1        0.0656
     31 H           5.9651   14.1795    0.0099 H       1  LIG1        0.0649
@<TRIPOS>BOND
     1     7     1    1
     2     1     4   ar
     3     1     2   ar
     4     4     6   ar
     5     2     5   ar
     6     6     3   ar
     7     5     3   ar
     8     3    10    1
     9    15    13    1
    10    10    13   ar
    11    10     8   ar
    12    13    14   ar
    13    16     8    1
    14     8     9   ar
    15    14    17    1
    16    14    11   ar
    17     9    11   ar
    18     9    12    1
    19    11    18    1
    20    18    21   ar
    21    18    19   ar
    22    21    23   ar
    23    19    22   ar
    24    23    20   ar
    25    22    20   ar
    26    20    24    1
    27    24    28   ar
    28    24    25   ar
    29    30    25    1
    30    28    27   ar
    31    25    26   ar
    32    27    26   ar
    33    27    29    1
    34    26    31    1
