@<TRIPOS>MOLECULE
mol_data/opt/b3lyp/geoms/mol2/85-.out
 15 16 0 0 0
SMALL
GASTEIGER

@<TRIPOS>ATOM
      1 C          -0.0031   -0.0158   -0.0002 C.ar    1  LIG1        0.1605
      2 N           1.3358    0.0119   -0.0002 N.ar    1  LIG1       -0.1339
      3 C           1.1091    2.2861    0.0001 C.ar    1  LIG1        0.2098
      4 N          -0.8123    1.0532   -0.0000 N.ar    1  LIG1       -0.1339
      5 N           1.9116    1.1970   -0.0000 N.ar    1  LIG1       -0.1253
      6 N          -0.2450    2.2422    0.0001 N.ar    1  LIG1       -0.1253
      7 H          -0.4763   -0.9917   -0.0003 H       1  LIG1        0.1085
      8 C           1.7425    3.5900    0.0003 C.ar    1  LIG1        0.0598
      9 C           1.1271    4.8242    0.0005 C.ar    1  LIG1       -0.0438
     10 C           2.0523    5.8995    0.0006 C.ar    1  LIG1       -0.0540
     11 C           3.3556    5.4689    0.0004 C.ar    1  LIG1       -0.0236
     12 S           3.4836    3.7455    0.0002 S.2     1  LIG1       -0.0934
     13 H           4.2532    6.0719    0.0005 H       1  LIG1        0.0693
     14 H           0.0500    4.9298    0.0005 H       1  LIG1        0.0630
     15 H           1.7674    6.9453    0.0007 H       1  LIG1        0.0623
@<TRIPOS>BOND
     1     7     1    1
     2     2     1   ar
     3     2     5   ar
     4     1     4   ar
     5     4     6   ar
     6     5     3   ar
     7     6     3   ar
     8     3     8    1
     9    12     8   ar
    10    12    11   ar
    11     8     9   ar
    12    11    13    1
    13    11    10   ar
    14     9    14    1
    15     9    10   ar
    16    10    15    1
