@<TRIPOS>MOLECULE
mol_data/opt/b3lyp/geoms/mol2/85-134-.out
 33 36 0 0 0
SMALL
GASTEIGER

@<TRIPOS>ATOM
      1 C          -0.0796   -0.1833   -0.0002 C.ar    1  LIG1        0.1605
      2 N           1.2590   -0.1450    0.0000 N.ar    1  LIG1       -0.1339
      3 C           1.0156    2.1287    0.0001 C.ar    1  LIG1        0.2098
      4 N          -0.8972    0.8810   -0.0002 N.ar    1  LIG1       -0.1339
      5 N           1.8274    1.0430    0.0001 N.ar    1  LIG1       -0.1253
      6 N          -0.3411    2.0734   -0.0001 N.ar    1  LIG1       -0.1253
      7 H          -0.5460   -1.1625   -0.0002 H       1  LIG1        0.1085
      8 C           1.6367    3.4304    0.0002 C.ar    1  LIG1        0.0604
      9 C           1.0162    4.6639    0.0002 C.ar    1  LIG1       -0.0432
     10 C           1.9245    5.7409    0.0003 C.ar    1  LIG1       -0.0448
     11 C           3.2554    5.3414    0.0004 C.ar    1  LIG1        0.0362
     12 S           3.3803    3.5964    0.0003 S.2     1  LIG1       -0.0836
     13 H          -0.0620    4.7639    0.0001 H       1  LIG1        0.0630
     14 H           1.6074    6.7779    0.0004 H       1  LIG1        0.0630
     15 C           4.4387    6.1597    0.0006 C.ar    1  LIG1        0.0536
     16 C           5.7912    5.8176    0.0011 C.ar    1  LIG1       -0.0353
     17 C           6.5382    7.0086    0.0012 C.ar    1  LIG1       -0.0358
     18 C           5.6467    8.0832    0.0005 C.ar    1  LIG1        0.0469
     19 N           4.3824    7.5397    0.0003 N.ar    1  LIG1       -0.3537
     20 H           3.5288    8.0723   -0.0006 H       1  LIG1        0.1659
     21 H           6.1827    4.8101    0.0016 H       1  LIG1        0.0639
     22 H           7.6153    7.0830    0.0017 H       1  LIG1        0.0639
     23 C           4.8476   10.4651    0.0002 C.ar    1  LIG1       -0.0526
     24 C           5.1097   11.8330   -0.0001 C.ar    1  LIG1       -0.0611
     25 C           5.8944    9.5239    0.0002 C.ar    1  LIG1       -0.0017
     26 C           6.4242   12.2999   -0.0004 C.ar    1  LIG1       -0.0617
     27 H           4.2814   12.5355   -0.0000 H       1  LIG1        0.0618
     28 C           7.2154   10.0128   -0.0001 C.ar    1  LIG1       -0.0526
     29 C           7.4747   11.3791   -0.0004 C.ar    1  LIG1       -0.0611
     30 H           8.0455    9.3146   -0.0001 H       1  LIG1        0.0624
     31 H           6.6281   13.3661   -0.0006 H       1  LIG1        0.0618
     32 H           3.8106   10.1406    0.0006 H       1  LIG1        0.0624
     33 H           8.5034   11.7274   -0.0006 H       1  LIG1        0.0618
@<TRIPOS>BOND
     1    31    26    1
     2    33    29    1
     3    20    19    1
     4    26    29   ar
     5    26    24   ar
     6    29    28   ar
     7     4     1   ar
     8     4     6   ar
     9     7     1    1
    10     1     2   ar
    11     6     3   ar
    12    30    28    1
    13    28    25   ar
    14    24    27    1
    15    24    23   ar
    16     2     5   ar
    17     3     5   ar
    18     3     8    1
    19    13     9    1
    20     8     9   ar
    21     8    12   ar
    22     9    10   ar
    23    25    23   ar
    24    25    18    1
    25    23    32    1
    26    10    14    1
    27    10    11   ar
    28    12    11   ar
    29    19    18   ar
    30    19    15   ar
    31    11    15    1
    32    18    17   ar
    33    15    16   ar
    34    16    17   ar
    35    16    21    1
    36    17    22    1
