@<TRIPOS>MOLECULE
mol_data/opt/b3lyp/geoms/mol2/85-13-.out
 23 25 0 0 0
SMALL
GASTEIGER

@<TRIPOS>ATOM
      1 C          -0.0800   -0.0652   -0.0000 C.ar    1  LIG1        0.1605
      2 N           1.2589   -0.0435   -0.0003 N.ar    1  LIG1       -0.1339
      3 C           1.0438    2.2334    0.0001 C.ar    1  LIG1        0.2098
      4 N          -0.8841    1.0093    0.0004 N.ar    1  LIG1       -0.1339
      5 N           1.8420    1.1372   -0.0003 N.ar    1  LIG1       -0.1253
      6 N          -0.3139    2.1948    0.0004 N.ar    1  LIG1       -0.1253
      7 H          -0.5586   -1.0385   -0.0000 H       1  LIG1        0.1085
      8 C           1.6811    3.5258    0.0002 C.ar    1  LIG1        0.0604
      9 C           1.0870    4.7727    0.0005 C.ar    1  LIG1       -0.0432
     10 C           2.0124    5.8343    0.0005 C.ar    1  LIG1       -0.0448
     11 C           3.3348    5.4128    0.0001 C.ar    1  LIG1        0.0361
     12 S           3.4282    3.6640   -0.0003 S.2     1  LIG1       -0.0836
     13 H           0.0104    4.8913    0.0009 H       1  LIG1        0.0630
     14 H           1.7291    6.8798    0.0008 H       1  LIG1        0.0630
     15 C           4.5177    6.2358   -0.0001 C.ar    1  LIG1        0.0531
     16 C           4.6469    7.6240   -0.0000 C.ar    1  LIG1       -0.0359
     17 C           6.0262    7.9333   -0.0005 C.ar    1  LIG1       -0.0438
     18 C           6.7179    6.7361   -0.0002 C.ar    1  LIG1        0.0022
     19 N           5.8016    5.7199   -0.0003 N.ar    1  LIG1       -0.3603
     20 H           6.0318    4.7384   -0.0002 H       1  LIG1        0.1653
     21 H           7.7778    6.5312   -0.0003 H       1  LIG1        0.0807
     22 H           3.8271    8.3279    0.0001 H       1  LIG1        0.0639
     23 H           6.4685    8.9189   -0.0008 H       1  LIG1        0.0633
@<TRIPOS>BOND
     1    23    17    1
     2    17    18   ar
     3    17    16   ar
     4     2     5   ar
     5     2     1   ar
     6    12    11   ar
     7    12     8   ar
     8    19    18   ar
     9    19    20    1
    10    19    15   ar
    11    21    18    1
    12     5     3   ar
    13    15    16   ar
    14    15    11    1
    15     7     1    1
    16    16    22    1
    17     1     4   ar
    18    11    10   ar
    19     3     8    1
    20     3     6   ar
    21     8     9   ar
    22     4     6   ar
    23    10     9   ar
    24    10    14    1
    25     9    13    1
