@<TRIPOS>MOLECULE
mol_data/opt/b3lyp/geoms/mol2/85-13.out
 23 25 0 0 0
SMALL
GASTEIGER

@<TRIPOS>ATOM
      1 C          -0.0540   -0.0711   -0.0003 C.ar    1  LIG1        0.1605
      2 N           1.2848   -0.0405   -0.0004 N.ar    1  LIG1       -0.1339
      3 C           1.0545    2.2346    0.0000 C.ar    1  LIG1        0.2098
      4 N          -0.8653    0.9977   -0.0000 N.ar    1  LIG1       -0.1339
      5 N           1.8600    1.1442   -0.0002 N.ar    1  LIG1       -0.1253
      6 N          -0.3023    2.1870    0.0001 N.ar    1  LIG1       -0.1253
      7 H          -0.5259   -1.0477   -0.0004 H       1  LIG1        0.1085
      8 C           1.6839    3.5328    0.0002 C.ar    1  LIG1        0.0604
      9 C           1.0727    4.7703    0.0005 C.ar    1  LIG1       -0.0432
     10 C           1.9897    5.8410    0.0006 C.ar    1  LIG1       -0.0448
     11 C           3.3165    5.4319    0.0004 C.ar    1  LIG1        0.0361
     12 S           3.4290    3.6869    0.0000 S.2     1  LIG1       -0.0836
     13 H          -0.0049    4.8784    0.0007 H       1  LIG1        0.0630
     14 H           1.6809    6.8806    0.0009 H       1  LIG1        0.0630
     15 C           4.5085    6.2425    0.0005 C.ar    1  LIG1        0.0531
     16 C           5.8568    5.8925    0.0006 C.ar    1  LIG1       -0.0359
     17 C           6.6177    7.0842    0.0009 C.ar    1  LIG1       -0.0438
     18 C           5.7272    8.1415    0.0003 C.ar    1  LIG1        0.0022
     19 N           4.4596    7.6258    0.0004 N.ar    1  LIG1       -0.3603
     20 H           3.6148    8.1734   -0.0000 H       1  LIG1        0.1653
     21 H           5.8953    9.2080    0.0001 H       1  LIG1        0.0807
     22 H           6.2402    4.8817    0.0008 H       1  LIG1        0.0639
     23 H           7.6949    7.1646    0.0013 H       1  LIG1        0.0633
@<TRIPOS>BOND
     1     2     1   ar
     2     2     5   ar
     3     7     1    1
     4     1     4   ar
     5     5     3   ar
     6    20    19    1
     7     4     6   ar
     8    12     8   ar
     9    12    11   ar
    10     3     6   ar
    11     3     8    1
    12    21    18    1
    13     8     9   ar
    14    18    19   ar
    15    18    17   ar
    16    19    15   ar
    17    11    15    1
    18    11    10   ar
    19    15    16   ar
    20     9    10   ar
    21     9    13    1
    22    10    14    1
    23    16    22    1
    24    16    17   ar
    25    17    23    1
