@<TRIPOS>MOLECULE
mol_data/opt/b3lyp/geoms/mol2/85-138.out
 29 32 0 0 0
SMALL
GASTEIGER

@<TRIPOS>ATOM
      1 C          -0.0686   -0.1094   -0.0006 C.ar    1  LIG1        0.1605
      2 N           1.2703   -0.0778   -0.0007 N.ar    1  LIG1       -0.1339
      3 C           1.0362    2.1953   -0.0000 C.ar    1  LIG1        0.2098
      4 N          -0.8813    0.9582   -0.0002 N.ar    1  LIG1       -0.1339
      5 N           1.8431    1.1085   -0.0004 N.ar    1  LIG1       -0.1253
      6 N          -0.3185    2.1484    0.0001 N.ar    1  LIG1       -0.1253
      7 H          -0.5395   -1.0865   -0.0008 H       1  LIG1        0.1085
      8 C           1.6656    3.4974    0.0002 C.ar    1  LIG1        0.0604
      9 C           1.0499    4.7327    0.0007 C.ar    1  LIG1       -0.0432
     10 C           1.9658    5.8048    0.0009 C.ar    1  LIG1       -0.0448
     11 C           3.2905    5.3938    0.0006 C.ar    1  LIG1        0.0362
     12 S           3.4070    3.6501    0.0000 S.2     1  LIG1       -0.0836
     13 H          -0.0277    4.8388    0.0009 H       1  LIG1        0.0630
     14 H           1.6587    6.8446    0.0013 H       1  LIG1        0.0630
     15 C           4.4813    6.2081    0.0007 C.ar    1  LIG1        0.0537
     16 C           5.8362    5.8447    0.0008 C.ar    1  LIG1       -0.0352
     17 C           6.6009    7.0206    0.0010 C.ar    1  LIG1       -0.0326
     18 C           5.7091    8.0932    0.0009 C.ar    1  LIG1        0.0880
     19 N           4.4343    7.5783    0.0009 N.ar    1  LIG1       -0.3512
     20 H           3.6138    8.1664    0.0007 H       1  LIG1        0.1660
     21 H           6.2107    4.8310    0.0007 H       1  LIG1        0.0639
     22 H           7.6765    7.1094    0.0012 H       1  LIG1        0.0640
     23 C           5.9251    9.5168    0.0010 C.ar    1  LIG1        0.2193
     24 N           7.2018    9.9746    0.0011 N.ar    1  LIG1       -0.1243
     25 C           6.2696   12.0482    0.0012 C.ar    1  LIG1        0.1605
     26 N           4.8224   10.3049    0.0009 N.ar    1  LIG1       -0.1243
     27 N           7.3709   11.2788    0.0012 N.ar    1  LIG1       -0.1338
     28 N           5.0044   11.6103    0.0010 N.ar    1  LIG1       -0.1338
     29 H           6.4203   13.1223    0.0011 H       1  LIG1        0.1085
@<TRIPOS>BOND
     1     7     1    1
     2     2     1   ar
     3     2     5   ar
     4     1     4   ar
     5     5     3   ar
     6     4     6   ar
     7     3     6   ar
     8     3     8    1
     9    12     8   ar
    10    12    11   ar
    11     8     9   ar
    12    11    15    1
    13    11    10   ar
    14     9    10   ar
    15     9    13    1
    16    21    16    1
    17    20    19    1
    18    15    16   ar
    19    15    19   ar
    20    16    17   ar
    21    19    18   ar
    22    10    14    1
    23    26    23   ar
    24    26    28   ar
    25    18    23    1
    26    18    17   ar
    27    23    24   ar
    28    28    25   ar
    29    17    22    1
    30    24    27   ar
    31    29    25    1
    32    27    25   ar
