@<TRIPOS>MOLECULE
mol_data/opt/b3lyp/geoms/mol2/85-4-.out
 25 27 0 0 0
SMALL
GASTEIGER

@<TRIPOS>ATOM
      1 C          -0.1094   -0.0793    0.0002 C.ar    1  LIG1        0.1605
      2 N           1.2296   -0.0635   -0.0005 N.ar    1  LIG1       -0.1339
      3 C           1.0236    2.2131    0.0001 C.ar    1  LIG1        0.2098
      4 N          -0.9092    0.9976    0.0008 N.ar    1  LIG1       -0.1339
      5 N           1.8170    1.1158   -0.0006 N.ar    1  LIG1       -0.1253
      6 N          -0.3321    2.1810    0.0008 N.ar    1  LIG1       -0.1253
      7 H          -0.5917   -1.0508    0.0002 H       1  LIG1        0.1085
      8 C           1.6665    3.5086    0.0001 C.ar    1  LIG1        0.0604
      9 C           1.0636    4.7494    0.0007 C.ar    1  LIG1       -0.0432
     10 C           1.9921    5.8118    0.0005 C.ar    1  LIG1       -0.0462
     11 C           3.3139    5.3982   -0.0004 C.ar    1  LIG1        0.0200
     12 S           3.4068    3.6500   -0.0009 S.2     1  LIG1       -0.0850
     13 H          -0.0127    4.8673    0.0014 H       1  LIG1        0.0630
     14 H           1.6939    6.8529    0.0010 H       1  LIG1        0.0629
     15 C           4.4313    7.6325   -0.0015 C.ar    1  LIG1       -0.0535
     16 C           5.5740    8.4264   -0.0019 C.ar    1  LIG1       -0.0612
     17 C           4.5258    6.2272   -0.0008 C.ar    1  LIG1       -0.0113
     18 C           6.8414    7.8406   -0.0017 C.ar    1  LIG1       -0.0617
     19 H           5.4734    9.5077   -0.0025 H       1  LIG1        0.0618
     20 C           5.8109    5.6532   -0.0006 C.ar    1  LIG1       -0.0535
     21 C           6.9525    6.4494   -0.0010 C.ar    1  LIG1       -0.0612
     22 H           5.9228    4.5731    0.0000 H       1  LIG1        0.0624
     23 H           7.7321    8.4614   -0.0020 H       1  LIG1        0.0618
     24 H           3.4575    8.1102   -0.0019 H       1  LIG1        0.0624
     25 H           7.9318    5.9804   -0.0008 H       1  LIG1        0.0618
@<TRIPOS>BOND
     1    19    16    1
     2    23    18    1
     3    16    18   ar
     4    16    15   ar
     5    24    15    1
     6    18    21   ar
     7    15    17   ar
     8    21    25    1
     9    21    20   ar
    10    12    11   ar
    11    12     8   ar
    12    17    20   ar
    13    17    11    1
    14    20    22    1
    15     5     2   ar
    16     5     3   ar
    17     2     1   ar
    18    11    10   ar
    19     8     3    1
    20     8     9   ar
    21     3     6   ar
    22     1     7    1
    23     1     4   ar
    24    10     9   ar
    25    10    14    1
    26     9    13    1
    27     6     4   ar
