@<TRIPOS>MOLECULE
mol_data/opt/b3lyp/geoms/mol2/85-5.out
 22 24 0 0 0
SMALL
GASTEIGER

@<TRIPOS>ATOM
      1 C          -0.0890   -0.0646   -0.0000 C.ar    1  LIG1        0.1605
      2 N           1.2501   -0.0500   -0.0004 N.ar    1  LIG1       -0.1339
      3 C           1.0459    2.2268    0.0001 C.ar    1  LIG1        0.2098
      4 N          -0.8878    1.0133    0.0004 N.ar    1  LIG1       -0.1339
      5 N           1.8385    1.1286   -0.0003 N.ar    1  LIG1       -0.1253
      6 N          -0.3102    2.1961    0.0004 N.ar    1  LIG1       -0.1253
      7 H          -0.5724   -1.0356   -0.0001 H       1  LIG1        0.1085
      8 C           1.6912    3.5199    0.0002 C.ar    1  LIG1        0.0604
      9 C           1.0926    4.7633    0.0006 C.ar    1  LIG1       -0.0432
     10 C           2.0225    5.8235    0.0005 C.ar    1  LIG1       -0.0457
     11 C           3.3421    5.3997    0.0000 C.ar    1  LIG1        0.0266
     12 S           3.4356    3.6512   -0.0003 S.2     1  LIG1       -0.0845
     13 H           0.0165    4.8835    0.0009 H       1  LIG1        0.0630
     14 H           1.7380    6.8696    0.0008 H       1  LIG1        0.0629
     15 C           4.5443    6.2050   -0.0001 C.ar    1  LIG1        0.0259
     16 C           5.8622    5.7949   -0.0005 C.ar    1  LIG1       -0.0464
     17 C           6.7920    6.8696   -0.0005 C.ar    1  LIG1       -0.0541
     18 C           6.1852    8.0963   -0.0002 C.ar    1  LIG1       -0.0237
     19 S           4.4579    7.9597    0.0001 S.2     1  LIG1       -0.0961
     20 H           6.6454    9.0743   -0.0002 H       1  LIG1        0.0693
     21 H           6.1541    4.7505   -0.0006 H       1  LIG1        0.0629
     22 H           7.8673    6.7362   -0.0008 H       1  LIG1        0.0623
@<TRIPOS>BOND
     1    22    17    1
     2    21    16    1
     3    17    16   ar
     4    17    18   ar
     5    16    15   ar
     6     2     5   ar
     7     2     1   ar
     8    12    11   ar
     9    12     8   ar
    10     5     3   ar
    11    18    20    1
    12    18    19   ar
    13    15    11    1
    14    15    19   ar
    15     7     1    1
    16     1     4   ar
    17    11    10   ar
    18     3     8    1
    19     3     6   ar
    20     8     9   ar
    21     4     6   ar
    22    10     9   ar
    23    10    14    1
    24     9    13    1
