@<TRIPOS>MOLECULE
mol_data/opt/b3lyp/geoms/mol2/85-5-4.out
 32 35 0 0 0
SMALL
GASTEIGER

@<TRIPOS>ATOM
      1 C          -0.1931   -0.1129   -0.0006 C.ar    1  LIG1        0.1605
      2 N           1.1460   -0.0914   -0.0008 N.ar    1  LIG1       -0.1339
      3 C           0.9305    2.1846   -0.0001 C.ar    1  LIG1        0.2098
      4 N          -0.9972    0.9611   -0.0003 N.ar    1  LIG1       -0.1339
      5 N           1.7286    1.0896   -0.0005 N.ar    1  LIG1       -0.1253
      6 N          -0.4259    2.1468   -0.0000 N.ar    1  LIG1       -0.1253
      7 H          -0.6715   -1.0862   -0.0009 H       1  LIG1        0.1085
      8 C           1.5687    3.4797    0.0002 C.ar    1  LIG1        0.0604
      9 C           0.9643    4.7221    0.0006 C.ar    1  LIG1       -0.0432
     10 C           1.8861    5.7864    0.0008 C.ar    1  LIG1       -0.0457
     11 C           3.2111    5.3691    0.0006 C.ar    1  LIG1        0.0266
     12 S           3.3112    3.6219   -0.0000 S.2     1  LIG1       -0.0845
     13 H          -0.1125    4.8367    0.0008 H       1  LIG1        0.0630
     14 H           1.5952    6.8296    0.0012 H       1  LIG1        0.0629
     15 C           4.3892    6.2062    0.0007 C.ar    1  LIG1        0.0265
     16 C           4.4442    7.5877    0.0007 C.ar    1  LIG1       -0.0458
     17 C           5.7594    8.1036    0.0009 C.ar    1  LIG1       -0.0463
     18 C           6.7459    7.1368    0.0009 C.ar    1  LIG1        0.0199
     19 S           6.0117    5.5439    0.0008 S.2     1  LIG1       -0.0877
     20 H           3.5598    8.2137    0.0006 H       1  LIG1        0.0629
     21 H           5.9707    9.1658    0.0010 H       1  LIG1        0.0629
     22 C           9.0744    6.2023    0.0022 C.ar    1  LIG1       -0.0535
     23 C          10.4554    6.3773    0.0024 C.ar    1  LIG1       -0.0612
     24 C           8.2022    7.3070    0.0011 C.ar    1  LIG1       -0.0113
     25 C          11.0037    7.6605    0.0014 C.ar    1  LIG1       -0.0617
     26 H          11.1043    5.5066    0.0033 H       1  LIG1        0.0618
     27 C           8.7719    8.5955    0.0001 C.ar    1  LIG1       -0.0535
     28 C          10.1525    8.7675    0.0003 C.ar    1  LIG1       -0.0612
     29 H           8.1312    9.4708   -0.0009 H       1  LIG1        0.0624
     30 H          12.0807    7.7969    0.0016 H       1  LIG1        0.0618
     31 H           8.6715    5.1936    0.0031 H       1  LIG1        0.0624
     32 H          10.5653    9.7721   -0.0005 H       1  LIG1        0.0618
@<TRIPOS>BOND
     1     7     1    1
     2    29    27    1
     3     2     1   ar
     4     2     5   ar
     5     1     4   ar
     6     5     3   ar
     7    32    28    1
     8     4     6   ar
     9     3     6   ar
    10     3     8    1
    11    12     8   ar
    12    12    11   ar
    13    27    28   ar
    14    27    24   ar
    15     8     9   ar
    16    28    25   ar
    17    11    15    1
    18    11    10   ar
    19    20    16    1
    20     9    13    1
    21     9    10   ar
    22    15    16   ar
    23    15    19   ar
    24    16    17   ar
    25    19    18   ar
    26    10    14    1
    27    17    18   ar
    28    17    21    1
    29    18    24    1
    30    24    22   ar
    31    25    30    1
    32    25    23   ar
    33    22    23   ar
    34    22    31    1
    35    23    26    1
