@<TRIPOS>MOLECULE
mol_data/opt/b3lyp/geoms/mol2/85.out
 15 16 0 0 0
SMALL
GASTEIGER

@<TRIPOS>ATOM
      1 C          -0.0108   -0.0119    0.0001 C.ar    1  LIG1        0.1605
      2 N           1.3299   -0.0182   -0.0001 N.ar    1  LIG1       -0.1339
      3 C           1.1639    2.2587   -0.0001 C.ar    1  LIG1        0.2098
      4 N          -0.7917    1.0759    0.0003 N.ar    1  LIG1       -0.1339
      5 N           1.9410    1.1490   -0.0002 N.ar    1  LIG1       -0.1253
      6 N          -0.1889    2.2475    0.0001 N.ar    1  LIG1       -0.1253
      7 H          -0.5077   -0.9760    0.0002 H       1  LIG1        0.1085
      8 C           1.8272    3.5477   -0.0003 C.ar    1  LIG1        0.0598
      9 C           3.1838    3.7956   -0.0007 C.ar    1  LIG1       -0.0438
     10 C           3.4892    5.1809   -0.0007 C.ar    1  LIG1       -0.0540
     11 C           2.3628    5.9654   -0.0003 C.ar    1  LIG1       -0.0236
     12 S           0.9072    5.0340    0.0000 S.2     1  LIG1       -0.0934
     13 H           2.3070    7.0453   -0.0003 H       1  LIG1        0.0693
     14 H           3.9145    2.9972   -0.0009 H       1  LIG1        0.0630
     15 H           4.4969    5.5803   -0.0010 H       1  LIG1        0.0623
@<TRIPOS>BOND
     1    15    10    1
     2    14     9    1
     3    10     9   ar
     4    10    11   ar
     5     9     8   ar
     6    11    13    1
     7    11    12   ar
     8     8     3    1
     9     8    12   ar
    10     5     3   ar
    11     5     2   ar
    12     3     6   ar
    13     2     1   ar
    14     6     4   ar
    15     1     7    1
    16     1     4   ar
