@<TRIPOS>MOLECULE
mol_data/opt/b3lyp/geoms/mol2/85124.out
 32 35 0 0 0
SMALL
GASTEIGER

@<TRIPOS>ATOM
      1 C           0.1546   -0.2403   -0.0001 C.ar    1  LIG1        0.1605
      2 N           1.4957   -0.2016   -0.0008 N.ar    1  LIG1       -0.1339
      3 C           1.2541    2.0691   -0.0003 C.ar    1  LIG1        0.2099
      4 N          -0.6619    0.8213    0.0006 N.ar    1  LIG1       -0.1339
      5 N           2.0684    0.9833   -0.0009 N.ar    1  LIG1       -0.1253
      6 N          -0.0999    2.0124    0.0005 N.ar    1  LIG1       -0.1253
      7 H          -0.3098   -1.2206    0.0000 H       1  LIG1        0.1085
      8 C           1.8709    3.3746   -0.0003 C.ar    1  LIG1        0.0605
      9 C           3.2213    3.6700   -0.0011 C.ar    1  LIG1       -0.0431
     10 C           3.4839    5.0532   -0.0010 C.ar    1  LIG1       -0.0433
     11 C           2.3297    5.8245   -0.0001 C.ar    1  LIG1        0.0551
     12 S           0.8957    4.8273    0.0006 S.2     1  LIG1       -0.0820
     13 H           3.9785    2.8961   -0.0018 H       1  LIG1        0.0630
     14 H           4.4802    5.4791   -0.0016 H       1  LIG1        0.0630
     15 C           2.2361    7.2567    0.0002 C.ar    1  LIG1        0.1422
     16 C           3.1737    8.2651    0.0003 C.ar    1  LIG1       -0.0147
     17 C           2.4558    9.4879    0.0008 C.ar    1  LIG1       -0.0152
     18 C           1.1158    9.1708    0.0010 C.ar    1  LIG1        0.1357
     19 O           0.9823    7.8080    0.0006 O.2     1  LIG1       -0.4543
     20 H           4.2463    8.1386    0.0000 H       1  LIG1        0.0656
     21 H           2.8778   10.4818    0.0010 H       1  LIG1        0.0656
     22 C          -0.0357   11.3708    0.0017 C.ar    1  LIG1       -0.0511
     23 C          -1.1980   12.1346    0.0022 C.ar    1  LIG1       -0.0611
     24 C          -0.1036    9.9651    0.0015 C.ar    1  LIG1        0.0173
     25 C          -2.4500   11.5142    0.0024 C.ar    1  LIG1       -0.0617
     26 H          -1.1272   13.2183    0.0024 H       1  LIG1        0.0618
     27 C          -1.3681    9.3490    0.0017 C.ar    1  LIG1       -0.0511
     28 C          -2.5274   10.1203    0.0021 C.ar    1  LIG1       -0.0611
     29 H          -1.4339    8.2669    0.0015 H       1  LIG1        0.0625
     30 H          -3.3561   12.1125    0.0028 H       1  LIG1        0.0618
     31 H           0.9306   11.8658    0.0016 H       1  LIG1        0.0625
     32 H          -3.4960    9.6291    0.0023 H       1  LIG1        0.0618
@<TRIPOS>BOND
     1    13     9    1
     2    14    10    1
     3     9    10   ar
     4     9     8   ar
     5    10    11   ar
     6     5     2   ar
     7     5     3   ar
     8     2     1   ar
     9     8     3    1
    10     8    12   ar
    11     3     6   ar
    12    11    15    1
    13    11    12   ar
    14     1     7    1
    15     1     4   ar
    16    20    16    1
    17    15    16   ar
    18    15    19   ar
    19    16    17   ar
    20     6     4   ar
    21    19    18   ar
    22    17    18   ar
    23    17    21    1
    24    18    24    1
    25    24    27   ar
    26    24    22   ar
    27    29    27    1
    28    31    22    1
    29    27    28   ar
    30    22    23   ar
    31    28    32    1
    32    28    25   ar
    33    23    26    1
    34    23    25   ar
    35    25    30    1
