@<TRIPOS>MOLECULE
mol_data/opt/b3lyp/geoms/mol2/85125.out
 29 32 0 0 0
SMALL
GASTEIGER

@<TRIPOS>ATOM
      1 C           0.0909   -0.1828    0.0001 C.ar    1  LIG1        0.1605
      2 N           1.4324   -0.1562   -0.0002 N.ar    1  LIG1       -0.1339
      3 C           1.2111    2.1166   -0.0001 C.ar    1  LIG1        0.2099
      4 N          -0.7159    0.8862    0.0003 N.ar    1  LIG1       -0.1339
      5 N           2.0157    1.0236   -0.0003 N.ar    1  LIG1       -0.1253
      6 N          -0.1434    2.0722    0.0002 N.ar    1  LIG1       -0.1253
      7 H          -0.3824   -1.1589    0.0002 H       1  LIG1        0.1085
      8 C           1.8398    3.4165   -0.0002 C.ar    1  LIG1        0.0605
      9 C           3.1931    3.6989   -0.0006 C.ar    1  LIG1       -0.0431
     10 C           3.4690    5.0791   -0.0006 C.ar    1  LIG1       -0.0433
     11 C           2.3217    5.8615   -0.0002 C.ar    1  LIG1        0.0551
     12 S           0.8778    4.8781    0.0002 S.2     1  LIG1       -0.0820
     13 H           3.9428    2.9176   -0.0009 H       1  LIG1        0.0630
     14 H           4.4694    5.4954   -0.0009 H       1  LIG1        0.0630
     15 C           2.2441    7.2936   -0.0001 C.ar    1  LIG1        0.1423
     16 C           3.1921    8.2933    0.0001 C.ar    1  LIG1       -0.0147
     17 C           2.4915    9.5255    0.0003 C.ar    1  LIG1       -0.0147
     18 C           1.1477    9.2196    0.0001 C.ar    1  LIG1        0.1422
     19 O           0.9947    7.8603   -0.0001 O.2     1  LIG1       -0.4538
     20 H           4.2632    8.1543    0.0002 H       1  LIG1        0.0656
     21 H           2.9187   10.5171    0.0006 H       1  LIG1        0.0656
     22 C          -0.0472   10.0211    0.0001 C.ar    1  LIG1        0.0544
     23 C          -0.1460   11.3982   -0.0001 C.ar    1  LIG1       -0.0440
     24 C          -1.4892   11.8612    0.0000 C.ar    1  LIG1       -0.0540
     25 C          -2.4026   10.8408    0.0004 C.ar    1  LIG1       -0.0236
     26 S          -1.6370    9.2862    0.0004 S.2     1  LIG1       -0.0936
     27 H          -3.4814   10.9062    0.0005 H       1  LIG1        0.0693
     28 H           0.7183   12.0524   -0.0003 H       1  LIG1        0.0630
     29 H          -1.7652   12.9092   -0.0001 H       1  LIG1        0.0623
@<TRIPOS>BOND
     1    14    10    1
     2    13     9    1
     3    10     9   ar
     4    10    11   ar
     5     9     8   ar
     6     5     2   ar
     7     5     3   ar
     8    28    23    1
     9     2     1   ar
    10    11    15    1
    11    11    12   ar
    12     8     3    1
    13     8    12   ar
    14    19    15   ar
    15    19    18   ar
    16    29    24    1
    17     3     6   ar
    18    23    24   ar
    19    23    22   ar
    20    15    16   ar
    21    24    25   ar
    22     1     7    1
    23     1     4   ar
    24    18    22    1
    25    18    17   ar
    26    22    26   ar
    27    16    20    1
    28    16    17   ar
    29     6     4   ar
    30    17    21    1
    31    25    26   ar
    32    25    27    1
