@<TRIPOS>MOLECULE
mol_data/opt/b3lyp/geoms/mol2/8512.out
 22 24 0 0 0
SMALL
GASTEIGER

@<TRIPOS>ATOM
      1 C           0.0083   -0.0853    0.0000 C.ar    1  LIG1        0.1605
      2 N           1.3498   -0.0771   -0.0003 N.ar    1  LIG1       -0.1339
      3 C           1.1598    2.1983   -0.0001 C.ar    1  LIG1        0.2099
      4 N          -0.7838    0.9945    0.0003 N.ar    1  LIG1       -0.1339
      5 N           1.9491    1.0949   -0.0004 N.ar    1  LIG1       -0.1253
      6 N          -0.1948    2.1725    0.0003 N.ar    1  LIG1       -0.1253
      7 H          -0.4783   -1.0548    0.0001 H       1  LIG1        0.1085
      8 C           1.8065    3.4904   -0.0002 C.ar    1  LIG1        0.0605
      9 C           3.1627    3.7542   -0.0006 C.ar    1  LIG1       -0.0431
     10 C           3.4562    5.1324   -0.0006 C.ar    1  LIG1       -0.0433
     11 C           2.3206    5.9278   -0.0002 C.ar    1  LIG1        0.0551
     12 S           0.8646    4.9645    0.0003 S.2     1  LIG1       -0.0820
     13 H           3.9025    2.9634   -0.0010 H       1  LIG1        0.0630
     14 H           4.4616    5.5363   -0.0010 H       1  LIG1        0.0630
     15 C           2.2575    7.3655   -0.0000 C.ar    1  LIG1        0.1413
     16 C           3.2138    8.3531    0.0002 C.ar    1  LIG1       -0.0154
     17 C           2.5146    9.5966    0.0003 C.ar    1  LIG1       -0.0233
     18 C           1.1866    9.2881    0.0002 C.ar    1  LIG1        0.0926
     19 O           1.0121    7.9384   -0.0000 O.2     1  LIG1       -0.4624
     20 H           0.2845    9.8788    0.0003 H       1  LIG1        0.1029
     21 H           4.2839    8.2057    0.0002 H       1  LIG1        0.0655
     22 H           2.9435   10.5878    0.0005 H       1  LIG1        0.0649
@<TRIPOS>BOND
     1    13     9    1
     2    14    10    1
     3     9    10   ar
     4     9     8   ar
     5    10    11   ar
     6     5     2   ar
     7     5     3   ar
     8     2     1   ar
     9     8     3    1
    10     8    12   ar
    11    11    15    1
    12    11    12   ar
    13     3     6   ar
    14    19    15   ar
    15    19    18   ar
    16    15    16   ar
    17     1     7    1
    18     1     4   ar
    19    16    21    1
    20    16    17   ar
    21    18    20    1
    22    18    17   ar
    23     6     4   ar
    24    17    22    1
