@<TRIPOS>MOLECULE
mol_data/opt/b3lyp/geoms/mol2/8513-.out
 23 25 0 0 0
SMALL
GASTEIGER

@<TRIPOS>ATOM
      1 C          -0.0245   -0.0858    0.0002 C.ar    1  LIG1        0.1605
      2 N           1.3174   -0.0939   -0.0002 N.ar    1  LIG1       -0.1339
      3 C           1.1554    2.1842   -0.0001 C.ar    1  LIG1        0.2098
      4 N          -0.8031    1.0037    0.0005 N.ar    1  LIG1       -0.1339
      5 N           1.9312    1.0700   -0.0004 N.ar    1  LIG1       -0.1253
      6 N          -0.2002    2.1746    0.0004 N.ar    1  LIG1       -0.1253
      7 H          -0.5228   -1.0493    0.0003 H       1  LIG1        0.1085
      8 C           1.8166    3.4664   -0.0002 C.ar    1  LIG1        0.0604
      9 C           3.1733    3.7197   -0.0008 C.ar    1  LIG1       -0.0432
     10 C           3.4800    5.0957   -0.0008 C.ar    1  LIG1       -0.0448
     11 C           2.3568    5.9119   -0.0003 C.ar    1  LIG1        0.0361
     12 S           0.8931    4.9552    0.0003 S.2     1  LIG1       -0.0836
     13 H           3.9062    2.9224   -0.0011 H       1  LIG1        0.0630
     14 H           4.4970    5.4722   -0.0012 H       1  LIG1        0.0630
     15 C           2.2903    7.3519   -0.0002 C.ar    1  LIG1        0.0531
     16 C           1.2015    8.2207   -0.0002 C.ar    1  LIG1       -0.0359
     17 C           1.6986    9.5444   -0.0004 C.ar    1  LIG1       -0.0438
     18 C           3.0787    9.4661    0.0001 C.ar    1  LIG1        0.0022
     19 N           3.4264    8.1425   -0.0002 N.ar    1  LIG1       -0.3603
     20 H           4.3714    7.7951    0.0001 H       1  LIG1        0.1653
     21 H           3.8312   10.2403    0.0002 H       1  LIG1        0.0807
     22 H           0.1628    7.9212   -0.0003 H       1  LIG1        0.0639
     23 H           1.1168   10.4545   -0.0006 H       1  LIG1        0.0633
@<TRIPOS>BOND
     1    14    10    1
     2    13     9    1
     3    10     9   ar
     4    10    11   ar
     5     9     8   ar
     6    23    17    1
     7    17    16   ar
     8    17    18   ar
     9     5     2   ar
    10     5     3   ar
    11    11    15    1
    12    11    12   ar
    13    22    16    1
    14    15    19   ar
    15    15    16   ar
    16     8     3    1
    17     8    12   ar
    18     2     1   ar
    19    19    18   ar
    20    19    20    1
    21     3     6   ar
    22    18    21    1
    23     1     7    1
    24     1     4   ar
    25     6     4   ar
