@<TRIPOS>MOLECULE
mol_data/opt/b3lyp/geoms/mol2/8513.out
 23 25 0 0 0
SMALL
GASTEIGER

@<TRIPOS>ATOM
      1 C          -0.0042   -0.1032   -0.0001 C.ar    1  LIG1        0.1605
      2 N           1.3379   -0.1020   -0.0006 N.ar    1  LIG1       -0.1339
      3 C           1.1609    2.1748   -0.0001 C.ar    1  LIG1        0.2098
      4 N          -0.7900    0.9812    0.0005 N.ar    1  LIG1       -0.1339
      5 N           1.9444    1.0654   -0.0007 N.ar    1  LIG1       -0.1253
      6 N          -0.1950    2.1560    0.0004 N.ar    1  LIG1       -0.1253
      7 H          -0.4958   -1.0699   -0.0000 H       1  LIG1        0.1085
      8 C           1.8127    3.4601   -0.0002 C.ar    1  LIG1        0.0604
      9 C           3.1667    3.7326   -0.0008 C.ar    1  LIG1       -0.0432
     10 C           3.4610    5.1099   -0.0006 C.ar    1  LIG1       -0.0448
     11 C           2.3305    5.9151    0.0001 C.ar    1  LIG1        0.0361
     12 S           0.8753    4.9408    0.0006 S.2     1  LIG1       -0.0836
     13 H           3.9074    2.9424   -0.0013 H       1  LIG1        0.0630
     14 H           4.4674    5.5103   -0.0011 H       1  LIG1        0.0630
     15 C           2.2794    7.3552    0.0003 C.ar    1  LIG1        0.0531
     16 C           3.3127    8.2913    0.0005 C.ar    1  LIG1       -0.0359
     17 C           2.7328    9.5804    0.0011 C.ar    1  LIG1       -0.0438
     18 C           1.3600    9.4157    0.0006 C.ar    1  LIG1        0.0022
     19 N           1.0965    8.0730    0.0005 N.ar    1  LIG1       -0.3603
     20 H           0.1731    7.6685    0.0001 H       1  LIG1        0.1653
     21 H           0.5602   10.1409    0.0006 H       1  LIG1        0.0807
     22 H           4.3676    8.0576    0.0006 H       1  LIG1        0.0639
     23 H           3.2561   10.5255    0.0015 H       1  LIG1        0.0633
@<TRIPOS>BOND
     1    13     9    1
     2    14    10    1
     3     9    10   ar
     4     9     8   ar
     5     5     2   ar
     6     5     3   ar
     7    10    11   ar
     8     2     1   ar
     9     8     3    1
    10     8    12   ar
    11     3     6   ar
    12     1     7    1
    13     1     4   ar
    14    20    19    1
    15    11    15    1
    16    11    12   ar
    17    15    19   ar
    18    15    16   ar
    19     6     4   ar
    20    19    18   ar
    21    16    22    1
    22    16    17   ar
    23    21    18    1
    24    18    17   ar
    25    17    23    1
