@<TRIPOS>MOLECULE
mol_data/opt/b3lyp/geoms/mol2/854-8-.out
 31 34 0 0 0
SMALL
GASTEIGER

@<TRIPOS>ATOM
      1 C          -0.0318   -0.1760    0.0013 C.ar    1  LIG1        0.1605
      2 N           1.3096   -0.1817    0.0010 N.ar    1  LIG1       -0.1339
      3 C           1.1417    2.0940    0.0003 C.ar    1  LIG1        0.2098
      4 N          -0.8132    0.9117    0.0012 N.ar    1  LIG1       -0.1339
      5 N           1.9201    0.9850    0.0004 N.ar    1  LIG1       -0.1253
      6 N          -0.2112    2.0836    0.0006 N.ar    1  LIG1       -0.1253
      7 H          -0.5282   -1.1404    0.0017 H       1  LIG1        0.1085
      8 C           1.8052    3.3814   -0.0003 C.ar    1  LIG1        0.0604
      9 C           3.1628    3.6282   -0.0008 C.ar    1  LIG1       -0.0432
     10 C           3.4695    5.0049   -0.0012 C.ar    1  LIG1       -0.0462
     11 C           2.3524    5.8246   -0.0011 C.ar    1  LIG1        0.0200
     12 S           0.8878    4.8647   -0.0003 S.2     1  LIG1       -0.0850
     13 H           3.8943    2.8305   -0.0008 H       1  LIG1        0.0630
     14 H           4.4849    5.3806   -0.0018 H       1  LIG1        0.0629
     15 C           1.0814    7.9883   -0.0027 C.ar    1  LIG1       -0.0529
     16 C           1.0438    9.3749   -0.0030 C.ar    1  LIG1       -0.0503
     17 C           2.3045    7.2888   -0.0015 C.ar    1  LIG1       -0.0113
     18 C           2.2350   10.1183   -0.0023 C.ar    1  LIG1        0.0227
     19 H           0.0941    9.8965   -0.0039 H       1  LIG1        0.0625
     20 C           3.4934    8.0469   -0.0008 C.ar    1  LIG1       -0.0529
     21 C           3.4615    9.4330   -0.0012 C.ar    1  LIG1       -0.0503
     22 H           4.4559    7.5479    0.0002 H       1  LIG1        0.0624
     23 H           0.1432    7.4414   -0.0033 H       1  LIG1        0.0624
     24 H           4.3842   10.0015   -0.0006 H       1  LIG1        0.0625
     25 C           2.2001   11.5907   -0.0028 C.ar    1  LIG1        0.2033
     26 N           0.9916   12.1963   -0.0036 N.ar    1  LIG1       -0.1258
     27 C           2.1397   14.1514   -0.0037 C.ar    1  LIG1        0.1605
     28 N           3.3787   12.2526   -0.0023 N.ar    1  LIG1       -0.1258
     29 N           0.9616   13.5143   -0.0040 N.ar    1  LIG1       -0.1339
     30 N           3.3464   13.5707   -0.0027 N.ar    1  LIG1       -0.1339
     31 H           2.1141   15.2361   -0.0037 H       1  LIG1        0.1085
@<TRIPOS>BOND
     1    29    27   ar
     2    29    26   ar
     3    19    16    1
     4    27    31    1
     5    27    30   ar
     6    26    25   ar
     7    23    15    1
     8    16    15   ar
     9    16    18   ar
    10    25    18    1
    11    25    28   ar
    12    30    28   ar
    13    15    17   ar
    14    18    21   ar
    15    14    10    1
    16    17    11    1
    17    17    20   ar
    18    10    11   ar
    19    10     9   ar
    20    21    20   ar
    21    21    24    1
    22    11    12   ar
    23    13     9    1
    24    20    22    1
    25     9     8   ar
    26    12     8   ar
    27     8     3    1
    28     3     5   ar
    29     3     6   ar
    30     5     2   ar
    31     6     4   ar
    32     2     1   ar
    33     4     1   ar
    34     1     7    1
