@<TRIPOS>MOLECULE
mol_data/opt/b3lyp/geoms/mol2/854-4.out
 35 38 0 0 0
SMALL
GASTEIGER

@<TRIPOS>ATOM
      1 C          -0.0279   -0.2458    0.0009 C.ar    1  LIG1        0.1605
      2 N           1.3136   -0.2502    0.0006 N.ar    1  LIG1       -0.1339
      3 C           1.1450    2.0267    0.0001 C.ar    1  LIG1        0.2098
      4 N          -0.8096    0.8414    0.0008 N.ar    1  LIG1       -0.1339
      5 N           1.9238    0.9161    0.0002 N.ar    1  LIG1       -0.1253
      6 N          -0.2092    2.0140    0.0004 N.ar    1  LIG1       -0.1253
      7 H          -0.5235   -1.2104    0.0012 H       1  LIG1        0.1085
      8 C           1.8065    3.3121   -0.0003 C.ar    1  LIG1        0.0604
      9 C           3.1639    3.5620   -0.0007 C.ar    1  LIG1       -0.0432
     10 C           3.4701    4.9386   -0.0011 C.ar    1  LIG1       -0.0462
     11 C           2.3531    5.7592   -0.0009 C.ar    1  LIG1        0.0200
     12 S           0.8891    4.7978   -0.0003 S.2     1  LIG1       -0.0850
     13 H           3.8967    2.7651   -0.0008 H       1  LIG1        0.0630
     14 H           4.4851    5.3151   -0.0016 H       1  LIG1        0.0629
     15 C           1.0867    7.9278   -0.0024 C.ar    1  LIG1       -0.0530
     16 C           1.0526    9.3150   -0.0027 C.ar    1  LIG1       -0.0534
     17 C           2.3032    7.2223   -0.0012 C.ar    1  LIG1       -0.0113
     18 C           2.2277   10.0905   -0.0018 C.ar    1  LIG1       -0.0178
     19 H           0.0803    9.7926   -0.0037 H       1  LIG1        0.0624
     20 C           3.4825    7.9902   -0.0003 C.ar    1  LIG1       -0.0530
     21 C           3.4424    9.3770   -0.0006 C.ar    1  LIG1       -0.0534
     22 H           4.4501    7.5000    0.0008 H       1  LIG1        0.0624
     23 H           0.1451    7.3867   -0.0032 H       1  LIG1        0.0624
     24 H           4.3881    9.9059    0.0003 H       1  LIG1        0.0624
     25 C           3.3686   12.3483   -0.0022 C.ar    1  LIG1       -0.0540
     26 C           3.3328   13.7403   -0.0025 C.ar    1  LIG1       -0.0612
     27 C           2.1883   11.5801   -0.0021 C.ar    1  LIG1       -0.0179
     28 C           2.1128   14.4163   -0.0027 C.ar    1  LIG1       -0.0617
     29 H           4.2652   14.2974   -0.0025 H       1  LIG1        0.0618
     30 C           0.9688   12.2845   -0.0023 C.ar    1  LIG1       -0.0540
     31 C           0.9305   13.6765   -0.0026 C.ar    1  LIG1       -0.0612
     32 H           0.0266   11.7491   -0.0022 H       1  LIG1        0.0624
     33 H           2.0841   15.5016   -0.0029 H       1  LIG1        0.0618
     34 H           4.3380   11.8637   -0.0021 H       1  LIG1        0.0624
     35 H          -0.0302   14.1831   -0.0027 H       1  LIG1        0.0618
@<TRIPOS>BOND
     1    19    16    1
     2    23    15    1
     3    33    28    1
     4    35    31    1
     5    28    31   ar
     6    28    26   ar
     7    16    15   ar
     8    16    18   ar
     9    31    30   ar
    10    29    26    1
    11    26    25   ar
    12    15    17   ar
    13    30    32    1
    14    30    27   ar
    15    25    34    1
    16    25    27   ar
    17    27    18    1
    18    18    21   ar
    19    14    10    1
    20    17    11    1
    21    17    20   ar
    22    10    11   ar
    23    10     9   ar
    24    11    12   ar
    25    13     9    1
    26     9     8   ar
    27    21    20   ar
    28    21    24    1
    29    20    22    1
    30     8    12   ar
    31     8     3    1
    32     3     5   ar
    33     3     6   ar
    34     5     2   ar
    35     6     4   ar
    36     2     1   ar
    37     4     1   ar
    38     1     7    1
