@<TRIPOS>MOLECULE
mol_data/opt/b3lyp/geoms/mol2/854-.out
 25 27 0 0 0
SMALL
GASTEIGER

@<TRIPOS>ATOM
      1 C          -0.0269   -0.1185    0.0007 C.ar    1  LIG1        0.1605
      2 N           1.3145   -0.1237    0.0002 N.ar    1  LIG1       -0.1339
      3 C           1.1468    2.1533   -0.0000 C.ar    1  LIG1        0.2098
      4 N          -0.8083    0.9689    0.0009 N.ar    1  LIG1       -0.1339
      5 N           1.9250    1.0427   -0.0002 N.ar    1  LIG1       -0.1253
      6 N          -0.2072    2.1412    0.0005 N.ar    1  LIG1       -0.1253
      7 H          -0.5230   -1.0831    0.0010 H       1  LIG1        0.1085
      8 C           1.8085    3.4393   -0.0004 C.ar    1  LIG1        0.0604
      9 C           3.1651    3.6899   -0.0011 C.ar    1  LIG1       -0.0432
     10 C           3.4698    5.0676   -0.0013 C.ar    1  LIG1       -0.0462
     11 C           2.3527    5.8864   -0.0009 C.ar    1  LIG1        0.0200
     12 S           0.8900    4.9243   -0.0000 S.2     1  LIG1       -0.0850
     13 H           3.8984    2.8933   -0.0014 H       1  LIG1        0.0630
     14 H           4.4849    5.4450   -0.0020 H       1  LIG1        0.0629
     15 C           1.0769    8.0479   -0.0019 C.ar    1  LIG1       -0.0535
     16 C           1.0408    9.4393   -0.0020 C.ar    1  LIG1       -0.0612
     17 C           2.3014    7.3538   -0.0010 C.ar    1  LIG1       -0.0113
     18 C           2.2266   10.1751   -0.0011 C.ar    1  LIG1       -0.0617
     19 H           0.0822    9.9493   -0.0027 H       1  LIG1        0.0618
     20 C           3.4888    8.1114   -0.0001 C.ar    1  LIG1       -0.0535
     21 C           3.4501    9.5023   -0.0002 C.ar    1  LIG1       -0.0612
     22 H           4.4510    7.6112    0.0007 H       1  LIG1        0.0624
     23 H           2.1981   11.2604   -0.0012 H       1  LIG1        0.0618
     24 H           0.1409    7.4970   -0.0026 H       1  LIG1        0.0624
     25 H           4.3802   10.0628    0.0004 H       1  LIG1        0.0618
@<TRIPOS>BOND
     1    19    16    1
     2    24    15    1
     3    14    10    1
     4    16    15   ar
     5    16    18   ar
     6    15    17   ar
     7    13     9    1
     8    10     9   ar
     9    10    11   ar
    10    23    18    1
    11    18    21   ar
    12     9     8   ar
    13    17    11    1
    14    17    20   ar
    15    11    12   ar
    16     8    12   ar
    17     8     3    1
    18    21    20   ar
    19    21    25    1
    20     5     3   ar
    21     5     2   ar
    22    20    22    1
    23     3     6   ar
    24     2     1   ar
    25     6     4   ar
    26     1     4   ar
    27     1     7    1
