@<TRIPOS>MOLECULE
mol_data/opt/b3lyp/geoms/mol2/854.out
 25 27 0 0 0
SMALL
GASTEIGER

@<TRIPOS>ATOM
      1 C           0.0022   -0.1351   -0.0002 C.ar    1  LIG1        0.1605
      2 N           1.3436   -0.1290   -0.0011 N.ar    1  LIG1       -0.1339
      3 C           1.1567    2.1465   -0.0001 C.ar    1  LIG1        0.2098
      4 N          -0.7884    0.9458    0.0008 N.ar    1  LIG1       -0.1339
      5 N           1.9443    1.0425   -0.0011 N.ar    1  LIG1       -0.1253
      6 N          -0.1971    2.1231    0.0008 N.ar    1  LIG1       -0.1253
      7 H          -0.4858   -1.1037   -0.0002 H       1  LIG1        0.1085
      8 C           1.8076    3.4380   -0.0001 C.ar    1  LIG1        0.0604
      9 C           3.1621    3.7000   -0.0011 C.ar    1  LIG1       -0.0432
     10 C           3.4552    5.0801   -0.0007 C.ar    1  LIG1       -0.0462
     11 C           2.3313    5.8896    0.0005 C.ar    1  LIG1        0.0200
     12 S           0.8768    4.9153    0.0012 S.2     1  LIG1       -0.0850
     13 H           3.9020    2.9095   -0.0020 H       1  LIG1        0.0630
     14 H           4.4670    5.4660   -0.0015 H       1  LIG1        0.0629
     15 C           3.4488    8.1239    0.0020 C.ar    1  LIG1       -0.0535
     16 C           3.3986    9.5144    0.0025 C.ar    1  LIG1       -0.0612
     17 C           2.2677    7.3565    0.0011 C.ar    1  LIG1       -0.0113
     18 C           2.1696   10.1771    0.0023 C.ar    1  LIG1       -0.0617
     19 H           4.3240   10.0825    0.0032 H       1  LIG1        0.0618
     20 C           1.0376    8.0404    0.0008 C.ar    1  LIG1       -0.0535
     21 C           0.9899    9.4315    0.0014 C.ar    1  LIG1       -0.0612
     22 H           0.1062    7.4820    0.0000 H       1  LIG1        0.0624
     23 H           2.1320   11.2621    0.0027 H       1  LIG1        0.0618
     24 H           4.4152    7.6313    0.0024 H       1  LIG1        0.0624
     25 H           0.0272    9.9337    0.0011 H       1  LIG1        0.0618
@<TRIPOS>BOND
     1    13     9    1
     2    14    10    1
     3     2     5   ar
     4     2     1   ar
     5     9    10   ar
     6     9     8   ar
     7     5     3   ar
     8    10    11   ar
     9     7     1    1
    10     1     4   ar
    11     3     8    1
    12     3     6   ar
    13     8    12   ar
    14    22    20    1
    15    11    17    1
    16    11    12   ar
    17     4     6   ar
    18    20    17   ar
    19    20    21   ar
    20    17    15   ar
    21    25    21    1
    22    21    18   ar
    23    15    24    1
    24    15    16   ar
    25    18    16   ar
    26    18    23    1
    27    16    19    1
