@<TRIPOS>MOLECULE
mol_data/opt/b3lyp/geoms/mol2/85513.out
 30 33 0 0 0
SMALL
GASTEIGER

@<TRIPOS>ATOM
      1 C           0.0380   -0.2074    0.0002 C.ar    1  LIG1        0.1605
      2 N           1.3799   -0.2018   -0.0006 N.ar    1  LIG1       -0.1339
      3 C           1.1950    2.0744   -0.0001 C.ar    1  LIG1        0.2098
      4 N          -0.7516    0.8743    0.0009 N.ar    1  LIG1       -0.1339
      5 N           1.9822    0.9680   -0.0008 N.ar    1  LIG1       -0.1253
      6 N          -0.1605    2.0510    0.0007 N.ar    1  LIG1       -0.1253
      7 H          -0.4504   -1.1758    0.0003 H       1  LIG1        0.1085
      8 C           1.8431    3.3626   -0.0003 C.ar    1  LIG1        0.0604
      9 C           3.1987    3.6319   -0.0012 C.ar    1  LIG1       -0.0432
     10 C           3.4923    5.0080   -0.0012 C.ar    1  LIG1       -0.0457
     11 C           2.3598    5.8149   -0.0003 C.ar    1  LIG1        0.0266
     12 S           0.9054    4.8399    0.0006 S.2     1  LIG1       -0.0845
     13 H           3.9397    2.8422   -0.0018 H       1  LIG1        0.0630
     14 H           4.5001    5.4049   -0.0018 H       1  LIG1        0.0629
     15 C           2.3165    7.2561    0.0000 C.ar    1  LIG1        0.0265
     16 C           3.3792    8.1417   -0.0002 C.ar    1  LIG1       -0.0458
     17 C           2.9997    9.5009    0.0001 C.ar    1  LIG1       -0.0449
     18 C           1.6303    9.6975    0.0007 C.ar    1  LIG1        0.0361
     19 S           0.8023    8.1513    0.0007 S.2     1  LIG1       -0.0863
     20 H           4.4123    7.8146   -0.0006 H       1  LIG1        0.0629
     21 H           3.7085   10.3200   -0.0000 H       1  LIG1        0.0630
     22 C           0.9099   10.9463    0.0011 C.ar    1  LIG1        0.0531
     23 C           1.3851   12.2565    0.0017 C.ar    1  LIG1       -0.0359
     24 C           0.2685   13.1249    0.0016 C.ar    1  LIG1       -0.0438
     25 C          -0.8674   12.3382    0.0019 C.ar    1  LIG1        0.0022
     26 N          -0.4710   11.0270    0.0011 N.ar    1  LIG1       -0.3603
     27 H          -1.0981   10.2378    0.0006 H       1  LIG1        0.1653
     28 H          -1.9136   12.6042    0.0021 H       1  LIG1        0.0807
     29 H           2.4267   12.5435    0.0019 H       1  LIG1        0.0639
     30 H           0.2893   14.2051    0.0018 H       1  LIG1        0.0633
@<TRIPOS>BOND
     1    14    10    1
     2    13     9    1
     3     9    10   ar
     4     9     8   ar
     5    10    11   ar
     6     5     2   ar
     7     5     3   ar
     8    20    16    1
     9     2     1   ar
    10     8     3    1
    11     8    12   ar
    12    11    15    1
    13    11    12   ar
    14    16    15   ar
    15    16    17   ar
    16     3     6   ar
    17    21    17    1
    18    15    19   ar
    19    17    18   ar
    20     1     7    1
    21     1     4   ar
    22    27    26    1
    23    18    19   ar
    24    18    22    1
    25     6     4   ar
    26    22    26   ar
    27    22    23   ar
    28    26    25   ar
    29    24    23   ar
    30    24    30    1
    31    24    25   ar
    32    23    29    1
    33    25    28    1
