@<TRIPOS>MOLECULE
mol_data/opt/b3lyp/geoms/mol2/858-8-.out
 27 30 0 0 0
SMALL
GASTEIGER

@<TRIPOS>ATOM
      1 C          -0.0044   -0.0980   -0.0002 C.ar    1  LIG1        0.1605
      2 N           1.3365   -0.0950   -0.0005 N.ar    1  LIG1       -0.1339
      3 C           1.1516    2.1774   -0.0002 C.ar    1  LIG1        0.2099
      4 N          -0.7942    0.9842    0.0002 N.ar    1  LIG1       -0.1339
      5 N           1.9381    1.0775   -0.0005 N.ar    1  LIG1       -0.1253
      6 N          -0.1990    2.1598    0.0001 N.ar    1  LIG1       -0.1253
      7 H          -0.4945   -1.0658   -0.0001 H       1  LIG1        0.1085
      8 C           1.8077    3.4753   -0.0002 C.ar    1  LIG1        0.0605
      9 C           3.1697    3.7168   -0.0006 C.ar    1  LIG1       -0.0431
     10 C           3.4738    5.0926   -0.0005 C.ar    1  LIG1       -0.0431
     11 C           2.3396    5.8860    0.0000 C.ar    1  LIG1        0.0605
     12 S           0.8724    4.9441    0.0003 S.2     1  LIG1       -0.0818
     13 H           3.8997    2.9178   -0.0010 H       1  LIG1        0.0630
     14 H           4.4726    5.5099   -0.0007 H       1  LIG1        0.0630
     15 C           2.2918    7.3334    0.0003 C.ar    1  LIG1        0.2099
     16 N           1.0751    7.9244    0.0006 N.ar    1  LIG1       -0.1246
     17 C           2.2019    9.8967    0.0006 C.ar    1  LIG1        0.2435
     18 N           3.4676    8.0053    0.0001 N.ar    1  LIG1       -0.1246
     19 N           1.0298    9.2354    0.0008 N.ar    1  LIG1       -0.1218
     20 N           3.4174    9.3162    0.0003 N.ar    1  LIG1       -0.1218
     21 C           2.1520   11.3850    0.0008 C.ar    1  LIG1        0.2434
     22 N           0.9356   11.9605    0.0012 N.ar    1  LIG1       -0.1224
     23 C           2.0664   13.9275    0.0010 C.ar    1  LIG1        0.1605
     24 N           3.3269   12.0409    0.0005 N.ar    1  LIG1       -0.1224
     25 N           0.8935   13.2807    0.0014 N.ar    1  LIG1       -0.1338
     26 N           3.2801   13.3610    0.0007 N.ar    1  LIG1       -0.1338
     27 H           2.0299   15.0125    0.0014 H       1  LIG1        0.1085
@<TRIPOS>BOND
     1    13     9    1
     2    14    10    1
     3     9    10   ar
     4     9     8   ar
     5     5     2   ar
     6     5     3   ar
     7    10    11   ar
     8     2     1   ar
     9     8     3    1
    10     8    12   ar
    11     3     6   ar
    12     1     7    1
    13     1     4   ar
    14    11    15    1
    15    11    12   ar
    16    18    15   ar
    17    18    20   ar
    18     6     4   ar
    19    15    16   ar
    20    20    17   ar
    21    24    26   ar
    22    24    21   ar
    23    16    19   ar
    24    17    21    1
    25    17    19   ar
    26    26    23   ar
    27    21    22   ar
    28    23    25   ar
    29    23    27    1
    30    22    25   ar
