@<TRIPOS>MOLECULE
mol_data/opt/b3lyp/geoms/mol2/858-.out
 21 23 0 0 0
SMALL
GASTEIGER

@<TRIPOS>ATOM
      1 C          -0.0071   -0.0598    0.0000 C.ar    1  LIG1        0.1605
      2 N           1.3338   -0.0598   -0.0003 N.ar    1  LIG1       -0.1339
      3 C           1.1549    2.2138   -0.0001 C.ar    1  LIG1        0.2099
      4 N          -0.7941    1.0243    0.0003 N.ar    1  LIG1       -0.1339
      5 N           1.9384    1.1111   -0.0004 N.ar    1  LIG1       -0.1253
      6 N          -0.1962    2.1985    0.0002 N.ar    1  LIG1       -0.1253
      7 H          -0.4993   -1.0263    0.0001 H       1  LIG1        0.1085
      8 C           1.8127    3.5096   -0.0002 C.ar    1  LIG1        0.0605
      9 C           3.1738    3.7515   -0.0006 C.ar    1  LIG1       -0.0431
     10 C           3.4780    5.1287   -0.0006 C.ar    1  LIG1       -0.0431
     11 C           2.3454    5.9215   -0.0001 C.ar    1  LIG1        0.0605
     12 S           0.8790    4.9808    0.0003 S.2     1  LIG1       -0.0818
     13 H           3.9042    2.9526   -0.0010 H       1  LIG1        0.0630
     14 H           4.4771    5.5455   -0.0008 H       1  LIG1        0.0630
     15 C           2.2951    7.3739    0.0001 C.ar    1  LIG1        0.2099
     16 N           1.0762    7.9571    0.0003 N.ar    1  LIG1       -0.1253
     17 C           2.1995    9.9252    0.0003 C.ar    1  LIG1        0.1605
     18 N           3.4703    8.0436   -0.0001 N.ar    1  LIG1       -0.1253
     19 N           1.0288    9.2739    0.0005 N.ar    1  LIG1       -0.1339
     20 N           3.4155    9.3603    0.0001 N.ar    1  LIG1       -0.1339
     21 H           2.1603   11.0093    0.0005 H       1  LIG1        0.1085
@<TRIPOS>BOND
     1    13     9    1
     2    14    10    1
     3     9    10   ar
     4     9     8   ar
     5    10    11   ar
     6     5     2   ar
     7     5     3   ar
     8     2     1   ar
     9     8     3    1
    10     8    12   ar
    11     3     6   ar
    12    11    15    1
    13    11    12   ar
    14    18    15   ar
    15    18    20   ar
    16     1     7    1
    17     1     4   ar
    18    15    16   ar
    19    20    17   ar
    20     6     4   ar
    21    17    19   ar
    22    17    21    1
    23    16    19   ar
