@<TRIPOS>MOLECULE
mol_data/opt/b3lyp/geoms/mol2/88-.out
 14 15 0 0 0
SMALL
GASTEIGER

@<TRIPOS>ATOM
      1 C          -0.0003   -0.0007   -0.0000 C.ar    1  LIG1        0.1605
      2 N           1.3390    0.0077    0.0000 N.ar    1  LIG1       -0.1338
      3 C           1.1368    2.2731   -0.0000 C.ar    1  LIG1        0.2434
      4 N          -0.7969    1.0760   -0.0001 N.ar    1  LIG1       -0.1338
      5 N           1.9315    1.1888    0.0001 N.ar    1  LIG1       -0.1224
      6 N          -0.2074    2.2585   -0.0001 N.ar    1  LIG1       -0.1224
      7 H          -0.4858   -0.9713   -0.0000 H       1  LIG1        0.1085
      8 C           1.8055    3.6100    0.0000 C.ar    1  LIG1        0.2434
      9 N           1.0109    4.6944    0.0000 N.ar    1  LIG1       -0.1224
     10 C           2.9426    5.8838    0.0002 C.ar    1  LIG1        0.1605
     11 N           3.1497    3.6247   -0.0000 N.ar    1  LIG1       -0.1224
     12 N           1.6033    5.8754    0.0001 N.ar    1  LIG1       -0.1338
     13 N           3.7393    4.8072    0.0000 N.ar    1  LIG1       -0.1338
     14 H           3.4281    6.8544   -0.0002 H       1  LIG1        0.1085
@<TRIPOS>BOND
     1    14    10    1
     2     4     6   ar
     3     4     1   ar
     4     6     3   ar
     5     7     1    1
     6     1     2   ar
     7     3     8    1
     8     3     5   ar
     9    11     8   ar
    10    11    13   ar
    11     8     9   ar
    12    13    10   ar
    13     2     5   ar
    14     9    12   ar
    15    12    10   ar
