@<TRIPOS>MOLECULE
mol_data/opt/b3lyp/geoms/mol2/88-1312-.out
 29 32 0 0 0
SMALL
GASTEIGER

@<TRIPOS>ATOM
      1 C          -0.0628   -0.0214   -0.0004 C.ar    1  LIG1        0.1605
      2 N           1.2762   -0.0352   -0.0004 N.ar    1  LIG1       -0.1338
      3 C           1.1166    2.2370   -0.0001 C.ar    1  LIG1        0.2434
      4 N          -0.8396    1.0695   -0.0003 N.ar    1  LIG1       -0.1338
      5 N           1.8908    1.1337   -0.0003 N.ar    1  LIG1       -0.1224
      6 N          -0.2313    2.2415   -0.0001 N.ar    1  LIG1       -0.1224
      7 H          -0.5652   -0.9837   -0.0005 H       1  LIG1        0.1085
      8 C           1.8030    3.5537    0.0001 C.ar    1  LIG1        0.2435
      9 N           1.0327    4.6578    0.0003 N.ar    1  LIG1       -0.1218
     10 C           2.9984    5.8279    0.0004 C.ar    1  LIG1        0.2194
     11 N           3.1542    3.5532   -0.0000 N.ar    1  LIG1       -0.1218
     12 N           1.6382    5.8195    0.0004 N.ar    1  LIG1       -0.1236
     13 N           3.7696    4.7067    0.0002 N.ar    1  LIG1       -0.1236
     14 C           3.6426    7.1038    0.0005 C.ar    1  LIG1        0.0880
     15 C           4.9930    7.4647    0.0003 C.ar    1  LIG1       -0.0325
     16 C           5.0540    8.8644    0.0008 C.ar    1  LIG1       -0.0327
     17 C           3.7367    9.3487    0.0008 C.ar    1  LIG1        0.0826
     18 N           2.9015    8.2685    0.0007 N.ar    1  LIG1       -0.3492
     19 H           1.8919    8.2693    0.0006 H       1  LIG1        0.1661
     20 H           5.8172    6.7674    0.0001 H       1  LIG1        0.0640
     21 H           5.9383    9.4835    0.0009 H       1  LIG1        0.0640
     22 C           3.2557   10.7039    0.0011 C.ar    1  LIG1        0.1509
     23 C           2.0054   11.2733    0.0016 C.ar    1  LIG1       -0.0144
     24 C           2.2044   12.6870    0.0016 C.ar    1  LIG1       -0.0233
     25 C           3.5531   12.8814    0.0011 C.ar    1  LIG1        0.0926
     26 O           4.2084   11.6878    0.0009 O.2     1  LIG1       -0.4615
     27 H           4.1782   13.7600    0.0009 H       1  LIG1        0.1029
     28 H           1.0579   10.7531    0.0019 H       1  LIG1        0.0656
     29 H           1.4440   13.4539    0.0019 H       1  LIG1        0.0649
@<TRIPOS>BOND
     1     7     1    1
     2     1     2   ar
     3     1     4   ar
     4     2     5   ar
     5     4     6   ar
     6     5     3   ar
     7     6     3   ar
     8     3     8    1
     9    11     8   ar
    10    11    13   ar
    11     8     9   ar
    12    20    15    1
    13    13    10   ar
    14     9    12   ar
    15    15    14   ar
    16    15    16   ar
    17    10    12   ar
    18    10    14    1
    19    14    18   ar
    20    19    18    1
    21    18    17   ar
    22    16    17   ar
    23    16    21    1
    24    17    22    1
    25    27    25    1
    26    26    25   ar
    27    26    22   ar
    28    25    24   ar
    29    22    23   ar
    30    23    24   ar
    31    23    28    1
    32    24    29    1
