@<TRIPOS>MOLECULE
mol_data/opt/b3lyp/geoms/mol2/88-13.out
 22 24 0 0 0
SMALL
GASTEIGER

@<TRIPOS>ATOM
      1 C          -0.0362   -0.0122   -0.0002 C.ar    1  LIG1        0.1605
      2 N           1.3029   -0.0155   -0.0000 N.ar    1  LIG1       -0.1338
      3 C           1.1249    2.2549   -0.0000 C.ar    1  LIG1        0.2434
      4 N          -0.8216    1.0725   -0.0003 N.ar    1  LIG1       -0.1338
      5 N           1.9078    1.1586    0.0000 N.ar    1  LIG1       -0.1224
      6 N          -0.2223    2.2493   -0.0002 N.ar    1  LIG1       -0.1224
      7 H          -0.5309   -0.9782   -0.0003 H       1  LIG1        0.1085
      8 C           1.8019    3.5784    0.0001 C.ar    1  LIG1        0.2435
      9 N           1.0229    4.6755    0.0001 N.ar    1  LIG1       -0.1218
     10 C           2.9784    5.8620    0.0003 C.ar    1  LIG1        0.2194
     11 N           3.1515    3.5884    0.0002 N.ar    1  LIG1       -0.1218
     12 N           1.6201    5.8425    0.0002 N.ar    1  LIG1       -0.1236
     13 N           3.7578    4.7484    0.0003 N.ar    1  LIG1       -0.1236
     14 C           3.6150    7.1458    0.0003 C.ar    1  LIG1        0.0875
     15 C           4.9607    7.5140    0.0003 C.ar    1  LIG1       -0.0333
     16 C           5.0087    8.9215    0.0005 C.ar    1  LIG1       -0.0437
     17 C           3.6965    9.3827    0.0003 C.ar    1  LIG1        0.0023
     18 N           2.8669    8.3066    0.0003 N.ar    1  LIG1       -0.3582
     19 H           1.8571    8.3061    0.0003 H       1  LIG1        0.1654
     20 H           3.3079   10.3905    0.0004 H       1  LIG1        0.0807
     21 H           5.7900    6.8225    0.0002 H       1  LIG1        0.0640
     22 H           5.8933    9.5410    0.0007 H       1  LIG1        0.0633
@<TRIPOS>BOND
     1     4     6   ar
     2     4     1   ar
     3     7     1    1
     4     6     3   ar
     5     1     2   ar
     6     2     5   ar
     7     3     5   ar
     8     3     8    1
     9     8     9   ar
    10     8    11   ar
    11     9    12   ar
    12    11    13   ar
    13    12    10   ar
    14    21    15    1
    15    19    18    1
    16    13    10   ar
    17    10    14    1
    18    15    14   ar
    19    15    16   ar
    20    14    18   ar
    21    18    17   ar
    22    17    20    1
    23    17    16   ar
    24    16    22    1
