@<TRIPOS>MOLECULE
mol_data/opt/b3lyp/geoms/mol2/88-13-.out
 22 24 0 0 0
SMALL
GASTEIGER

@<TRIPOS>ATOM
      1 C           0.0120   -0.0363    0.0002 C.ar    1  LIG1        0.1605
      2 N           1.3510   -0.0141    0.0002 N.ar    1  LIG1       -0.1338
      3 C           1.1294    2.2526    0.0000 C.ar    1  LIG1        0.2434
      4 N          -0.7939    1.0332    0.0001 N.ar    1  LIG1       -0.1338
      5 N           1.9331    1.1713    0.0001 N.ar    1  LIG1       -0.1224
      6 N          -0.2174    2.2215    0.0000 N.ar    1  LIG1       -0.1224
      7 H          -0.4643   -1.0116    0.0003 H       1  LIG1        0.1085
      8 C           1.7823    3.5882   -0.0001 C.ar    1  LIG1        0.2435
      9 N           0.9808    4.6740   -0.0000 N.ar    1  LIG1       -0.1218
     10 C           2.9038    5.8993   -0.0002 C.ar    1  LIG1        0.2194
     11 N           3.1274    3.6229   -0.0001 N.ar    1  LIG1       -0.1218
     12 N           1.5453    5.8549   -0.0001 N.ar    1  LIG1       -0.1236
     13 N           3.7029    4.8008   -0.0002 N.ar    1  LIG1       -0.1236
     14 C           3.5492    7.1787   -0.0003 C.ar    1  LIG1        0.0875
     15 C           3.0366    8.4763   -0.0002 C.ar    1  LIG1       -0.0333
     16 C           4.1340    9.3589   -0.0005 C.ar    1  LIG1       -0.0437
     17 C           5.2901    8.5857   -0.0004 C.ar    1  LIG1        0.0023
     18 N           4.9267    7.2764   -0.0004 N.ar    1  LIG1       -0.3582
     19 H           5.5320    6.4682   -0.0004 H       1  LIG1        0.1654
     20 H           6.3296    8.8793   -0.0005 H       1  LIG1        0.0807
     21 H           1.9859    8.7251   -0.0001 H       1  LIG1        0.0640
     22 H           4.0990   10.4383   -0.0006 H       1  LIG1        0.0633
@<TRIPOS>BOND
     1    22    16    1
     2    20    17    1
     3    16    17   ar
     4    16    15   ar
     5    18    17   ar
     6    18    19    1
     7    18    14   ar
     8    14    10    1
     9    14    15   ar
    10    10    13   ar
    11    10    12   ar
    12    13    11   ar
    13    15    21    1
    14    11     8   ar
    15    12     9   ar
    16     8     9   ar
    17     8     3    1
    18     3     6   ar
    19     3     5   ar
    20     6     4   ar
    21     5     2   ar
    22     4     1   ar
    23     2     1   ar
    24     1     7    1
