@<TRIPOS>MOLECULE
mol_data/opt/b3lyp/geoms/mol2/88-13-12.out
 29 32 0 0 0
SMALL
GASTEIGER

@<TRIPOS>ATOM
      1 C           0.0205   -0.0631    0.0004 C.ar    1  LIG1        0.1605
      2 N           1.3594   -0.0302    0.0001 N.ar    1  LIG1       -0.1338
      3 C           1.1201    2.2353    0.0001 C.ar    1  LIG1        0.2434
      4 N          -0.7937    1.0000    0.0005 N.ar    1  LIG1       -0.1338
      5 N           1.9322    1.1595   -0.0000 N.ar    1  LIG1       -0.1224
      6 N          -0.2270    2.1929    0.0004 N.ar    1  LIG1       -0.1224
      7 H          -0.4480   -1.0423    0.0006 H       1  LIG1        0.1085
      8 C           1.7620    3.5742   -0.0001 C.ar    1  LIG1        0.2435
      9 N           0.9510    4.6551    0.0001 N.ar    1  LIG1       -0.1218
     10 C           2.8645    5.8949   -0.0004 C.ar    1  LIG1        0.2194
     11 N           3.1074    3.6202   -0.0004 N.ar    1  LIG1       -0.1218
     12 N           1.5048    5.8394   -0.0000 N.ar    1  LIG1       -0.1236
     13 N           3.6737    4.8015   -0.0006 N.ar    1  LIG1       -0.1236
     14 C           3.4990    7.1756   -0.0005 C.ar    1  LIG1        0.0880
     15 C           2.9777    8.4726   -0.0002 C.ar    1  LIG1       -0.0325
     16 C           4.0611    9.3609   -0.0008 C.ar    1  LIG1       -0.0327
     17 C           5.2388    8.5975   -0.0010 C.ar    1  LIG1        0.0826
     18 N           4.8754    7.2813   -0.0008 N.ar    1  LIG1       -0.3492
     19 H           5.4818    6.4739   -0.0009 H       1  LIG1        0.1661
     20 H           1.9255    8.7138    0.0001 H       1  LIG1        0.0640
     21 H           4.0261   10.4399   -0.0009 H       1  LIG1        0.0640
     22 C           6.6116    9.0255   -0.0013 C.ar    1  LIG1        0.1509
     23 C           7.8172    8.3667   -0.0019 C.ar    1  LIG1       -0.0144
     24 C           8.8289    9.3739   -0.0020 C.ar    1  LIG1       -0.0233
     25 C           8.1755   10.5696   -0.0015 C.ar    1  LIG1        0.0926
     26 O           6.8274   10.3779   -0.0012 O.2     1  LIG1       -0.4615
     27 H           8.5035   11.5968   -0.0013 H       1  LIG1        0.1029
     28 H           7.9693    7.2965   -0.0022 H       1  LIG1        0.0656
     29 H           9.8987    9.2254   -0.0024 H       1  LIG1        0.0649
@<TRIPOS>BOND
     1    29    24    1
     2    28    23    1
     3    24    23   ar
     4    24    25   ar
     5    23    22   ar
     6    25    27    1
     7    25    26   ar
     8    22    26   ar
     9    22    17    1
    10    17    18   ar
    11    17    16   ar
    12    21    16    1
    13    19    18    1
    14    18    14   ar
    15    16    15   ar
    16    13    10   ar
    17    13    11   ar
    18    14    10    1
    19    14    15   ar
    20    10    12   ar
    21    11     8   ar
    22    15    20    1
    23     8     3    1
    24     8     9   ar
    25    12     9   ar
    26     5     3   ar
    27     5     2   ar
    28     3     6   ar
    29     2     1   ar
    30     6     4   ar
    31     1     4   ar
    32     1     7    1
