@<TRIPOS>MOLECULE
mol_data/opt/b3lyp/geoms/mol2/88-4.out
 24 26 0 0 0
SMALL
GASTEIGER

@<TRIPOS>ATOM
      1 C          -0.0108   -0.0582   -0.0006 C.ar    1  LIG1        0.1605
      2 N           1.3283   -0.0436   -0.0002 N.ar    1  LIG1       -0.1338
      3 C           1.1180    2.2228   -0.0001 C.ar    1  LIG1        0.2434
      4 N          -0.8114    1.0153   -0.0007 N.ar    1  LIG1       -0.1338
      5 N           1.9165    1.1393    0.0001 N.ar    1  LIG1       -0.1224
      6 N          -0.2277    2.2004   -0.0004 N.ar    1  LIG1       -0.1224
      7 H          -0.4921   -1.0309   -0.0008 H       1  LIG1        0.1085
      8 C           1.7788    3.5581    0.0002 C.ar    1  LIG1        0.2435
      9 N           0.9856    4.6439    0.0002 N.ar    1  LIG1       -0.1218
     10 C           2.9206    5.8653    0.0008 C.ar    1  LIG1        0.2034
     11 N           3.1232    3.5861    0.0005 N.ar    1  LIG1       -0.1218
     12 N           1.5682    5.8206    0.0005 N.ar    1  LIG1       -0.1251
     13 N           3.7054    4.7630    0.0008 N.ar    1  LIG1       -0.1251
     14 C           4.9758    7.2782    0.0015 C.ar    1  LIG1       -0.0509
     15 C           5.5885    8.5274    0.0017 C.ar    1  LIG1       -0.0611
     16 C           3.5730    7.1836    0.0010 C.ar    1  LIG1        0.0226
     17 C           4.8137    9.6901    0.0016 C.ar    1  LIG1       -0.0617
     18 H           6.6720    8.5950    0.0020 H       1  LIG1        0.0618
     19 C           2.7976    8.3563    0.0009 C.ar    1  LIG1       -0.0509
     20 C           3.4193    9.6011    0.0012 C.ar    1  LIG1       -0.0611
     21 H           1.7170    8.2756    0.0006 H       1  LIG1        0.0625
     22 H           5.2954   10.6634    0.0018 H       1  LIG1        0.0618
     23 H           5.5668    6.3697    0.0016 H       1  LIG1        0.0625
     24 H           2.8162   10.5037    0.0010 H       1  LIG1        0.0618
@<TRIPOS>BOND
     1     7     1    1
     2     4     1   ar
     3     4     6   ar
     4     1     2   ar
     5     6     3   ar
     6     2     5   ar
     7     3     5   ar
     8     3     8    1
     9     9     8   ar
    10     9    12   ar
    11     8    11   ar
    12    12    10   ar
    13    11    13   ar
    14    21    19    1
    15    10    13   ar
    16    10    16    1
    17    19    16   ar
    18    19    20   ar
    19    16    14   ar
    20    24    20    1
    21    20    17   ar
    22    14    23    1
    23    14    15   ar
    24    17    15   ar
    25    17    22    1
    26    15    18    1
