@<TRIPOS>MOLECULE
mol_data/opt/b3lyp/geoms/mol2/88-4-8.out
 30 33 0 0 0
SMALL
GASTEIGER

@<TRIPOS>ATOM
      1 C          -0.0689   -0.0817    0.0014 C.ar    1  LIG1        0.1605
      2 N           1.2704   -0.0812    0.0015 N.ar    1  LIG1       -0.1338
      3 C           1.0832    2.1865    0.0004 C.ar    1  LIG1        0.2434
      4 N          -0.8585    1.0001    0.0009 N.ar    1  LIG1       -0.1338
      5 N           1.8707    1.0955    0.0009 N.ar    1  LIG1       -0.1224
      6 N          -0.2622    2.1790    0.0004 N.ar    1  LIG1       -0.1224
      7 H          -0.5603   -1.0491    0.0019 H       1  LIG1        0.1085
      8 C           1.7581    3.5152   -0.0001 C.ar    1  LIG1        0.2435
      9 N           0.9760    4.6092   -0.0005 N.ar    1  LIG1       -0.1218
     10 C           2.9230    5.8084   -0.0012 C.ar    1  LIG1        0.2034
     11 N           3.1029    3.5288   -0.0002 N.ar    1  LIG1       -0.1218
     12 N           1.5715    5.7798   -0.0011 N.ar    1  LIG1       -0.1251
     13 N           3.6971    4.7002   -0.0007 N.ar    1  LIG1       -0.1251
     14 C           2.8281    8.3027   -0.0024 C.ar    1  LIG1       -0.0503
     15 C           3.4573    9.5400   -0.0029 C.ar    1  LIG1       -0.0503
     16 C           3.5898    7.1212   -0.0018 C.ar    1  LIG1        0.0227
     17 C           4.8598    9.6216   -0.0029 C.ar    1  LIG1        0.0227
     18 H           2.8738   10.4528   -0.0034 H       1  LIG1        0.0625
     19 C           4.9931    7.2030   -0.0018 C.ar    1  LIG1       -0.0503
     20 C           5.6212    8.4409   -0.0024 C.ar    1  LIG1       -0.0503
     21 H           5.5772    6.2905   -0.0013 H       1  LIG1        0.0625
     22 H           1.7471    8.2360   -0.0024 H       1  LIG1        0.0625
     23 H           6.7028    8.5082   -0.0024 H       1  LIG1        0.0625
     24 C           5.5292   10.9392   -0.0035 C.ar    1  LIG1        0.2033
     25 N           6.8790   10.9621   -0.0038 N.ar    1  LIG1       -0.1258
     26 C           6.6885   13.2212   -0.0044 C.ar    1  LIG1        0.1605
     27 N           4.7516   12.0430   -0.0038 N.ar    1  LIG1       -0.1258
     28 N           7.4762   12.1382   -0.0043 N.ar    1  LIG1       -0.1339
     29 N           5.3493   13.2187   -0.0044 N.ar    1  LIG1       -0.1339
     30 H           7.1801   14.1888   -0.0052 H       1  LIG1        0.1085
@<TRIPOS>BOND
     1    30    26    1
     2    26    29   ar
     3    26    28   ar
     4    29    27   ar
     5    28    25   ar
     6    27    24   ar
     7    25    24   ar
     8    24    17    1
     9    18    15    1
    10    17    15   ar
    11    17    20   ar
    12    15    14   ar
    13    23    20    1
    14    20    19   ar
    15    14    22    1
    16    14    16   ar
    17    19    16   ar
    18    19    21    1
    19    16    10    1
    20    10    12   ar
    21    10    13   ar
    22    12     9   ar
    23    13    11   ar
    24     9     8   ar
    25    11     8   ar
    26     8     3    1
    27     6     3   ar
    28     6     4   ar
    29     3     5   ar
    30     4     1   ar
    31     5     2   ar
    32     1     2   ar
    33     1     7    1
