@<TRIPOS>MOLECULE
mol_data/opt/b3lyp/geoms/mol2/88-48-.out
 30 33 0 0 0
SMALL
GASTEIGER

@<TRIPOS>ATOM
      1 C          -0.0240   -0.1041   -0.0015 C.ar    1  LIG1        0.1605
      2 N           1.3152   -0.0870   -0.0010 N.ar    1  LIG1       -0.1338
      3 C           1.0997    2.1782   -0.0005 C.ar    1  LIG1        0.2434
      4 N          -0.8270    0.9678   -0.0016 N.ar    1  LIG1       -0.1338
      5 N           1.9007    1.0972   -0.0005 N.ar    1  LIG1       -0.1224
      6 N          -0.2455    2.1539   -0.0010 N.ar    1  LIG1       -0.1224
      7 H          -0.5033   -1.0776   -0.0019 H       1  LIG1        0.1085
      8 C           1.7580    3.5153    0.0002 C.ar    1  LIG1        0.2435
      9 N           0.9623    4.5994    0.0002 N.ar    1  LIG1       -0.1218
     10 C           2.8942    5.8228    0.0013 C.ar    1  LIG1        0.2034
     11 N           3.1026    3.5456    0.0006 N.ar    1  LIG1       -0.1218
     12 N           1.5431    5.7774    0.0008 N.ar    1  LIG1       -0.1251
     13 N           3.6820    4.7243    0.0012 N.ar    1  LIG1       -0.1251
     14 C           4.9468    7.2430    0.0024 C.ar    1  LIG1       -0.0503
     15 C           5.5595    8.4886    0.0030 C.ar    1  LIG1       -0.0503
     16 C           3.5446    7.1438    0.0018 C.ar    1  LIG1        0.0227
     17 C           4.7835    9.6598    0.0029 C.ar    1  LIG1        0.0227
     18 H           6.6398    8.5693    0.0034 H       1  LIG1        0.0625
     19 C           2.7683    8.3157    0.0018 C.ar    1  LIG1       -0.0503
     20 C           3.3820    9.5608    0.0024 C.ar    1  LIG1       -0.0503
     21 H           1.6879    8.2357    0.0014 H       1  LIG1        0.0625
     22 H           5.5419    6.3381    0.0024 H       1  LIG1        0.0625
     23 H           2.7871   10.4665    0.0024 H       1  LIG1        0.0625
     24 C           5.4362   10.9857    0.0035 C.ar    1  LIG1        0.2033
     25 N           4.6449   12.0795    0.0037 N.ar    1  LIG1       -0.1258
     26 C           6.5667   13.2822    0.0044 C.ar    1  LIG1        0.1605
     27 N           6.7858   11.0256    0.0038 N.ar    1  LIG1       -0.1258
     28 N           5.2277   13.2628    0.0043 N.ar    1  LIG1       -0.1339
     29 N           7.3680   12.2091    0.0043 N.ar    1  LIG1       -0.1339
     30 H           7.0461   14.2558    0.0052 H       1  LIG1        0.1085
@<TRIPOS>BOND
     1     7     1    1
     2     4     1   ar
     3     4     6   ar
     4     1     2   ar
     5     6     3   ar
     6     2     5   ar
     7     3     5   ar
     8     3     8    1
     9     8     9   ar
    10     8    11   ar
    11     9    12   ar
    12    11    13   ar
    13    12    10   ar
    14    13    10   ar
    15    10    16    1
    16    21    19    1
    17    19    16   ar
    18    19    20   ar
    19    16    14   ar
    20    23    20    1
    21    20    17   ar
    22    14    22    1
    23    14    15   ar
    24    17    15   ar
    25    17    24    1
    26    15    18    1
    27    24    25   ar
    28    24    27   ar
    29    25    28   ar
    30    27    29   ar
    31    28    26   ar
    32    29    26   ar
    33    26    30    1
