@<TRIPOS>MOLECULE
mol_data/opt/b3lyp/geoms/mol2/88-5-5-.out
 28 31 0 0 0
SMALL
GASTEIGER

@<TRIPOS>ATOM
      1 C          -0.0433   -0.0889   -0.0003 C.ar    1  LIG1        0.1605
      2 N           1.2958   -0.0680   -0.0003 N.ar    1  LIG1       -0.1338
      3 C           1.0758    2.1984   -0.0001 C.ar    1  LIG1        0.2434
      4 N          -0.8485    0.9810   -0.0002 N.ar    1  LIG1       -0.1338
      5 N           1.8788    1.1169   -0.0002 N.ar    1  LIG1       -0.1224
      6 N          -0.2708    2.1689   -0.0001 N.ar    1  LIG1       -0.1224
      7 H          -0.5203   -1.0639   -0.0004 H       1  LIG1        0.1085
      8 C           1.7296    3.5337    0.0001 C.ar    1  LIG1        0.2435
      9 N           0.9289    4.6186    0.0003 N.ar    1  LIG1       -0.1218
     10 C           2.8551    5.8429    0.0003 C.ar    1  LIG1        0.2099
     11 N           3.0752    3.5684   -0.0000 N.ar    1  LIG1       -0.1218
     12 N           1.4969    5.7987    0.0004 N.ar    1  LIG1       -0.1246
     13 N           3.6521    4.7448    0.0001 N.ar    1  LIG1       -0.1246
     14 C           3.4888    7.1336    0.0004 C.ar    1  LIG1        0.0604
     15 C           2.8798    8.3760    0.0006 C.ar    1  LIG1       -0.0432
     16 C           3.7983    9.4407    0.0007 C.ar    1  LIG1       -0.0457
     17 C           5.1248    9.0256    0.0005 C.ar    1  LIG1        0.0266
     18 S           5.2320    7.2809    0.0002 S.2     1  LIG1       -0.0845
     19 H           1.8027    8.4866    0.0008 H       1  LIG1        0.0630
     20 H           3.5057   10.4837    0.0009 H       1  LIG1        0.0629
     21 C           6.3010    9.8696    0.0005 C.ar    1  LIG1        0.0259
     22 C           6.3437   11.2513    0.0003 C.ar    1  LIG1       -0.0464
     23 C           7.6618   11.7778    0.0004 C.ar    1  LIG1       -0.0541
     24 C           8.6232   10.8023    0.0006 C.ar    1  LIG1       -0.0237
     25 S           7.9299    9.2165    0.0009 S.2     1  LIG1       -0.0961
     26 H           9.6977   10.9170    0.0007 H       1  LIG1        0.0693
     27 H           5.4530   11.8686    0.0000 H       1  LIG1        0.0629
     28 H           7.8882   12.8374    0.0002 H       1  LIG1        0.0623
@<TRIPOS>BOND
     1     7     1    1
     2     2     1   ar
     3     2     5   ar
     4     1     4   ar
     5     5     3   ar
     6     4     6   ar
     7     3     6   ar
     8     3     8    1
     9    11     8   ar
    10    11    13   ar
    11    27    22    1
    12     8     9   ar
    13    13    10   ar
    14    28    23    1
    15    18    14   ar
    16    18    17   ar
    17     9    12   ar
    18    22    23   ar
    19    22    21   ar
    20    10    12   ar
    21    10    14    1
    22    23    24   ar
    23    14    15   ar
    24    17    21    1
    25    17    16   ar
    26    21    25   ar
    27    24    26    1
    28    24    25   ar
    29    15    16   ar
    30    15    19    1
    31    16    20    1
