@<TRIPOS>MOLECULE
mol_data/opt/b3lyp/geoms/mol2/88-5-.out
 21 23 0 0 0
SMALL
GASTEIGER

@<TRIPOS>ATOM
      1 C          -0.0016   -0.0405   -0.0002 C.ar    1  LIG1        0.1605
      2 N           1.3375   -0.0206   -0.0001 N.ar    1  LIG1       -0.1338
      3 C           1.1187    2.2452   -0.0000 C.ar    1  LIG1        0.2434
      4 N          -0.8062    1.0300   -0.0001 N.ar    1  LIG1       -0.1338
      5 N           1.9213    1.1642   -0.0001 N.ar    1  LIG1       -0.1224
      6 N          -0.2272    2.2173   -0.0001 N.ar    1  LIG1       -0.1224
      7 H          -0.4792   -1.0151   -0.0002 H       1  LIG1        0.1085
      8 C           1.7741    3.5817    0.0001 C.ar    1  LIG1        0.2435
      9 N           0.9750    4.6661    0.0002 N.ar    1  LIG1       -0.1218
     10 C           2.9020    5.8887    0.0002 C.ar    1  LIG1        0.2099
     11 N           3.1190    3.6145    0.0000 N.ar    1  LIG1       -0.1218
     12 N           1.5461    5.8465    0.0003 N.ar    1  LIG1       -0.1246
     13 N           3.6968    4.7917    0.0001 N.ar    1  LIG1       -0.1246
     14 C           3.5393    7.1843    0.0003 C.ar    1  LIG1        0.0598
     15 C           2.9271    8.4226    0.0004 C.ar    1  LIG1       -0.0438
     16 C           3.8558    9.4923    0.0005 C.ar    1  LIG1       -0.0540
     17 C           5.1586    9.0554    0.0003 C.ar    1  LIG1       -0.0236
     18 S           5.2819    7.3333    0.0002 S.2     1  LIG1       -0.0934
     19 H           6.0582    9.6560    0.0003 H       1  LIG1        0.0693
     20 H           1.8498    8.5322    0.0005 H       1  LIG1        0.0630
     21 H           3.5759   10.5386    0.0006 H       1  LIG1        0.0623
@<TRIPOS>BOND
     1     7     1    1
     2     1     4   ar
     3     1     2   ar
     4     4     6   ar
     5     2     5   ar
     6     6     3   ar
     7     5     3   ar
     8     3     8    1
     9    11     8   ar
    10    11    13   ar
    11     8     9   ar
    12    13    10   ar
    13     9    12   ar
    14    18    14   ar
    15    18    17   ar
    16    10    12   ar
    17    10    14    1
    18    14    15   ar
    19    19    17    1
    20    17    16   ar
    21    15    16   ar
    22    15    20    1
    23    16    21    1
