@<TRIPOS>MOLECULE
mol_data/opt/b3lyp/geoms/mol2/88-5-12-.out
 28 31 0 0 0
SMALL
GASTEIGER

@<TRIPOS>ATOM
      1 C          -0.0591   -0.0685   -0.0002 C.ar    1  LIG1        0.1605
      2 N           1.2801   -0.0566   -0.0002 N.ar    1  LIG1       -0.1338
      3 C           1.0756    2.2113   -0.0000 C.ar    1  LIG1        0.2434
      4 N          -0.8570    1.0069   -0.0001 N.ar    1  LIG1       -0.1338
      5 N           1.8712    1.1243   -0.0001 N.ar    1  LIG1       -0.1224
      6 N          -0.2713    2.1908   -0.0000 N.ar    1  LIG1       -0.1224
      7 H          -0.5428   -1.0403   -0.0002 H       1  LIG1        0.1085
      8 C           1.7382    3.5422    0.0001 C.ar    1  LIG1        0.2435
      9 N           0.9448    4.6324    0.0002 N.ar    1  LIG1       -0.1218
     10 C           2.8793    5.8441    0.0002 C.ar    1  LIG1        0.2099
     11 N           3.0841    3.5679   -0.0001 N.ar    1  LIG1       -0.1218
     12 N           1.5207    5.8086    0.0003 N.ar    1  LIG1       -0.1246
     13 N           3.6689    4.7404    0.0000 N.ar    1  LIG1       -0.1246
     14 C           3.5217    7.1308    0.0003 C.ar    1  LIG1        0.0605
     15 C           2.9152    8.3754    0.0005 C.ar    1  LIG1       -0.0431
     16 C           3.8378    9.4366    0.0005 C.ar    1  LIG1       -0.0433
     17 C           5.1584    9.0068    0.0003 C.ar    1  LIG1        0.0551
     18 S           5.2672    7.2655    0.0001 S.2     1  LIG1       -0.0820
     19 H           1.8384    8.4897    0.0006 H       1  LIG1        0.0630
     20 H           3.5561   10.4829    0.0006 H       1  LIG1        0.0630
     21 C           6.3418    9.8230    0.0003 C.ar    1  LIG1        0.1413
     22 C           6.5514   11.1825    0.0001 C.ar    1  LIG1       -0.0154
     23 C           7.9639   11.3758    0.0001 C.ar    1  LIG1       -0.0233
     24 C           8.5198   10.1303    0.0002 C.ar    1  LIG1        0.0926
     25 O           7.5505    9.1763    0.0004 O.2     1  LIG1       -0.4624
     26 H           9.5356    9.7687    0.0003 H       1  LIG1        0.1029
     27 H           5.7878   11.9464    0.0000 H       1  LIG1        0.0655
     28 H           8.4953   12.3160   -0.0001 H       1  LIG1        0.0649
@<TRIPOS>BOND
     1     2     1   ar
     2     2     5   ar
     3     7     1    1
     4     1     4   ar
     5     5     3   ar
     6    28    23    1
     7     4     6   ar
     8    11    13   ar
     9    11     8   ar
    10     3     6   ar
    11     3     8    1
    12    27    22    1
    13    13    10   ar
    14     8     9   ar
    15    18    14   ar
    16    18    17   ar
    17    23    22   ar
    18    23    24   ar
    19    22    21   ar
    20    10    14    1
    21    10    12   ar
    22     9    12   ar
    23    24    26    1
    24    24    25   ar
    25    14    15   ar
    26    21    17    1
    27    21    25   ar
    28    17    16   ar
    29    15    16   ar
    30    15    19    1
    31    16    20    1
