@<TRIPOS>MOLECULE
mol_data/opt/b3lyp/geoms/mol2/88-84-.out
 30 33 0 0 0
SMALL
GASTEIGER

@<TRIPOS>ATOM
      1 C          -0.0462   -0.0629    0.0004 C.ar    1  LIG1        0.1605
      2 N           1.2933   -0.0580    0.0007 N.ar    1  LIG1       -0.1338
      3 C           1.0968    2.2082    0.0002 C.ar    1  LIG1        0.2434
      4 N          -0.8404    1.0158    0.0001 N.ar    1  LIG1       -0.1338
      5 N           1.8888    1.1214    0.0006 N.ar    1  LIG1       -0.1224
      6 N          -0.2481    2.1967   -0.0000 N.ar    1  LIG1       -0.1224
      7 H          -0.5341   -1.0324    0.0005 H       1  LIG1        0.1085
      8 C           1.7674    3.5409    0.0001 C.ar    1  LIG1        0.2435
      9 N           0.9791    4.6301   -0.0002 N.ar    1  LIG1       -0.1217
     10 C           2.9165    5.8242   -0.0002 C.ar    1  LIG1        0.2435
     11 N           3.1119    3.5568    0.0002 N.ar    1  LIG1       -0.1217
     12 N           1.5699    5.8062   -0.0004 N.ar    1  LIG1       -0.1217
     13 N           3.7044    4.7320    0.0001 N.ar    1  LIG1       -0.1217
     14 C           3.5847    7.1520   -0.0004 C.ar    1  LIG1        0.2435
     15 N           4.9295    7.1701   -0.0004 N.ar    1  LIG1       -0.1218
     16 C           4.7414    9.4506   -0.0007 C.ar    1  LIG1        0.2034
     17 N           2.7978    8.2428   -0.0006 N.ar    1  LIG1       -0.1218
     18 N           5.5193    8.3425   -0.0006 N.ar    1  LIG1       -0.1251
     19 N           3.3880    9.4150   -0.0008 N.ar    1  LIG1       -0.1251
     20 C           4.6341   11.9416   -0.0013 C.ar    1  LIG1       -0.0509
     21 C           5.2640   13.1820   -0.0015 C.ar    1  LIG1       -0.0611
     22 C           5.4021   10.7637   -0.0010 C.ar    1  LIG1        0.0226
     23 C           6.6590   13.2615   -0.0014 C.ar    1  LIG1       -0.0617
     24 H           4.6669   14.0886   -0.0018 H       1  LIG1        0.0618
     25 C           6.8058   10.8487   -0.0009 C.ar    1  LIG1       -0.0509
     26 C           7.4265   12.0937   -0.0011 C.ar    1  LIG1       -0.0611
     27 H           7.3909    9.9367   -0.0006 H       1  LIG1        0.0625
     28 H           7.1474   14.2316   -0.0016 H       1  LIG1        0.0618
     29 H           3.5532   11.8676   -0.0014 H       1  LIG1        0.0625
     30 H           8.5108   12.1546   -0.0010 H       1  LIG1        0.0618
@<TRIPOS>BOND
     1    24    21    1
     2    28    23    1
     3    21    23   ar
     4    21    20   ar
     5    29    20    1
     6    23    26   ar
     7    20    22   ar
     8    26    30    1
     9    26    25   ar
    10    22    25   ar
    11    22    16    1
    12    25    27    1
    13    19    16   ar
    14    19    17   ar
    15    16    18   ar
    16    17    14   ar
    17    18    15   ar
    18    14    15   ar
    19    14    10    1
    20    12    10   ar
    21    12     9   ar
    22    10    13   ar
    23     9     8   ar
    24     6     4   ar
    25     6     3   ar
    26    13    11   ar
    27     8     3    1
    28     8    11   ar
    29     4     1   ar
    30     3     5   ar
    31     1     7    1
    32     1     2   ar
    33     5     2   ar
