@<TRIPOS>MOLECULE
mol_data/opt/b3lyp/geoms/mol2/88-8-.out
 20 22 0 0 0
SMALL
GASTEIGER

@<TRIPOS>ATOM
      1 C          -0.0116   -0.0232   -0.0000 C.ar    1  LIG1        0.1605
      2 N           1.3279   -0.0149    0.0001 N.ar    1  LIG1       -0.1338
      3 C           1.1251    2.2497   -0.0000 C.ar    1  LIG1        0.2434
      4 N          -0.8085    1.0536   -0.0002 N.ar    1  LIG1       -0.1338
      5 N           1.9205    1.1658    0.0001 N.ar    1  LIG1       -0.1224
      6 N          -0.2192    2.2359   -0.0001 N.ar    1  LIG1       -0.1224
      7 H          -0.4970   -0.9936   -0.0001 H       1  LIG1        0.1085
      8 C           1.7929    3.5847    0.0000 C.ar    1  LIG1        0.2435
      9 N           1.0017    4.6721    0.0000 N.ar    1  LIG1       -0.1217
     10 C           2.9351    5.8687    0.0000 C.ar    1  LIG1        0.2435
     11 N           3.1374    3.6039    0.0001 N.ar    1  LIG1       -0.1217
     12 N           1.5905    5.8496    0.0000 N.ar    1  LIG1       -0.1217
     13 N           3.7264    4.7814    0.0001 N.ar    1  LIG1       -0.1217
     14 C           3.6029    7.2037    0.0000 C.ar    1  LIG1        0.2434
     15 N           2.8076    8.2876    0.0001 N.ar    1  LIG1       -0.1224
     16 C           4.7396    9.4766    0.0002 C.ar    1  LIG1        0.1605
     17 N           4.9472    7.2176   -0.0001 N.ar    1  LIG1       -0.1224
     18 N           3.4000    9.4684    0.0001 N.ar    1  LIG1       -0.1338
     19 N           5.5366    8.3998   -0.0001 N.ar    1  LIG1       -0.1338
     20 H           5.2252   10.4475   -0.0002 H       1  LIG1        0.1085
@<TRIPOS>BOND
     1    20    16    1
     2     4     6   ar
     3     4     1   ar
     4     6     3   ar
     5     7     1    1
     6    19    17   ar
     7    19    16   ar
     8    17    14   ar
     9     1     2   ar
    10     3     8    1
    11     3     5   ar
    12     9    12   ar
    13     9     8   ar
    14    14    10    1
    15    14    15   ar
    16    12    10   ar
    17     8    11   ar
    18    10    13   ar
    19    11    13   ar
    20     2     5   ar
    21    18    15   ar
    22    18    16   ar
