@<TRIPOS>MOLECULE
mol_data/opt/b3lyp/geoms/mol2/88.out
 14 15 0 0 0
SMALL
GASTEIGER

@<TRIPOS>ATOM
      1 C          -0.0003   -0.0007    0.0000 C.ar    1  LIG1        0.1605
      2 N           1.3390    0.0078    0.0001 N.ar    1  LIG1       -0.1338
      3 C           1.1368    2.2731   -0.0000 C.ar    1  LIG1        0.2434
      4 N          -0.7970    1.0759   -0.0001 N.ar    1  LIG1       -0.1338
      5 N           1.9315    1.1888    0.0001 N.ar    1  LIG1       -0.1224
      6 N          -0.2074    2.2585   -0.0001 N.ar    1  LIG1       -0.1224
      7 H          -0.4857   -0.9713    0.0000 H       1  LIG1        0.1085
      8 C           1.8054    3.6101   -0.0000 C.ar    1  LIG1        0.2434
      9 N           3.1497    3.6247   -0.0001 N.ar    1  LIG1       -0.1224
     10 C           2.9426    5.8838   -0.0002 C.ar    1  LIG1        0.1605
     11 N           1.0108    4.6944   -0.0000 N.ar    1  LIG1       -0.1224
     12 N           3.7393    4.8072   -0.0001 N.ar    1  LIG1       -0.1338
     13 N           1.6032    5.8755   -0.0000 N.ar    1  LIG1       -0.1338
     14 H           3.4280    6.8545    0.0002 H       1  LIG1        0.1085
@<TRIPOS>BOND
     1    10    12   ar
     2    10    13   ar
     3    10    14    1
     4     6     4   ar
     5     6     3   ar
     6     4     1   ar
     7    12     9   ar
     8     9     8   ar
     9    13    11   ar
    10     8     3    1
    11     8    11   ar
    12     3     5   ar
    13     1     7    1
    14     1     2   ar
    15     5     2   ar
