@<TRIPOS>MOLECULE
mol_data/opt/b3lyp/geoms/mol2/8813-5-.out
 29 32 0 0 0
SMALL
GASTEIGER

@<TRIPOS>ATOM
      1 C           0.0037   -0.0680    0.0004 C.ar    1  LIG1        0.1605
      2 N           1.3426   -0.0367    0.0003 N.ar    1  LIG1       -0.1338
      3 C           1.1059    2.2290    0.0001 C.ar    1  LIG1        0.2434
      4 N          -0.8094    0.9960    0.0005 N.ar    1  LIG1       -0.1338
      5 N           1.9168    1.1524    0.0001 N.ar    1  LIG1       -0.1224
      6 N          -0.2413    2.1881    0.0003 N.ar    1  LIG1       -0.1224
      7 H          -0.4659   -1.0467    0.0006 H       1  LIG1        0.1085
      8 C           1.7490    3.5675   -0.0001 C.ar    1  LIG1        0.2435
      9 N           3.0945    3.6125   -0.0004 N.ar    1  LIG1       -0.1218
     10 C           2.8532    5.8869   -0.0005 C.ar    1  LIG1        0.2194
     11 N           0.9388    4.6487   -0.0000 N.ar    1  LIG1       -0.1218
     12 N           3.6617    4.7933   -0.0006 N.ar    1  LIG1       -0.1236
     13 N           1.4937    5.8326   -0.0002 N.ar    1  LIG1       -0.1236
     14 C           3.4873    7.1679   -0.0006 C.ar    1  LIG1        0.0880
     15 C           2.9632    8.4636   -0.0003 C.ar    1  LIG1       -0.0326
     16 C           4.0447    9.3520   -0.0007 C.ar    1  LIG1       -0.0352
     17 C           5.2296    8.5944   -0.0009 C.ar    1  LIG1        0.0536
     18 N           4.8627    7.2780   -0.0008 N.ar    1  LIG1       -0.3512
     19 H           5.4685    6.4688   -0.0007 H       1  LIG1        0.1660
     20 H           1.9107    8.7031   -0.0001 H       1  LIG1        0.0640
     21 H           3.9951   10.4309   -0.0009 H       1  LIG1        0.0639
     22 C           6.6037    9.0412   -0.0011 C.ar    1  LIG1        0.0355
     23 C           7.0670   10.3408   -0.0006 C.ar    1  LIG1       -0.0455
     24 C           8.4852   10.4352   -0.0011 C.ar    1  LIG1       -0.0541
     25 C           9.1023    9.2140   -0.0020 C.ar    1  LIG1       -0.0237
     26 S           7.9511    7.9170   -0.0022 S.2     1  LIG1       -0.0952
     27 H          10.1595    8.9907   -0.0025 H       1  LIG1        0.0693
     28 H           6.4069   11.2002    0.0001 H       1  LIG1        0.0629
     29 H           9.0267   11.3740   -0.0008 H       1  LIG1        0.0623
@<TRIPOS>BOND
     1    27    25    1
     2    26    25   ar
     3    26    22   ar
     4    25    24   ar
     5    22    17    1
     6    22    23   ar
     7    24    29    1
     8    24    23   ar
     9    21    16    1
    10    17    18   ar
    11    17    16   ar
    12    18    19    1
    13    18    14   ar
    14    16    15   ar
    15    23    28    1
    16    14    10    1
    17    14    15   ar
    18    12    10   ar
    19    12     9   ar
    20    10    13   ar
    21     9     8   ar
    22    15    20    1
    23    13    11   ar
    24     8    11   ar
    25     8     3    1
    26     5     3   ar
    27     5     2   ar
    28     3     6   ar
    29     6     4   ar
    30     2     1   ar
    31     1     4   ar
    32     1     7    1
