@<TRIPOS>MOLECULE
mol_data/noopt/geoms/mol2/11.out
 4 3 0 0 0
SMALL
GASTEIGER

@<TRIPOS>ATOM
      1 O           1.3990    2.6007   -0.0190 O.2     1  LIG1       -0.3047
      2 C           0.1406    2.6007   -0.0190 C.2     1  LIG1        0.1071
      3 H          -0.5071    3.7272    0.0203 H       1  LIG1        0.0988
      4 H          -0.5139    1.4781   -0.0583 H       1  LIG1        0.0988
@<TRIPOS>BOND
     1     4     2    1
     2     1     2    2
     3     2     3    1
