@<TRIPOS>MOLECULE
mol_data/noopt/geoms/mol2/111111-.out
 8 7 0 0 0
SMALL
GASTEIGER

@<TRIPOS>ATOM
      1 O           1.3990    2.6007   -0.0190 O.2     1  LIG1       -0.2922
      2 C           0.1406    2.6007   -0.0190 C.2     1  LIG1        0.1927
      3 H          -0.5071    3.7272    0.0203 H       1  LIG1        0.1117
      4 O           0.1126    0.3868   -0.0583 O.2     1  LIG1       -0.2811
      5 C          -0.5139    1.4781   -0.0583 C.2     1  LIG1        0.2566
      6 O          -2.4321    2.5819   -0.1358 O.2     1  LIG1       -0.2922
      7 C          -1.8133    1.4868   -0.0976 C.2     1  LIG1        0.1927
      8 H          -2.4690    0.3642   -0.0975 H       1  LIG1        0.1117
@<TRIPOS>BOND
     1     6     7    2
     2     7     8    1
     3     7     5    1
     4     4     5    2
     5     5     2    1
     6     1     2    2
     7     2     3    1
