@<TRIPOS>MOLECULE
mol_data/noopt/geoms/mol2/1111-1111.out
 10 9 0 0 0
SMALL
GASTEIGER

@<TRIPOS>ATOM
      1 O           1.3990    2.6007   -0.0190 O.2     1  LIG1       -0.2922
      2 C           0.1406    2.6007   -0.0190 C.2     1  LIG1        0.1935
      3 H          -0.5071    3.7272    0.0203 H       1  LIG1        0.1117
      4 O          -1.7717    1.4867   -0.0965 O.2     1  LIG1       -0.2803
      5 C          -0.5139    1.4781   -0.0583 C.2     1  LIG1        0.2673
      6 O           1.3915    0.3498   -0.0391 O.2     1  LIG1       -0.2803
      7 C           0.1332    0.3506   -0.0582 C.2     1  LIG1        0.2673
      8 O           0.1046   -1.8636   -0.0683 O.2     1  LIG1       -0.2922
      9 C          -0.5217   -0.7722   -0.0778 C.2     1  LIG1        0.1935
     10 H          -1.8214   -0.7637   -0.1073 H       1  LIG1        0.1117
@<TRIPOS>BOND
     1    10     9    1
     2     4     5    2
     3     9     8    2
     4     9     7    1
     5     5     7    1
     6     5     2    1
     7     7     6    2
     8     1     2    2
     9     2     3    1
