@<TRIPOS>MOLECULE
mol_data/noopt/geoms/mol2/1111-.out
 6 5 0 0 0
SMALL
GASTEIGER

@<TRIPOS>ATOM
      1 O           1.3990    2.6007   -0.0190 O.2     1  LIG1       -0.2930
      2 C           0.1406    2.6007   -0.0190 C.2     1  LIG1        0.1821
      3 H          -0.5071    3.7272    0.0203 H       1  LIG1        0.1109
      4 O          -1.7717    1.4867   -0.0965 O.2     1  LIG1       -0.2930
      5 C          -0.5139    1.4781   -0.0583 C.2     1  LIG1        0.1821
      6 H           0.1332    0.3506   -0.0582 H       1  LIG1        0.1109
@<TRIPOS>BOND
     1     4     5    2
     2     5     6    1
     3     5     2    1
     4     1     2    2
     5     2     3    1
