@<TRIPOS>MOLECULE
mol_data/noopt/geoms/mol2/1111-11-11-.out
 10 9 0 0 0
SMALL
GASTEIGER

@<TRIPOS>ATOM
      1 O           1.3990    2.6007   -0.0190 O.2     1  LIG1       -0.2922
      2 C           0.1406    2.6007   -0.0190 C.2     1  LIG1        0.1935
      3 H          -0.5071    3.7272    0.0203 H       1  LIG1        0.1117
      4 O          -1.7717    1.4867   -0.0965 O.2     1  LIG1       -0.2803
      5 C          -0.5139    1.4781   -0.0583 C.2     1  LIG1        0.2673
      6 O          -0.5009   -0.7362   -0.0773 O.2     1  LIG1       -0.2803
      7 C           0.1332    0.3506   -0.0582 C.2     1  LIG1        0.2673
      8 O           2.0595   -0.7417   -0.0481 O.2     1  LIG1       -0.2922
      9 C           1.4331    0.3497   -0.0384 C.2     1  LIG1        0.1935
     10 H           2.0814    1.4761   -0.0088 H       1  LIG1        0.1117
@<TRIPOS>BOND
     1     4     5    2
     2     6     7    2
     3     5     7    1
     4     5     2    1
     5     7     9    1
     6     8     9    2
     7     9    10    1
     8     1     2    2
     9     2     3    1
