@<TRIPOS>MOLECULE
mol_data/noopt/geoms/mol2/11111111.out
 10 9 0 0 0
SMALL
GASTEIGER

@<TRIPOS>ATOM
      1 O           1.3990    2.6007   -0.0190 O.2     1  LIG1       -0.2922
      2 C           0.1406    2.6007   -0.0190 C.2     1  LIG1        0.1935
      3 H          -0.5071    3.7272    0.0203 H       1  LIG1        0.1117
      4 O           0.1126    0.3868   -0.0583 O.2     1  LIG1       -0.2803
      5 C          -0.5139    1.4781   -0.0583 C.2     1  LIG1        0.2673
      6 O          -2.4478    0.4001   -0.0976 O.2     1  LIG1       -0.2803
      7 C          -1.8133    1.4868   -0.0976 C.2     1  LIG1        0.2673
      8 O          -3.7110    2.6273   -0.1369 O.2     1  LIG1       -0.2922
      9 C          -2.4527    2.6181   -0.1369 C.2     1  LIG1        0.1935
     10 H          -1.7899    3.7358   -0.1762 H       1  LIG1        0.1117
@<TRIPOS>BOND
     1    10     9    1
     2     9     8    2
     3     9     7    1
     4     7     6    2
     5     7     5    1
     6     4     5    2
     7     5     2    1
     8     1     2    2
     9     2     3    1
