@<TRIPOS>MOLECULE
mol_data/noopt/geoms/mol2/12128-5-.out
 29 32 0 0 0
SMALL
GASTEIGER

@<TRIPOS>ATOM
      1 C           0.1763    1.8460    0.0000 C.ar    1  LIG1        0.0927
      2 C           1.5558    1.8460    0.0000 C.ar    1  LIG1       -0.0232
      3 C           1.9706    3.2334    0.0000 C.ar    1  LIG1       -0.0128
      4 C           0.8165    3.9895   -0.0001 C.ar    1  LIG1        0.1697
      5 O          -0.3030    3.1567   -0.0002 O.2     1  LIG1       -0.4598
      6 H          -0.7504    0.9343    0.0000 H       1  LIG1        0.1029
      7 H           2.3515    0.8179    0.0001 H       1  LIG1        0.0649
      8 H           3.1998    3.6567    0.0000 H       1  LIG1        0.0656
      9 C           0.5416    5.2601   -0.0001 C.ar    1  LIG1        0.1707
     10 C           1.2792    6.4258   -0.0001 C.ar    1  LIG1       -0.0121
     11 C           0.3286    7.5182   -0.0001 C.ar    1  LIG1       -0.0119
     12 C          -0.9274    6.9472   -0.0002 C.ar    1  LIG1        0.1761
     13 O          -0.8223    5.5559   -0.0003 O.2     1  LIG1       -0.4485
     14 H           2.5734    6.5485   -0.0000 H       1  LIG1        0.0657
     15 H           0.6282    8.7832   -0.0001 H       1  LIG1        0.0657
     16 C          -2.1481    7.3943   -0.0002 C.ar    1  LIG1        0.2381
     17 N          -3.1385    6.4607   -0.0002 N.ar    1  LIG1       -0.1220
     18 C          -4.6793    8.3216   -0.0002 C.ar    1  LIG1        0.2099
     19 N          -2.3011    8.7469   -0.0002 N.ar    1  LIG1       -0.1220
     20 N          -4.3995    6.9412   -0.0002 N.ar    1  LIG1       -0.1246
     21 N          -3.5742    9.1945   -0.0001 N.ar    1  LIG1       -0.1246
     22 C          -5.9000    8.7687   -0.0002 C.ar    1  LIG1        0.0598
     23 C          -7.0390    7.9945   -0.0001 C.ar    1  LIG1       -0.0438
     24 C          -8.2225    8.8009    0.0006 C.ar    1  LIG1       -0.0540
     25 C          -7.9185   10.1442    0.0002 C.ar    1  LIG1       -0.0236
     26 S          -6.2661   10.4003   -0.0003 S.2     1  LIG1       -0.0934
     27 H          -8.7810   11.1169    0.0001 H       1  LIG1        0.0693
     28 H          -7.0651    6.6947   -0.0003 H       1  LIG1        0.0630
     29 H          -9.4226    8.3012    0.0016 H       1  LIG1        0.0623
@<TRIPOS>BOND
     1    28    23    1
     2    13    12   ar
     3    13     9   ar
     4    26    22   ar
     5    26    25   ar
     6    19    16   ar
     7    19    21   ar
     8     5     4   ar
     9     5     1   ar
    10    18    22    1
    11    18    20   ar
    12    18    21   ar
    13    22    23   ar
    14    17    16   ar
    15    17    20   ar
    16    16    12    1
    17    12    11   ar
    18    10    11   ar
    19    10     9   ar
    20    10    14    1
    21    15    11    1
    22     9     4    1
    23     4     3   ar
    24    23    24   ar
    25     1     6    1
    26     1     2   ar
    27     8     3    1
    28     3     2   ar
    29     2     7    1
    30    27    25    1
    31    25    24   ar
    32    24    29    1
