@<TRIPOS>MOLECULE
mol_data/noopt/geoms/mol2/1212-1212-.out
 30 33 0 0 0
SMALL
GASTEIGER

@<TRIPOS>ATOM
      1 C           0.1763    1.8460    0.0000 C.ar    1  LIG1        0.0927
      2 C           1.5558    1.8460    0.0000 C.ar    1  LIG1       -0.0232
      3 C           1.9706    3.2334    0.0000 C.ar    1  LIG1       -0.0128
      4 C           0.8165    3.9895   -0.0001 C.ar    1  LIG1        0.1697
      5 O          -0.3030    3.1567   -0.0002 O.2     1  LIG1       -0.4598
      6 H          -0.7504    0.9343    0.0000 H       1  LIG1        0.1029
      7 H           2.3515    0.8179    0.0001 H       1  LIG1        0.0649
      8 H           3.1998    3.6567    0.0000 H       1  LIG1        0.0656
      9 C           0.5416    5.2601   -0.0001 C.ar    1  LIG1        0.1707
     10 C          -0.6119    6.0167   -0.0001 C.ar    1  LIG1       -0.0121
     11 C          -0.1979    7.4043   -0.0001 C.ar    1  LIG1       -0.0121
     12 C           1.1818    7.4036   -0.0000 C.ar    1  LIG1        0.1707
     13 O           1.6612    6.0932    0.0001 O.2     1  LIG1       -0.4486
     14 H          -1.8411    5.5934   -0.0002 H       1  LIG1        0.0657
     15 H          -0.9936    8.4323   -0.0001 H       1  LIG1        0.0657
     16 C           2.1085    8.3153   -0.0000 C.ar    1  LIG1        0.1707
     17 C           3.4880    8.3153   -0.0001 C.ar    1  LIG1       -0.0121
     18 C           3.9028    9.7027   -0.0001 C.ar    1  LIG1       -0.0121
     19 C           2.7487   10.4588   -0.0002 C.ar    1  LIG1        0.1707
     20 O           1.6292    9.6260   -0.0003 O.2     1  LIG1       -0.4486
     21 H           4.2837    7.2872    0.0000 H       1  LIG1        0.0657
     22 H           5.1320   10.1260   -0.0001 H       1  LIG1        0.0657
     23 C           2.4738   11.7294   -0.0002 C.ar    1  LIG1        0.1697
     24 C           1.3203   12.4859   -0.0002 C.ar    1  LIG1       -0.0128
     25 C           1.7343   13.8736   -0.0002 C.ar    1  LIG1       -0.0232
     26 C           3.1141   13.8729   -0.0001 C.ar    1  LIG1        0.0927
     27 O           3.5935   12.5625   -0.0000 O.2     1  LIG1       -0.4598
     28 H           4.0408   14.7846   -0.0002 H       1  LIG1        0.1029
     29 H           0.0911   12.0626   -0.0003 H       1  LIG1        0.0656
     30 H           0.9387   14.9016   -0.0002 H       1  LIG1        0.0649
@<TRIPOS>BOND
     1    20    19   ar
     2    20    16   ar
     3    29    24    1
     4    30    25    1
     5    25    24   ar
     6    25    26   ar
     7     5     4   ar
     8     5     1   ar
     9    23    24   ar
    10    23    19    1
    11    23    27   ar
    12    19    18   ar
    13    28    26    1
    14    14    10    1
    15    26    27   ar
    16    22    18    1
    17     4     9    1
    18     4     3   ar
    19     9    10   ar
    20     9    13   ar
    21    11    15    1
    22    11    10   ar
    23    11    12   ar
    24    18    17   ar
    25    17    16   ar
    26    17    21    1
    27    16    12    1
    28    12    13   ar
    29     1     6    1
    30     1     2   ar
    31     8     3    1
    32     3     2   ar
    33     2     7    1
