@<TRIPOS>MOLECULE
mol_data/noopt/geoms/mol2/1212-13-8.out
 30 33 0 0 0
SMALL
GASTEIGER

@<TRIPOS>ATOM
      1 C           0.1763    1.8460    0.0000 C.ar    1  LIG1        0.0927
      2 C           1.5558    1.8460    0.0000 C.ar    1  LIG1       -0.0232
      3 C           1.9706    3.2334    0.0000 C.ar    1  LIG1       -0.0128
      4 C           0.8165    3.9895   -0.0001 C.ar    1  LIG1        0.1697
      5 O          -0.3030    3.1567   -0.0002 O.2     1  LIG1       -0.4598
      6 H          -0.7504    0.9343    0.0000 H       1  LIG1        0.1029
      7 H           2.3515    0.8179    0.0001 H       1  LIG1        0.0649
      8 H           3.1998    3.6567    0.0000 H       1  LIG1        0.0656
      9 C           0.5416    5.2601   -0.0001 C.ar    1  LIG1        0.1706
     10 C          -0.6119    6.0167   -0.0001 C.ar    1  LIG1       -0.0121
     11 C          -0.1979    7.4043   -0.0001 C.ar    1  LIG1       -0.0137
     12 C           1.1818    7.4036   -0.0000 C.ar    1  LIG1        0.1519
     13 O           1.6612    6.0932    0.0001 O.2     1  LIG1       -0.4503
     14 H          -1.8411    5.5934   -0.0002 H       1  LIG1        0.0657
     15 H          -0.9936    8.4323   -0.0001 H       1  LIG1        0.0656
     16 C           2.1085    8.3153   -0.0000 C.ar    1  LIG1        0.0826
     17 C           2.0118    9.6712    0.0004 C.ar    1  LIG1       -0.0327
     18 C           3.3445   10.1951   -0.0010 C.ar    1  LIG1       -0.0325
     19 C           4.1971    9.1363   -0.0005 C.ar    1  LIG1        0.0880
     20 N           3.4446    7.9835   -0.0004 N.ar    1  LIG1       -0.3492
     21 H           3.8082    7.0584    0.0000 H       1  LIG1        0.1661
     22 H           0.9103   10.3617    0.0005 H       1  LIG1        0.0640
     23 H           3.6810   11.4508   -0.0020 H       1  LIG1        0.0640
     24 C           5.4966    9.0996   -0.0012 C.ar    1  LIG1        0.2193
     25 N           6.0708    7.8656   -0.0015 N.ar    1  LIG1       -0.1243
     26 C           8.1912    9.0237   -0.0026 C.ar    1  LIG1        0.1605
     27 N           6.1395   10.2994   -0.0015 N.ar    1  LIG1       -0.1243
     28 N           7.4202    7.8451   -0.0022 N.ar    1  LIG1       -0.1338
     29 N           7.4878   10.2438   -0.0023 N.ar    1  LIG1       -0.1338
     30 H           9.4907    8.9871   -0.0033 H       1  LIG1        0.1085
@<TRIPOS>BOND
     1    30    26    1
     2    26    29   ar
     3    26    28   ar
     4    29    27   ar
     5    28    25   ar
     6    23    18    1
     7    27    24   ar
     8    25    24   ar
     9    24    19    1
    10    18    19   ar
    11    18    17   ar
    12    19    20   ar
    13    20    16   ar
    14    20    21    1
    15     5     4   ar
    16     5     1   ar
    17    14    10    1
    18     9     4    1
    19     9    10   ar
    20     9    13   ar
    21     4     3   ar
    22    11    15    1
    23    11    10   ar
    24    11    12   ar
    25    16    12    1
    26    16    17   ar
    27    12    13   ar
    28     1     6    1
    29     1     2   ar
    30     8     3    1
    31     3     2   ar
    32     2     7    1
    33    17    22    1
