@<TRIPOS>MOLECULE
mol_data/noopt/geoms/mol2/12124-4.out
 36 39 0 0 0
SMALL
GASTEIGER

@<TRIPOS>ATOM
      1 C           0.1763    1.8460    0.0000 C.ar    1  LIG1        0.0927
      2 C           1.5558    1.8460    0.0000 C.ar    1  LIG1       -0.0232
      3 C           1.9706    3.2334    0.0000 C.ar    1  LIG1       -0.0128
      4 C           0.8165    3.9895   -0.0001 C.ar    1  LIG1        0.1697
      5 O          -0.3030    3.1567   -0.0002 O.2     1  LIG1       -0.4598
      6 H          -0.7504    0.9343    0.0000 H       1  LIG1        0.1029
      7 H           2.3515    0.8179    0.0001 H       1  LIG1        0.0649
      8 H           3.1998    3.6567    0.0000 H       1  LIG1        0.0656
      9 C           0.5416    5.2601   -0.0001 C.ar    1  LIG1        0.1705
     10 C           1.2792    6.4258   -0.0001 C.ar    1  LIG1       -0.0122
     11 C           0.3286    7.5182   -0.0001 C.ar    1  LIG1       -0.0151
     12 C          -0.9274    6.9472   -0.0002 C.ar    1  LIG1        0.1358
     13 O          -0.8223    5.5559   -0.0003 O.2     1  LIG1       -0.4517
     14 H           2.5734    6.5485   -0.0000 H       1  LIG1        0.0657
     15 H           0.6282    8.7832   -0.0001 H       1  LIG1        0.0656
     16 C          -3.2281    6.4881   -0.0009 C.ar    1  LIG1       -0.0505
     17 C          -4.5311    7.0224   -0.0025 C.ar    1  LIG1       -0.0534
     18 C          -2.1480    7.3943   -0.0002 C.ar    1  LIG1        0.0173
     19 C          -4.7513    8.3980   -0.0026 C.ar    1  LIG1       -0.0178
     20 H          -5.3788    6.3409   -0.0033 H       1  LIG1        0.0624
     21 C          -2.3674    8.7676   -0.0003 C.ar    1  LIG1       -0.0505
     22 C          -3.6693    9.2791   -0.0014 C.ar    1  LIG1       -0.0534
     23 H          -1.5180    9.4460    0.0002 H       1  LIG1        0.0625
     24 H          -3.0860    5.1958   -0.0006 H       1  LIG1        0.0625
     25 H          -3.8682   10.5638   -0.0017 H       1  LIG1        0.0624
     26 C          -6.1932   10.2486   -0.0039 C.ar    1  LIG1       -0.0540
     27 C          -7.5288   10.6952   -0.0037 C.ar    1  LIG1       -0.0612
     28 C          -5.9676    8.8569   -0.0039 C.ar    1  LIG1       -0.0179
     29 C          -8.5942    9.7976   -0.0043 C.ar    1  LIG1       -0.0617
     30 H          -7.7255   11.7650   -0.0035 H       1  LIG1        0.0618
     31 C          -7.0308    7.9604   -0.0045 C.ar    1  LIG1       -0.0540
     32 C          -8.3506    8.4236   -0.0047 C.ar    1  LIG1       -0.0612
     33 H          -6.8308    6.8919   -0.0044 H       1  LIG1        0.0624
     34 H          -9.8149   10.2447   -0.0043 H       1  LIG1        0.0618
     35 H          -5.2415   11.1341   -0.0036 H       1  LIG1        0.0624
     36 H          -9.3404    7.5809   -0.0051 H       1  LIG1        0.0618
@<TRIPOS>BOND
     1    36    32    1
     2    32    31   ar
     3    32    29   ar
     4    31    33    1
     5    31    28   ar
     6    34    29    1
     7    29    27   ar
     8    28    26   ar
     9    28    19    1
    10    26    27   ar
    11    26    35    1
    12    27    30    1
    13    20    17    1
    14    19    17   ar
    15    19    22   ar
    16    17    16   ar
    17    25    22    1
    18    22    21   ar
    19    16    24    1
    20    16    18   ar
    21    21    18   ar
    22    21    23    1
    23    13    12   ar
    24    13     9   ar
    25    18    12    1
    26     5     4   ar
    27     5     1   ar
    28    12    11   ar
    29    15    11    1
    30     4     9    1
    31     4     3   ar
    32    11    10   ar
    33    10     9   ar
    34    10    14    1
    35     3     2   ar
    36     3     8    1
    37     2     1   ar
    38     2     7    1
    39     6     1    1
