@<TRIPOS>MOLECULE
mol_data/noopt/geoms/mol2/12125-12.out
 30 33 0 0 0
SMALL
GASTEIGER

@<TRIPOS>ATOM
      1 C           0.1763    1.8460    0.0000 C.ar    1  LIG1        0.0927
      2 C           1.5558    1.8460    0.0000 C.ar    1  LIG1       -0.0232
      3 C           1.9706    3.2334    0.0000 C.ar    1  LIG1       -0.0128
      4 C           0.8165    3.9895   -0.0001 C.ar    1  LIG1        0.1697
      5 O          -0.3030    3.1567   -0.0002 O.2     1  LIG1       -0.4598
      6 H          -0.7504    0.9343    0.0000 H       1  LIG1        0.1029
      7 H           2.3515    0.8179    0.0001 H       1  LIG1        0.0649
      8 H           3.1998    3.6567    0.0000 H       1  LIG1        0.0656
      9 C           0.5416    5.2601   -0.0001 C.ar    1  LIG1        0.1706
     10 C           1.2792    6.4258   -0.0001 C.ar    1  LIG1       -0.0121
     11 C           0.3286    7.5182   -0.0001 C.ar    1  LIG1       -0.0146
     12 C          -0.9274    6.9472   -0.0002 C.ar    1  LIG1        0.1424
     13 O          -0.8223    5.5559   -0.0003 O.2     1  LIG1       -0.4512
     14 H           2.5734    6.5485   -0.0000 H       1  LIG1        0.0657
     15 H           0.6282    8.7832   -0.0001 H       1  LIG1        0.0656
     16 C          -2.1481    7.3943   -0.0002 C.ar    1  LIG1        0.0551
     17 C          -3.2871    6.6201   -0.0001 C.ar    1  LIG1       -0.0433
     18 C          -4.4706    7.4266    0.0006 C.ar    1  LIG1       -0.0433
     19 C          -4.1666    8.7698    0.0002 C.ar    1  LIG1        0.0551
     20 S          -2.5142    9.0260   -0.0003 S.2     1  LIG1       -0.0821
     21 H          -3.3132    5.3204   -0.0003 H       1  LIG1        0.0630
     22 H          -5.6707    6.9269    0.0016 H       1  LIG1        0.0630
     23 C          -5.0291    9.7425    0.0001 C.ar    1  LIG1        0.1413
     24 C          -4.9576   11.1202   -0.0000 C.ar    1  LIG1       -0.0154
     25 C          -6.3217   11.6063   -0.0002 C.ar    1  LIG1       -0.0233
     26 C          -7.1366   10.4929   -0.0002 C.ar    1  LIG1        0.0926
     27 O          -6.3628    9.3317   -0.0002 O.2     1  LIG1       -0.4624
     28 H          -8.4197   10.2841   -0.0003 H       1  LIG1        0.1029
     29 H          -3.8898   11.8615    0.0001 H       1  LIG1        0.0655
     30 H          -6.6808   12.8557   -0.0003 H       1  LIG1        0.0649
@<TRIPOS>BOND
     1    21    17    1
     2    13    12   ar
     3    13     9   ar
     4    28    26    1
     5    30    25    1
     6    20    16   ar
     7    20    19   ar
     8    26    27   ar
     9    26    25   ar
    10    16    12    1
    11    16    17   ar
    12    12    11   ar
    13     5     4   ar
    14     5     1   ar
    15    27    23   ar
    16    25    24   ar
    17    10    11   ar
    18    10     9   ar
    19    10    14    1
    20    11    15    1
    21     9     4    1
    22     4     3   ar
    23    17    18   ar
    24    24    23   ar
    25    24    29    1
    26     2     3   ar
    27     2     1   ar
    28     2     7    1
    29     3     8    1
    30     6     1    1
    31    23    19    1
    32    19    18   ar
    33    18    22    1
