@<TRIPOS>MOLECULE
mol_data/noopt/geoms/mol2/1212-4.out
 26 28 0 0 0
SMALL
GASTEIGER

@<TRIPOS>ATOM
      1 C           0.1763    1.8460    0.0000 C.ar    1  LIG1        0.0927
      2 C           1.5558    1.8460    0.0000 C.ar    1  LIG1       -0.0232
      3 C           1.9706    3.2334    0.0000 C.ar    1  LIG1       -0.0128
      4 C           0.8165    3.9895   -0.0001 C.ar    1  LIG1        0.1697
      5 O          -0.3030    3.1567   -0.0002 O.2     1  LIG1       -0.4598
      6 H          -0.7504    0.9343    0.0000 H       1  LIG1        0.1029
      7 H           2.3515    0.8179    0.0001 H       1  LIG1        0.0649
      8 H           3.1998    3.6567    0.0000 H       1  LIG1        0.0656
      9 C           0.5416    5.2601   -0.0001 C.ar    1  LIG1        0.1705
     10 C          -0.6119    6.0167   -0.0001 C.ar    1  LIG1       -0.0122
     11 C          -0.1979    7.4043   -0.0001 C.ar    1  LIG1       -0.0151
     12 C           1.1818    7.4036   -0.0000 C.ar    1  LIG1        0.1358
     13 O           1.6612    6.0932    0.0001 O.2     1  LIG1       -0.4517
     14 H          -1.8411    5.5934   -0.0002 H       1  LIG1        0.0657
     15 H          -0.9936    8.4323   -0.0001 H       1  LIG1        0.0656
     16 C           3.4666    7.9365    0.0007 C.ar    1  LIG1       -0.0511
     17 C           4.4321    8.9616    0.0022 C.ar    1  LIG1       -0.0611
     18 C           2.1085    8.3153   -0.0000 C.ar    1  LIG1        0.0173
     19 C           4.0641   10.3052    0.0023 C.ar    1  LIG1       -0.0617
     20 H           5.4858    8.6915    0.0030 H       1  LIG1        0.0618
     21 C           1.7405    9.6564    0.0001 C.ar    1  LIG1       -0.0511
     22 C           2.7146   10.6603    0.0012 C.ar    1  LIG1       -0.0611
     23 H           0.6867    9.9230   -0.0004 H       1  LIG1        0.0625
     24 H           4.9819   11.2259    0.0036 H       1  LIG1        0.0618
     25 H           3.8714    6.7011    0.0004 H       1  LIG1        0.0625
     26 H           2.3647   11.9123    0.0014 H       1  LIG1        0.0618
@<TRIPOS>BOND
     1    23    21    1
     2     5     4   ar
     3     5     1   ar
     4    14    10    1
     5     4     9    1
     6     4     3   ar
     7     9    10   ar
     8     9    13   ar
     9    11    15    1
    10    11    10   ar
    11    11    12   ar
    12    18    12    1
    13    18    21   ar
    14    18    16   ar
    15    12    13   ar
    16     1     6    1
    17     1     2   ar
    18     8     3    1
    19     3     2   ar
    20     2     7    1
    21    21    22   ar
    22    25    16    1
    23    16    17   ar
    24    22    26    1
    25    22    19   ar
    26    17    19   ar
    27    17    20    1
    28    19    24    1
