@<TRIPOS>MOLECULE
mol_data/noopt/geoms/mol2/12128-13-.out
 30 33 0 0 0
SMALL
GASTEIGER

@<TRIPOS>ATOM
      1 C           0.1763    1.8460    0.0000 C.ar    1  LIG1        0.0927
      2 C           1.5558    1.8460    0.0000 C.ar    1  LIG1       -0.0232
      3 C           1.9706    3.2334    0.0000 C.ar    1  LIG1       -0.0128
      4 C           0.8165    3.9895   -0.0001 C.ar    1  LIG1        0.1697
      5 O          -0.3030    3.1567   -0.0002 O.2     1  LIG1       -0.4598
      6 H          -0.7504    0.9343    0.0000 H       1  LIG1        0.1029
      7 H           2.3515    0.8179    0.0001 H       1  LIG1        0.0649
      8 H           3.1998    3.6567    0.0000 H       1  LIG1        0.0656
      9 C           0.5416    5.2601   -0.0001 C.ar    1  LIG1        0.1707
     10 C           1.2792    6.4258   -0.0001 C.ar    1  LIG1       -0.0121
     11 C           0.3286    7.5182   -0.0001 C.ar    1  LIG1       -0.0119
     12 C          -0.9274    6.9472   -0.0002 C.ar    1  LIG1        0.1761
     13 O          -0.8223    5.5559   -0.0003 O.2     1  LIG1       -0.4485
     14 H           2.5734    6.5485   -0.0000 H       1  LIG1        0.0657
     15 H           0.6282    8.7832   -0.0001 H       1  LIG1        0.0657
     16 C          -2.1481    7.3943   -0.0002 C.ar    1  LIG1        0.2381
     17 N          -3.1385    6.4607   -0.0002 N.ar    1  LIG1       -0.1220
     18 C          -4.6793    8.3216   -0.0002 C.ar    1  LIG1        0.2194
     19 N          -2.3011    8.7469   -0.0002 N.ar    1  LIG1       -0.1220
     20 N          -4.3995    6.9412   -0.0002 N.ar    1  LIG1       -0.1236
     21 N          -3.5742    9.1945   -0.0001 N.ar    1  LIG1       -0.1236
     22 C          -5.9000    8.7687   -0.0002 C.ar    1  LIG1        0.0875
     23 C          -7.0839    8.1006    0.0003 C.ar    1  LIG1       -0.0333
     24 C          -8.1280    9.0807   -0.0011 C.ar    1  LIG1       -0.0437
     25 C          -7.5362   10.3046   -0.0006 C.ar    1  LIG1        0.0023
     26 N          -6.1722   10.1181   -0.0005 N.ar    1  LIG1       -0.3582
     27 H          -5.4919   10.8429   -0.0001 H       1  LIG1        0.1654
     28 H          -8.0594   11.4946   -0.0013 H       1  LIG1        0.0807
     29 H          -7.2363    6.8096    0.0004 H       1  LIG1        0.0640
     30 H          -9.4068    8.8472   -0.0021 H       1  LIG1        0.0633
@<TRIPOS>BOND
     1    30    24    1
     2    28    25    1
     3    24    25   ar
     4    24    23   ar
     5    25    26   ar
     6    26    22   ar
     7    26    27    1
     8    13    12   ar
     9    13     9   ar
    10    16    19   ar
    11    16    17   ar
    12    16    12    1
    13    22    18    1
    14    22    23   ar
    15    20    18   ar
    16    20    17   ar
    17    19    21   ar
    18    18    21   ar
    19    12    11   ar
    20     5     4   ar
    21     5     1   ar
    22    15    11    1
    23    11    10   ar
    24    10     9   ar
    25    10    14    1
    26     9     4    1
    27     4     3   ar
    28     2     3   ar
    29     2     1   ar
    30     2     7    1
    31     3     8    1
    32     6     1    1
    33    23    29    1
