@<TRIPOS>MOLECULE
mol_data/noopt/geoms/mol2/1212.out
 16 17 0 0 0
SMALL
GASTEIGER

@<TRIPOS>ATOM
      1 C           0.1763    1.8460    0.0000 C.ar    1  LIG1        0.0927
      2 C           1.5558    1.8460    0.0000 C.ar    1  LIG1       -0.0232
      3 C           1.9706    3.2334    0.0000 C.ar    1  LIG1       -0.0128
      4 C           0.8165    3.9895   -0.0001 C.ar    1  LIG1        0.1696
      5 O          -0.3030    3.1567   -0.0002 O.2     1  LIG1       -0.4598
      6 H          -0.7504    0.9343    0.0000 H       1  LIG1        0.1029
      7 H           2.3515    0.8179    0.0001 H       1  LIG1        0.0649
      8 H           3.1998    3.6567    0.0000 H       1  LIG1        0.0656
      9 C           0.5416    5.2601   -0.0001 C.ar    1  LIG1        0.1696
     10 C           1.2792    6.4258   -0.0001 C.ar    1  LIG1       -0.0128
     11 C           0.3286    7.5182   -0.0001 C.ar    1  LIG1       -0.0232
     12 C          -0.9274    6.9472   -0.0002 C.ar    1  LIG1        0.0927
     13 O          -0.8223    5.5559   -0.0003 O.2     1  LIG1       -0.4598
     14 H          -2.1481    7.3943   -0.0002 H       1  LIG1        0.1029
     15 H           2.5734    6.5485   -0.0000 H       1  LIG1        0.0656
     16 H           0.6282    8.7832   -0.0001 H       1  LIG1        0.0649
@<TRIPOS>BOND
     1    13    12   ar
     2    13     9   ar
     3     5     4   ar
     4     5     1   ar
     5    12    14    1
     6    12    11   ar
     7     4     9    1
     8     4     3   ar
     9     9    10   ar
    10    10    11   ar
    11    10    15    1
    12    11    16    1
    13     1     2   ar
    14     1     6    1
    15     2     3   ar
    16     2     7    1
    17     3     8    1
