@<TRIPOS>MOLECULE
mol_data/noopt/geoms/mol2/1212-55-.out
 30 33 0 0 0
SMALL
GASTEIGER

@<TRIPOS>ATOM
      1 C           0.1763    1.8460    0.0000 C.ar    1  LIG1        0.0927
      2 C           1.5558    1.8460    0.0000 C.ar    1  LIG1       -0.0232
      3 C           1.9706    3.2334    0.0000 C.ar    1  LIG1       -0.0128
      4 C           0.8165    3.9895   -0.0001 C.ar    1  LIG1        0.1697
      5 O          -0.3030    3.1567   -0.0002 O.2     1  LIG1       -0.4598
      6 H          -0.7504    0.9343    0.0000 H       1  LIG1        0.1029
      7 H           2.3515    0.8179    0.0001 H       1  LIG1        0.0649
      8 H           3.1998    3.6567    0.0000 H       1  LIG1        0.0656
      9 C           0.5416    5.2601   -0.0001 C.ar    1  LIG1        0.1706
     10 C          -0.6119    6.0167   -0.0001 C.ar    1  LIG1       -0.0121
     11 C          -0.1979    7.4043   -0.0001 C.ar    1  LIG1       -0.0146
     12 C           1.1818    7.4036   -0.0000 C.ar    1  LIG1        0.1424
     13 O           1.6612    6.0932    0.0001 O.2     1  LIG1       -0.4512
     14 H          -1.8411    5.5934   -0.0002 H       1  LIG1        0.0657
     15 H          -0.9936    8.4323   -0.0001 H       1  LIG1        0.0656
     16 C           2.1085    8.3153   -0.0000 C.ar    1  LIG1        0.0550
     17 C           3.4657    8.0811   -0.0004 C.ar    1  LIG1       -0.0434
     18 C           4.2100    9.3047   -0.0011 C.ar    1  LIG1       -0.0457
     19 C           3.3779   10.4021   -0.0004 C.ar    1  LIG1        0.0266
     20 S           1.7674    9.9523    0.0003 S.2     1  LIG1       -0.0847
     21 H           4.0268    6.9084   -0.0004 H       1  LIG1        0.0630
     22 H           5.5093    9.3458   -0.0023 H       1  LIG1        0.0629
     23 C           3.7612   11.6444   -0.0001 C.ar    1  LIG1        0.0259
     24 C           2.9291   12.7417    0.0002 C.ar    1  LIG1       -0.0464
     25 C           3.6732   13.9654    0.0011 C.ar    1  LIG1       -0.0541
     26 C           5.0304   13.7314    0.0007 C.ar    1  LIG1       -0.0237
     27 S           5.3717   12.0944   -0.0000 S.2     1  LIG1       -0.0961
     28 H           5.9571   14.6431    0.0008 H       1  LIG1        0.0693
     29 H           1.6297   12.7005   -0.0002 H       1  LIG1        0.0629
     30 H           3.1120   15.1380    0.0023 H       1  LIG1        0.0623
@<TRIPOS>BOND
     1    22    18    1
     2    18    17   ar
     3    18    19   ar
     4    17    21    1
     5    17    16   ar
     6    19    23    1
     7    19    20   ar
     8     5     4   ar
     9     5     1   ar
    10    29    24    1
    11    14    10    1
    12    23    27   ar
    13    23    24   ar
    14     4     9    1
    15     4     3   ar
    16     9    10   ar
    17     9    13   ar
    18    11    15    1
    19    11    10   ar
    20    11    12   ar
    21    16    12    1
    22    16    20   ar
    23    27    26   ar
    24    12    13   ar
    25     1     6    1
    26     1     2   ar
    27     8     3    1
    28     3     2   ar
    29     2     7    1
    30    24    25   ar
    31    26    28    1
    32    26    25   ar
    33    25    30    1
