@<TRIPOS>MOLECULE
mol_data/noopt/geoms/mol2/121213-.out
 24 26 0 0 0
SMALL
GASTEIGER

@<TRIPOS>ATOM
      1 C           0.1763    1.8460    0.0000 C.ar    1  LIG1        0.0927
      2 C           1.5558    1.8460    0.0000 C.ar    1  LIG1       -0.0232
      3 C           1.9706    3.2334    0.0000 C.ar    1  LIG1       -0.0128
      4 C           0.8165    3.9895   -0.0001 C.ar    1  LIG1        0.1697
      5 O          -0.3030    3.1567   -0.0002 O.2     1  LIG1       -0.4598
      6 H          -0.7504    0.9343    0.0000 H       1  LIG1        0.1029
      7 H           2.3515    0.8179    0.0001 H       1  LIG1        0.0649
      8 H           3.1998    3.6567    0.0000 H       1  LIG1        0.0656
      9 C           0.5416    5.2601   -0.0001 C.ar    1  LIG1        0.1706
     10 C           1.2792    6.4258   -0.0001 C.ar    1  LIG1       -0.0121
     11 C           0.3286    7.5182   -0.0001 C.ar    1  LIG1       -0.0137
     12 C          -0.9274    6.9472   -0.0002 C.ar    1  LIG1        0.1519
     13 O          -0.8223    5.5559   -0.0003 O.2     1  LIG1       -0.4503
     14 H           2.5734    6.5485   -0.0000 H       1  LIG1        0.0657
     15 H           0.6282    8.7832   -0.0001 H       1  LIG1        0.0656
     16 C          -2.1481    7.3944   -0.0002 C.ar    1  LIG1        0.0821
     17 C          -3.3320    6.7263    0.0003 C.ar    1  LIG1       -0.0334
     18 C          -4.3761    7.7064   -0.0011 C.ar    1  LIG1       -0.0437
     19 C          -3.7843    8.9302   -0.0006 C.ar    1  LIG1        0.0023
     20 N          -2.4203    8.7438   -0.0005 N.ar    1  LIG1       -0.3583
     21 H          -1.7400    9.4685   -0.0001 H       1  LIG1        0.1654
     22 H          -4.3075   10.1203   -0.0013 H       1  LIG1        0.0807
     23 H          -3.4844    5.4353    0.0004 H       1  LIG1        0.0640
     24 H          -5.6549    7.4729   -0.0021 H       1  LIG1        0.0633
@<TRIPOS>BOND
     1    24    18    1
     2    22    19    1
     3    18    19   ar
     4    18    17   ar
     5    19    20   ar
     6    20    16   ar
     7    20    21    1
     8    13    12   ar
     9    13     9   ar
    10    12    16    1
    11    12    11   ar
    12    16    17   ar
    13     5     4   ar
    14     5     1   ar
    15     9    10   ar
    16     9     4    1
    17    10    11   ar
    18    10    14    1
    19    11    15    1
    20     4     3   ar
    21     2     3   ar
    22     2     1   ar
    23     2     7    1
    24     3     8    1
    25     6     1    1
    26    17    23    1
