@<TRIPOS>MOLECULE
mol_data/noopt/geoms/mol2/1212-4-13.out
 34 37 0 0 0
SMALL
GASTEIGER

@<TRIPOS>ATOM
      1 C           0.1763    1.8460    0.0000 C.ar    1  LIG1        0.0927
      2 C           1.5558    1.8460    0.0000 C.ar    1  LIG1       -0.0232
      3 C           1.9706    3.2334    0.0000 C.ar    1  LIG1       -0.0128
      4 C           0.8165    3.9895   -0.0001 C.ar    1  LIG1        0.1697
      5 O          -0.3030    3.1567   -0.0002 O.2     1  LIG1       -0.4598
      6 H          -0.7504    0.9343    0.0000 H       1  LIG1        0.1029
      7 H           2.3515    0.8179    0.0001 H       1  LIG1        0.0649
      8 H           3.1998    3.6567    0.0000 H       1  LIG1        0.0656
      9 C           0.5416    5.2601   -0.0001 C.ar    1  LIG1        0.1705
     10 C          -0.6119    6.0167   -0.0001 C.ar    1  LIG1       -0.0122
     11 C          -0.1979    7.4043   -0.0001 C.ar    1  LIG1       -0.0151
     12 C           1.1818    7.4036   -0.0000 C.ar    1  LIG1        0.1358
     13 O           1.6612    6.0932    0.0001 O.2     1  LIG1       -0.4517
     14 H          -1.8411    5.5934   -0.0002 H       1  LIG1        0.0657
     15 H          -0.9936    8.4323   -0.0001 H       1  LIG1        0.0656
     16 C           1.7519    9.6793   -0.0008 C.ar    1  LIG1       -0.0505
     17 C           2.7927   10.6280   -0.0023 C.ar    1  LIG1       -0.0520
     18 C           2.1085    8.3153   -0.0000 C.ar    1  LIG1        0.0173
     19 C           4.1301   10.2381   -0.0025 C.ar    1  LIG1       -0.0017
     20 H           2.5399   11.6860   -0.0032 H       1  LIG1        0.0624
     21 C           3.4435    7.9254   -0.0002 C.ar    1  LIG1       -0.0505
     22 C           4.4631    8.8830   -0.0013 C.ar    1  LIG1       -0.0520
     23 H           3.6928    6.8674    0.0003 H       1  LIG1        0.0625
     24 H           0.5233   10.1042   -0.0005 H       1  LIG1        0.0625
     25 H           5.7092    8.5127   -0.0016 H       1  LIG1        0.0624
     26 C           5.0656   11.1408   -0.0038 C.ar    1  LIG1        0.0465
     27 C           6.4186   11.0088   -0.0051 C.ar    1  LIG1       -0.0364
     28 C           6.9770   12.3274   -0.0051 C.ar    1  LIG1       -0.0438
     29 C           5.9407   13.2073   -0.0056 C.ar    1  LIG1        0.0022
     30 N           4.7687   12.4850   -0.0044 N.ar    1  LIG1       -0.3607
     31 H           3.8533   12.8726   -0.0045 H       1  LIG1        0.1653
     32 H           5.9378   14.5073   -0.0060 H       1  LIG1        0.0807
     33 H           7.0801    9.8897   -0.0047 H       1  LIG1        0.0639
     34 H           8.2410   12.6311   -0.0051 H       1  LIG1        0.0633
@<TRIPOS>BOND
     1    32    29    1
     2    29    28   ar
     3    29    30   ar
     4    34    28    1
     5    28    27   ar
     6    27    33    1
     7    27    26   ar
     8    31    30    1
     9    30    26   ar
    10    26    19    1
    11    20    17    1
    12    19    17   ar
    13    19    22   ar
    14    17    16   ar
    15    25    22    1
    16    22    21   ar
    17    16    24    1
    18    16    18   ar
    19     5     4   ar
    20     5     1   ar
    21    21    18   ar
    22    21    23    1
    23    14    10    1
    24     9     4    1
    25     9    10   ar
    26     9    13   ar
    27     4     3   ar
    28    11    15    1
    29    11    10   ar
    30    11    12   ar
    31    18    12    1
    32    12    13   ar
    33     1     6    1
    34     1     2   ar
    35     8     3    1
    36     3     2   ar
    37     2     7    1
