@<TRIPOS>MOLECULE
mol_data/noopt/geoms/mol2/1212134.out
 34 37 0 0 0
SMALL
GASTEIGER

@<TRIPOS>ATOM
      1 C           0.1763    1.8460    0.0000 C.ar    1  LIG1        0.0927
      2 C           1.5558    1.8460    0.0000 C.ar    1  LIG1       -0.0232
      3 C           1.9706    3.2334    0.0000 C.ar    1  LIG1       -0.0128
      4 C           0.8165    3.9895   -0.0001 C.ar    1  LIG1        0.1697
      5 O          -0.3030    3.1567   -0.0002 O.2     1  LIG1       -0.4598
      6 H          -0.7504    0.9343    0.0000 H       1  LIG1        0.1029
      7 H           2.3515    0.8179    0.0001 H       1  LIG1        0.0649
      8 H           3.1998    3.6567    0.0000 H       1  LIG1        0.0656
      9 C           0.5416    5.2601   -0.0001 C.ar    1  LIG1        0.1706
     10 C           1.2792    6.4258   -0.0001 C.ar    1  LIG1       -0.0121
     11 C           0.3286    7.5182   -0.0001 C.ar    1  LIG1       -0.0137
     12 C          -0.9274    6.9472   -0.0002 C.ar    1  LIG1        0.1519
     13 O          -0.8223    5.5559   -0.0003 O.2     1  LIG1       -0.4503
     14 H           2.5734    6.5485   -0.0000 H       1  LIG1        0.0657
     15 H           0.6282    8.7832   -0.0001 H       1  LIG1        0.0656
     16 C          -2.1481    7.3944   -0.0002 C.ar    1  LIG1        0.0825
     17 C          -2.6205    8.6690   -0.0006 C.ar    1  LIG1       -0.0328
     18 C          -4.0506    8.5952    0.0007 C.ar    1  LIG1       -0.0357
     19 C          -4.3892    7.2786    0.0001 C.ar    1  LIG1        0.0470
     20 N          -3.2275    6.5399   -0.0000 N.ar    1  LIG1       -0.3518
     21 H          -3.1762    5.5473   -0.0006 H       1  LIG1        0.1660
     22 H          -1.9029    9.7530   -0.0005 H       1  LIG1        0.0640
     23 H          -4.8760    9.5995    0.0019 H       1  LIG1        0.0639
     24 C          -6.7250    7.4982    0.0017 C.ar    1  LIG1       -0.0526
     25 C          -7.9659    6.8324    0.0038 C.ar    1  LIG1       -0.0611
     26 C          -5.5573    6.7081    0.0006 C.ar    1  LIG1       -0.0017
     27 C          -8.0433    5.4415    0.0042 C.ar    1  LIG1       -0.0617
     28 H          -8.8794    7.4229    0.0048 H       1  LIG1        0.0618
     29 C          -5.6339    5.3195    0.0011 C.ar    1  LIG1       -0.0526
     30 C          -6.8762    4.6766    0.0027 C.ar    1  LIG1       -0.0611
     31 H          -4.7191    4.7323    0.0003 H       1  LIG1        0.0624
     32 H          -9.2058    4.8597    0.0061 H       1  LIG1        0.0618
     33 H          -6.7169    8.7982    0.0011 H       1  LIG1        0.0624
     34 H          -6.9416    3.3782    0.0033 H       1  LIG1        0.0618
@<TRIPOS>BOND
     1    21    20    1
     2    17    22    1
     3    17    16   ar
     4    17    18   ar
     5    13    12   ar
     6    13     9   ar
     7    12    16    1
     8    12    11   ar
     9    16    20   ar
    10     5     4   ar
    11     5     1   ar
    12     9    10   ar
    13     9     4    1
    14    10    11   ar
    15    10    14    1
    16    11    15    1
    17     4     3   ar
    18    20    19   ar
    19     8     3    1
    20     6     1    1
    21     1     2   ar
    22     3     2   ar
    23     2     7    1
    24    19    26    1
    25    19    18   ar
    26    31    29    1
    27    26    29   ar
    28    26    24   ar
    29    18    23    1
    30    29    30   ar
    31    33    24    1
    32    24    25   ar
    33    30    34    1
    34    30    27   ar
    35    25    27   ar
    36    25    28    1
    37    27    32    1
