@<TRIPOS>MOLECULE
mol_data/noopt/geoms/mol2/1212-124-.out
 33 36 0 0 0
SMALL
GASTEIGER

@<TRIPOS>ATOM
      1 C           0.1763    1.8460    0.0000 C.ar    1  LIG1        0.0927
      2 C           1.5558    1.8460    0.0000 C.ar    1  LIG1       -0.0232
      3 C           1.9706    3.2334    0.0000 C.ar    1  LIG1       -0.0128
      4 C           0.8165    3.9895   -0.0001 C.ar    1  LIG1        0.1697
      5 O          -0.3030    3.1567   -0.0002 O.2     1  LIG1       -0.4598
      6 H          -0.7504    0.9343    0.0000 H       1  LIG1        0.1029
      7 H           2.3515    0.8179    0.0001 H       1  LIG1        0.0649
      8 H           3.1998    3.6567    0.0000 H       1  LIG1        0.0656
      9 C           0.5416    5.2601   -0.0001 C.ar    1  LIG1        0.1707
     10 C          -0.6119    6.0167   -0.0001 C.ar    1  LIG1       -0.0121
     11 C          -0.1979    7.4043   -0.0001 C.ar    1  LIG1       -0.0121
     12 C           1.1818    7.4036   -0.0000 C.ar    1  LIG1        0.1707
     13 O           1.6612    6.0932    0.0001 O.2     1  LIG1       -0.4486
     14 H          -1.8411    5.5934   -0.0002 H       1  LIG1        0.0657
     15 H          -0.9936    8.4323   -0.0001 H       1  LIG1        0.0657
     16 C           2.1085    8.3153   -0.0000 C.ar    1  LIG1        0.1706
     17 C           3.4880    8.3153   -0.0001 C.ar    1  LIG1       -0.0122
     18 C           3.9028    9.7027   -0.0001 C.ar    1  LIG1       -0.0151
     19 C           2.7487   10.4588   -0.0002 C.ar    1  LIG1        0.1358
     20 O           1.6292    9.6260   -0.0003 O.2     1  LIG1       -0.4517
     21 H           4.2837    7.2872    0.0000 H       1  LIG1        0.0657
     22 H           5.1320   10.1260   -0.0001 H       1  LIG1        0.0656
     23 C           1.1305   12.1574   -0.0009 C.ar    1  LIG1       -0.0511
     24 C           0.8853   13.5442   -0.0025 C.ar    1  LIG1       -0.0611
     25 C           2.4738   11.7293   -0.0002 C.ar    1  LIG1        0.0173
     26 C           1.9299   14.4658   -0.0026 C.ar    1  LIG1       -0.0617
     27 H          -0.1439   13.8962   -0.0033 H       1  LIG1        0.0618
     28 C           3.5171   12.6490   -0.0003 C.ar    1  LIG1       -0.0511
     29 C           3.2531   14.0226   -0.0015 C.ar    1  LIG1       -0.0611
     30 H           4.5445   12.2939    0.0002 H       1  LIG1        0.0625
     31 H           1.6674   15.7391   -0.0039 H       1  LIG1        0.0618
     32 H           0.1145   11.3464   -0.0006 H       1  LIG1        0.0625
     33 H           4.2324   14.8776   -0.0018 H       1  LIG1        0.0618
@<TRIPOS>BOND
     1    31    26    1
     2    27    24    1
     3    26    24   ar
     4    26    29   ar
     5    24    23   ar
     6    33    29    1
     7    29    28   ar
     8    23    32    1
     9    23    25   ar
    10    28    25   ar
    11    28    30    1
    12    20    19   ar
    13    20    16   ar
    14     5     4   ar
    15     5     1   ar
    16    25    19    1
    17    19    18   ar
    18    14    10    1
    19    22    18    1
    20     9     4    1
    21     9    10   ar
    22     9    13   ar
    23     4     3   ar
    24    11    15    1
    25    11    10   ar
    26    11    12   ar
    27    18    17   ar
    28    17    16   ar
    29    17    21    1
    30    16    12    1
    31    12    13   ar
    32     1     6    1
    33     1     2   ar
    34     8     3    1
    35     3     2   ar
    36     2     7    1
