@<TRIPOS>MOLECULE
mol_data/noopt/geoms/mol2/1212128-.out
 29 32 0 0 0
SMALL
GASTEIGER

@<TRIPOS>ATOM
      1 C           0.1763    1.8460    0.0000 C.ar    1  LIG1        0.0927
      2 C           1.5558    1.8460    0.0000 C.ar    1  LIG1       -0.0232
      3 C           1.9706    3.2334    0.0000 C.ar    1  LIG1       -0.0128
      4 C           0.8165    3.9895   -0.0001 C.ar    1  LIG1        0.1697
      5 O          -0.3030    3.1567   -0.0002 O.2     1  LIG1       -0.4598
      6 H          -0.7504    0.9343    0.0000 H       1  LIG1        0.1029
      7 H           2.3515    0.8179    0.0001 H       1  LIG1        0.0649
      8 H           3.1998    3.6567    0.0000 H       1  LIG1        0.0656
      9 C           0.5416    5.2601   -0.0001 C.ar    1  LIG1        0.1707
     10 C           1.2792    6.4258   -0.0001 C.ar    1  LIG1       -0.0121
     11 C           0.3286    7.5182   -0.0001 C.ar    1  LIG1       -0.0121
     12 C          -0.9274    6.9472   -0.0002 C.ar    1  LIG1        0.1707
     13 O          -0.8223    5.5559   -0.0003 O.2     1  LIG1       -0.4486
     14 H           2.5734    6.5485   -0.0000 H       1  LIG1        0.0657
     15 H           0.6282    8.7832   -0.0001 H       1  LIG1        0.0657
     16 C          -2.1481    7.3943   -0.0002 C.ar    1  LIG1        0.1707
     17 C          -2.7387    8.6410   -0.0002 C.ar    1  LIG1       -0.0121
     18 C          -4.1701    8.4218   -0.0002 C.ar    1  LIG1       -0.0119
     19 C          -4.3593    7.0551   -0.0003 C.ar    1  LIG1        0.1761
     20 O          -3.1273    6.4000   -0.0004 O.2     1  LIG1       -0.4485
     21 H          -2.1504    9.8002   -0.0001 H       1  LIG1        0.0657
     22 H          -5.0789    9.3514   -0.0002 H       1  LIG1        0.0657
     23 C          -5.3898    6.2627   -0.0003 C.ar    1  LIG1        0.2381
     24 N          -5.1304    4.9265   -0.0003 N.ar    1  LIG1       -0.1226
     25 C          -7.5268    4.6195   -0.0003 C.ar    1  LIG1        0.1605
     26 N          -6.6146    6.8566   -0.0003 N.ar    1  LIG1       -0.1226
     27 N          -6.2108    4.1179   -0.0003 N.ar    1  LIG1       -0.1338
     28 N          -7.6736    6.0201   -0.0002 N.ar    1  LIG1       -0.1338
     29 H          -8.5574    3.8271   -0.0003 H       1  LIG1        0.1085
@<TRIPOS>BOND
     1    20    19   ar
     2    20    16   ar
     3    29    25    1
     4    27    25   ar
     5    27    24   ar
     6    26    23   ar
     7    26    28   ar
     8    25    28   ar
     9    24    23   ar
    10    23    19    1
    11    19    18   ar
    12    13    12   ar
    13    13     9   ar
    14    22    18    1
    15    18    17   ar
    16    17    16   ar
    17    17    21    1
    18    16    12    1
    19    12    11   ar
    20     5     4   ar
    21     5     1   ar
    22    15    11    1
    23    11    10   ar
    24    10     9   ar
    25    10    14    1
    26     9     4    1
    27     4     3   ar
    28     1     6    1
    29     1     2   ar
    30     8     3    1
    31     3     2   ar
    32     2     7    1
