@<TRIPOS>MOLECULE
mol_data/noopt/geoms/mol2/1212-5.out
 23 25 0 0 0
SMALL
GASTEIGER

@<TRIPOS>ATOM
      1 C           0.1763    1.8460    0.0000 C.ar    1  LIG1        0.0927
      2 C           1.5558    1.8460    0.0000 C.ar    1  LIG1       -0.0232
      3 C           1.9706    3.2334    0.0000 C.ar    1  LIG1       -0.0128
      4 C           0.8165    3.9895   -0.0001 C.ar    1  LIG1        0.1697
      5 O          -0.3030    3.1567   -0.0002 O.2     1  LIG1       -0.4598
      6 H          -0.7504    0.9343    0.0000 H       1  LIG1        0.1029
      7 H           2.3515    0.8179    0.0001 H       1  LIG1        0.0649
      8 H           3.1998    3.6567    0.0000 H       1  LIG1        0.0656
      9 C           0.5416    5.2601   -0.0001 C.ar    1  LIG1        0.1706
     10 C          -0.6119    6.0167   -0.0001 C.ar    1  LIG1       -0.0121
     11 C          -0.1979    7.4043   -0.0001 C.ar    1  LIG1       -0.0146
     12 C           1.1818    7.4036   -0.0000 C.ar    1  LIG1        0.1424
     13 O           1.6612    6.0932    0.0001 O.2     1  LIG1       -0.4512
     14 H          -1.8411    5.5934   -0.0002 H       1  LIG1        0.0657
     15 H          -0.9936    8.4323   -0.0001 H       1  LIG1        0.0656
     16 C           2.1085    8.3153   -0.0000 C.ar    1  LIG1        0.0544
     17 C           3.4657    8.0811   -0.0004 C.ar    1  LIG1       -0.0440
     18 C           4.2100    9.3047   -0.0011 C.ar    1  LIG1       -0.0540
     19 C           3.3779   10.4021   -0.0004 C.ar    1  LIG1       -0.0236
     20 S           1.7674    9.9523    0.0003 S.2     1  LIG1       -0.0936
     21 H           3.7612   11.6444   -0.0001 H       1  LIG1        0.0693
     22 H           4.0268    6.9084   -0.0004 H       1  LIG1        0.0630
     23 H           5.5093    9.3458   -0.0023 H       1  LIG1        0.0623
@<TRIPOS>BOND
     1    23    18    1
     2    18    17   ar
     3    18    19   ar
     4    17    22    1
     5    17    16   ar
     6    19    21    1
     7    19    20   ar
     8     5     4   ar
     9     5     1   ar
    10    14    10    1
    11     4     9    1
    12     4     3   ar
    13     9    10   ar
    14     9    13   ar
    15    11    15    1
    16    11    10   ar
    17    11    12   ar
    18    16    12    1
    19    16    20   ar
    20    12    13   ar
    21     1     6    1
    22     1     2   ar
    23     8     3    1
    24     3     2   ar
    25     2     7    1
