@<TRIPOS>MOLECULE
mol_data/noopt/geoms/mol2/1212-8-13.out
 30 33 0 0 0
SMALL
GASTEIGER

@<TRIPOS>ATOM
      1 C           0.1763    1.8460    0.0000 C.ar    1  LIG1        0.0927
      2 C           1.5558    1.8460    0.0000 C.ar    1  LIG1       -0.0232
      3 C           1.9706    3.2334    0.0000 C.ar    1  LIG1       -0.0128
      4 C           0.8165    3.9895   -0.0001 C.ar    1  LIG1        0.1697
      5 O          -0.3030    3.1567   -0.0002 O.2     1  LIG1       -0.4598
      6 H          -0.7504    0.9343    0.0000 H       1  LIG1        0.1029
      7 H           2.3515    0.8179    0.0001 H       1  LIG1        0.0649
      8 H           3.1998    3.6567    0.0000 H       1  LIG1        0.0656
      9 C           0.5416    5.2601   -0.0001 C.ar    1  LIG1        0.1707
     10 C          -0.6119    6.0167   -0.0001 C.ar    1  LIG1       -0.0121
     11 C          -0.1979    7.4043   -0.0001 C.ar    1  LIG1       -0.0119
     12 C           1.1818    7.4036   -0.0000 C.ar    1  LIG1        0.1761
     13 O           1.6612    6.0932    0.0001 O.2     1  LIG1       -0.4485
     14 H          -1.8411    5.5934   -0.0002 H       1  LIG1        0.0657
     15 H          -0.9936    8.4323   -0.0001 H       1  LIG1        0.0657
     16 C           2.1085    8.3153   -0.0000 C.ar    1  LIG1        0.2381
     17 N           1.6888    9.6101   -0.0001 N.ar    1  LIG1       -0.1220
     18 C           4.0302   10.2057   -0.0001 C.ar    1  LIG1        0.2194
     19 N           3.3964    7.8744   -0.0001 N.ar    1  LIG1       -0.1220
     20 N           2.6630   10.5439   -0.0001 N.ar    1  LIG1       -0.1236
     21 N           4.3459    8.8333    0.0000 N.ar    1  LIG1       -0.1236
     22 C           4.9569   11.1175   -0.0001 C.ar    1  LIG1        0.0875
     23 C           6.3111   10.9986   -0.0005 C.ar    1  LIG1       -0.0333
     24 C           6.8567   12.3226    0.0008 C.ar    1  LIG1       -0.0437
     25 C           5.8119   13.1923    0.0001 C.ar    1  LIG1        0.0023
     26 N           4.6470   12.4587    0.0000 N.ar    1  LIG1       -0.3582
     27 H           3.7279   12.8374   -0.0005 H       1  LIG1        0.1654
     28 H           5.7965   14.4922    0.0007 H       1  LIG1        0.0807
     29 H           6.9835    9.8859   -0.0004 H       1  LIG1        0.0640
     30 H           8.1177   12.6385    0.0019 H       1  LIG1        0.0633
@<TRIPOS>BOND
     1    27    26    1
     2    23    29    1
     3    23    22   ar
     4    23    24   ar
     5     5     4   ar
     6     5     1   ar
     7    14    10    1
     8    22    18    1
     9    22    26   ar
    10     4     9    1
    11     4     3   ar
    12     9    10   ar
    13     9    13   ar
    14    18    20   ar
    15    18    21   ar
    16    11    15    1
    17    11    10   ar
    18    11    12   ar
    19    20    17   ar
    20    19    16   ar
    21    19    21   ar
    22    17    16   ar
    23    16    12    1
    24    12    13   ar
    25     1     6    1
    26     1     2   ar
    27     8     3    1
    28     3     2   ar
    29     2     7    1
    30    26    25   ar
    31    25    28    1
    32    25    24   ar
    33    24    30    1
