@<TRIPOS>MOLECULE
mol_data/noopt/geoms/mol2/1212-5-.out
 23 25 0 0 0
SMALL
GASTEIGER

@<TRIPOS>ATOM
      1 C           0.1763    1.8460    0.0000 C.ar    1  LIG1        0.0927
      2 C           1.5558    1.8460    0.0000 C.ar    1  LIG1       -0.0232
      3 C           1.9706    3.2334    0.0000 C.ar    1  LIG1       -0.0128
      4 C           0.8165    3.9895   -0.0001 C.ar    1  LIG1        0.1697
      5 O          -0.3030    3.1567   -0.0002 O.2     1  LIG1       -0.4598
      6 H          -0.7504    0.9343    0.0000 H       1  LIG1        0.1029
      7 H           2.3515    0.8179    0.0001 H       1  LIG1        0.0649
      8 H           3.1998    3.6567    0.0000 H       1  LIG1        0.0656
      9 C           0.5416    5.2601   -0.0001 C.ar    1  LIG1        0.1706
     10 C          -0.6119    6.0167   -0.0001 C.ar    1  LIG1       -0.0121
     11 C          -0.1979    7.4043   -0.0001 C.ar    1  LIG1       -0.0146
     12 C           1.1818    7.4036   -0.0000 C.ar    1  LIG1        0.1424
     13 O           1.6612    6.0932    0.0001 O.2     1  LIG1       -0.4512
     14 H          -1.8411    5.5934   -0.0002 H       1  LIG1        0.0657
     15 H          -0.9936    8.4323   -0.0001 H       1  LIG1        0.0656
     16 C           2.1085    8.3153   -0.0000 C.ar    1  LIG1        0.0544
     17 C           1.8966    9.6761    0.0001 C.ar    1  LIG1       -0.0440
     18 C           3.1321   10.4003    0.0008 C.ar    1  LIG1       -0.0540
     19 C           4.2158    9.5505    0.0003 C.ar    1  LIG1       -0.0236
     20 S           3.7398    7.9475   -0.0001 S.2     1  LIG1       -0.0936
     21 H           5.4641    9.9134    0.0002 H       1  LIG1        0.0693
     22 H           0.7332   10.2562   -0.0002 H       1  LIG1        0.0630
     23 H           3.1944   11.6988    0.0017 H       1  LIG1        0.0623
@<TRIPOS>BOND
     1     5     4   ar
     2     5     1   ar
     3    22    17    1
     4    14    10    1
     5    20    16   ar
     6    20    19   ar
     7     4     9    1
     8     4     3   ar
     9     9    10   ar
    10     9    13   ar
    11    11    15    1
    12    11    10   ar
    13    11    12   ar
    14    16    12    1
    15    16    17   ar
    16    12    13   ar
    17     1     6    1
    18     1     2   ar
    19     8     3    1
    20     3     2   ar
    21     2     7    1
    22    17    18   ar
    23    21    19    1
    24    19    18   ar
    25    18    23    1
