@<TRIPOS>MOLECULE
mol_data/noopt/geoms/mol2/1212-.out
 16 17 0 0 0
SMALL
GASTEIGER

@<TRIPOS>ATOM
      1 C           0.1763    1.8460    0.0000 C.ar    1  LIG1        0.0927
      2 C           1.5558    1.8460    0.0000 C.ar    1  LIG1       -0.0232
      3 C           1.9706    3.2334    0.0000 C.ar    1  LIG1       -0.0128
      4 C           0.8165    3.9895   -0.0001 C.ar    1  LIG1        0.1696
      5 O          -0.3030    3.1567   -0.0002 O.2     1  LIG1       -0.4598
      6 H          -0.7504    0.9343    0.0000 H       1  LIG1        0.1029
      7 H           2.3515    0.8179    0.0001 H       1  LIG1        0.0649
      8 H           3.1998    3.6567    0.0000 H       1  LIG1        0.0656
      9 C           0.5416    5.2601   -0.0001 C.ar    1  LIG1        0.1696
     10 C          -0.6119    6.0167   -0.0001 C.ar    1  LIG1       -0.0128
     11 C          -0.1979    7.4043   -0.0001 C.ar    1  LIG1       -0.0232
     12 C           1.1818    7.4036   -0.0000 C.ar    1  LIG1        0.0927
     13 O           1.6612    6.0932    0.0001 O.2     1  LIG1       -0.4598
     14 H           2.1085    8.3153   -0.0000 H       1  LIG1        0.1029
     15 H          -1.8411    5.5934   -0.0002 H       1  LIG1        0.0656
     16 H          -0.9936    8.4323   -0.0001 H       1  LIG1        0.0649
@<TRIPOS>BOND
     1     5     4   ar
     2     5     1   ar
     3    15    10    1
     4     4     9    1
     5     4     3   ar
     6     9    10   ar
     7     9    13   ar
     8    11    16    1
     9    11    10   ar
    10    11    12   ar
    11    14    12    1
    12    12    13   ar
    13     1     2   ar
    14     1     6    1
    15     2     3   ar
    16     2     7    1
    17     3     8    1
