@<TRIPOS>MOLECULE
mol_data/noopt/geoms/mol2/12125.out
 23 25 0 0 0
SMALL
GASTEIGER

@<TRIPOS>ATOM
      1 C           0.1763    1.8460    0.0000 C.ar    1  LIG1        0.0927
      2 C           1.5558    1.8460    0.0000 C.ar    1  LIG1       -0.0232
      3 C           1.9706    3.2334    0.0000 C.ar    1  LIG1       -0.0128
      4 C           0.8165    3.9895   -0.0001 C.ar    1  LIG1        0.1697
      5 O          -0.3030    3.1567   -0.0002 O.2     1  LIG1       -0.4598
      6 H          -0.7504    0.9343    0.0000 H       1  LIG1        0.1029
      7 H           2.3515    0.8179    0.0001 H       1  LIG1        0.0649
      8 H           3.1998    3.6567    0.0000 H       1  LIG1        0.0656
      9 C           0.5416    5.2601   -0.0001 C.ar    1  LIG1        0.1706
     10 C           1.2792    6.4258   -0.0001 C.ar    1  LIG1       -0.0121
     11 C           0.3286    7.5182   -0.0001 C.ar    1  LIG1       -0.0146
     12 C          -0.9274    6.9472   -0.0002 C.ar    1  LIG1        0.1424
     13 O          -0.8223    5.5559   -0.0003 O.2     1  LIG1       -0.4512
     14 H           2.5734    6.5485   -0.0000 H       1  LIG1        0.0657
     15 H           0.6282    8.7832   -0.0001 H       1  LIG1        0.0656
     16 C          -2.1481    7.3943   -0.0002 C.ar    1  LIG1        0.0544
     17 C          -2.5176    8.7211   -0.0006 C.ar    1  LIG1       -0.0440
     18 C          -3.9420    8.8698   -0.0012 C.ar    1  LIG1       -0.0540
     19 C          -4.5775    7.6480   -0.0005 C.ar    1  LIG1       -0.0236
     20 S          -3.4814    6.3852    0.0002 S.2     1  LIG1       -0.0936
     21 H          -5.8642    7.4625   -0.0002 H       1  LIG1        0.0693
     22 H          -1.6980    9.7302   -0.0006 H       1  LIG1        0.0630
     23 H          -4.5354   10.0264   -0.0024 H       1  LIG1        0.0623
@<TRIPOS>BOND
     1    23    18    1
     2    18    17   ar
     3    18    19   ar
     4    22    17    1
     5    17    16   ar
     6    19    21    1
     7    19    20   ar
     8    13    12   ar
     9    13     9   ar
    10    12    16    1
    11    12    11   ar
    12    16    20   ar
    13     5     4   ar
    14     5     1   ar
    15    10    11   ar
    16    10     9   ar
    17    10    14    1
    18    11    15    1
    19     9     4    1
    20     4     3   ar
    21     1     6    1
    22     1     2   ar
    23     8     3    1
    24     3     2   ar
    25     2     7    1
