@<TRIPOS>MOLECULE
mol_data/noopt/geoms/mol2/121254-.out
 33 36 0 0 0
SMALL
GASTEIGER

@<TRIPOS>ATOM
      1 C           0.1763    1.8460    0.0000 C.ar    1  LIG1        0.0927
      2 C           1.5558    1.8460    0.0000 C.ar    1  LIG1       -0.0232
      3 C           1.9706    3.2334    0.0000 C.ar    1  LIG1       -0.0128
      4 C           0.8165    3.9895   -0.0001 C.ar    1  LIG1        0.1697
      5 O          -0.3030    3.1567   -0.0002 O.2     1  LIG1       -0.4598
      6 H          -0.7504    0.9343    0.0000 H       1  LIG1        0.1029
      7 H           2.3515    0.8179    0.0001 H       1  LIG1        0.0649
      8 H           3.1998    3.6567    0.0000 H       1  LIG1        0.0656
      9 C           0.5416    5.2601   -0.0001 C.ar    1  LIG1        0.1706
     10 C           1.2792    6.4258   -0.0001 C.ar    1  LIG1       -0.0121
     11 C           0.3286    7.5182   -0.0001 C.ar    1  LIG1       -0.0146
     12 C          -0.9274    6.9472   -0.0002 C.ar    1  LIG1        0.1424
     13 O          -0.8223    5.5559   -0.0003 O.2     1  LIG1       -0.4512
     14 H           2.5734    6.5485   -0.0000 H       1  LIG1        0.0657
     15 H           0.6282    8.7832   -0.0001 H       1  LIG1        0.0656
     16 C          -2.1481    7.3943   -0.0002 C.ar    1  LIG1        0.0550
     17 C          -2.5176    8.7211   -0.0006 C.ar    1  LIG1       -0.0434
     18 C          -3.9420    8.8698   -0.0012 C.ar    1  LIG1       -0.0462
     19 C          -4.5775    7.6480   -0.0005 C.ar    1  LIG1        0.0200
     20 S          -3.4814    6.3852    0.0002 S.2     1  LIG1       -0.0852
     21 H          -1.6980    9.7302   -0.0006 H       1  LIG1        0.0630
     22 H          -4.5354   10.0264   -0.0024 H       1  LIG1        0.0629
     23 C          -6.3850    6.1524   -0.0008 C.ar    1  LIG1       -0.0535
     24 C          -7.7855    6.0046   -0.0020 C.ar    1  LIG1       -0.0612
     25 C          -5.8641    7.4625   -0.0002 C.ar    1  LIG1       -0.0113
     26 C          -8.6319    7.1111   -0.0020 C.ar    1  LIG1       -0.0617
     27 H          -8.2085    5.0025   -0.0027 H       1  LIG1        0.0618
     28 C          -6.7087    8.5674   -0.0002 C.ar    1  LIG1       -0.0535
     29 C          -8.0974    8.4000   -0.0010 C.ar    1  LIG1       -0.0612
     30 H          -6.2828    9.5675    0.0002 H       1  LIG1        0.0624
     31 H          -9.9204    6.9381   -0.0031 H       1  LIG1        0.0618
     32 H          -5.6469    5.0822   -0.0006 H       1  LIG1        0.0624
     33 H          -8.8819    9.4366   -0.0012 H       1  LIG1        0.0618
@<TRIPOS>BOND
     1    31    26    1
     2    27    24    1
     3    22    18    1
     4    26    24   ar
     5    26    29   ar
     6    24    23   ar
     7    18    17   ar
     8    18    19   ar
     9    33    29    1
    10    29    28   ar
    11    23    32    1
    12    23    25   ar
    13    21    17    1
    14    17    16   ar
    15    19    25    1
    16    19    20   ar
    17    13    12   ar
    18    13     9   ar
    19    25    28   ar
    20    28    30    1
    21     5     4   ar
    22     5     1   ar
    23    16    12    1
    24    16    20   ar
    25    12    11   ar
    26     9     4    1
    27     9    10   ar
    28     4     3   ar
    29    10    11   ar
    30    10    14    1
    31    11    15    1
    32     8     3    1
    33     6     1    1
    34     1     2   ar
    35     3     2   ar
    36     2     7    1
