@<TRIPOS>MOLECULE
mol_data/noopt/geoms/mol2/1213.out
 17 18 0 0 0
SMALL
GASTEIGER

@<TRIPOS>ATOM
      1 C           0.1763    1.8460    0.0000 C.ar    1  LIG1        0.0926
      2 C           1.5558    1.8460    0.0000 C.ar    1  LIG1       -0.0233
      3 C           1.9706    3.2334    0.0000 C.ar    1  LIG1       -0.0144
      4 C           0.8165    3.9895   -0.0001 C.ar    1  LIG1        0.1508
      5 O          -0.3030    3.1567   -0.0002 O.2     1  LIG1       -0.4615
      6 H          -0.7504    0.9343    0.0000 H       1  LIG1        0.1029
      7 H           2.3515    0.8179    0.0001 H       1  LIG1        0.0649
      8 H           3.1998    3.6567    0.0000 H       1  LIG1        0.0656
      9 C           0.5416    5.2601   -0.0001 C.ar    1  LIG1        0.0821
     10 C           1.3662    6.3409   -0.0005 C.ar    1  LIG1       -0.0334
     11 C           0.5391    7.5098    0.0008 C.ar    1  LIG1       -0.0437
     12 C          -0.7546    7.0920    0.0002 C.ar    1  LIG1        0.0023
     13 N          -0.7576    5.7154    0.0001 N.ar    1  LIG1       -0.3583
     14 H          -1.5690    5.1412   -0.0005 H       1  LIG1        0.1654
     15 H          -1.8613    7.7741    0.0007 H       1  LIG1        0.0807
     16 H           2.6659    6.3141   -0.0004 H       1  LIG1        0.0640
     17 H           0.9463    8.7444    0.0020 H       1  LIG1        0.0633
@<TRIPOS>BOND
     1    14    13    1
     2    10    16    1
     3    10     9   ar
     4    10    11   ar
     5     5     4   ar
     6     5     1   ar
     7     4     9    1
     8     4     3   ar
     9     9    13   ar
    10     1     6    1
    11     1     2   ar
    12     8     3    1
    13     3     2   ar
    14     2     7    1
    15    13    12   ar
    16    12    15    1
    17    12    11   ar
    18    11    17    1
