@<TRIPOS>MOLECULE
mol_data/noopt/geoms/mol2/1213-.out
 17 18 0 0 0
SMALL
GASTEIGER

@<TRIPOS>ATOM
      1 C           0.1763    1.8460    0.0000 C.ar    1  LIG1        0.0926
      2 C           1.5558    1.8460    0.0000 C.ar    1  LIG1       -0.0233
      3 C           1.9706    3.2334    0.0000 C.ar    1  LIG1       -0.0144
      4 C           0.8165    3.9895   -0.0001 C.ar    1  LIG1        0.1508
      5 O          -0.3030    3.1567   -0.0002 O.2     1  LIG1       -0.4615
      6 H          -0.7504    0.9343    0.0000 H       1  LIG1        0.1029
      7 H           2.3515    0.8179    0.0001 H       1  LIG1        0.0649
      8 H           3.1998    3.6567    0.0000 H       1  LIG1        0.0656
      9 C           0.5416    5.2601   -0.0001 C.ar    1  LIG1        0.0821
     10 C          -0.6560    5.9034    0.0004 C.ar    1  LIG1       -0.0334
     11 C          -0.3860    7.3097   -0.0010 C.ar    1  LIG1       -0.0437
     12 C           0.9646    7.4640   -0.0005 C.ar    1  LIG1        0.0023
     13 N           1.5364    6.2117   -0.0004 N.ar    1  LIG1       -0.3583
     14 H           2.5126    6.0243   -0.0000 H       1  LIG1        0.1654
     15 H           1.6904    8.5425   -0.0012 H       1  LIG1        0.0807
     16 H          -1.8284    5.3418    0.0005 H       1  LIG1        0.0640
     17 H          -1.2672    8.2655   -0.0020 H       1  LIG1        0.0633
@<TRIPOS>BOND
     1    17    11    1
     2    15    12    1
     3    11    12   ar
     4    11    10   ar
     5    12    13   ar
     6    13     9   ar
     7    13    14    1
     8     5     4   ar
     9     5     1   ar
    10     9     4    1
    11     9    10   ar
    12     4     3   ar
    13     8     3    1
    14     1     6    1
    15     1     2   ar
    16     3     2   ar
    17     2     7    1
    18    10    16    1
