@<TRIPOS>MOLECULE
mol_data/noopt/geoms/mol2/1213-4.out
 27 29 0 0 0
SMALL
GASTEIGER

@<TRIPOS>ATOM
      1 C           0.1763    1.8460    0.0000 C.ar    1  LIG1        0.0926
      2 C           1.5558    1.8460    0.0000 C.ar    1  LIG1       -0.0233
      3 C           1.9706    3.2334    0.0000 C.ar    1  LIG1       -0.0144
      4 C           0.8165    3.9895   -0.0001 C.ar    1  LIG1        0.1509
      5 O          -0.3030    3.1567   -0.0002 O.2     1  LIG1       -0.4615
      6 H          -0.7504    0.9343    0.0000 H       1  LIG1        0.1029
      7 H           2.3515    0.8179    0.0001 H       1  LIG1        0.0649
      8 H           3.1998    3.6567    0.0000 H       1  LIG1        0.0656
      9 C           0.5416    5.2601   -0.0001 C.ar    1  LIG1        0.0825
     10 C          -0.6560    5.9034    0.0004 C.ar    1  LIG1       -0.0328
     11 C          -0.3860    7.3097   -0.0010 C.ar    1  LIG1       -0.0357
     12 C           0.9646    7.4640   -0.0005 C.ar    1  LIG1        0.0470
     13 N           1.5364    6.2117   -0.0004 N.ar    1  LIG1       -0.3518
     14 H           2.5126    6.0243   -0.0000 H       1  LIG1        0.1660
     15 H          -1.8284    5.3418    0.0005 H       1  LIG1        0.0640
     16 H          -1.2672    8.2655   -0.0020 H       1  LIG1        0.0639
     17 C           3.0968    8.4427   -0.0008 C.ar    1  LIG1       -0.0526
     18 C           3.8380    9.6401   -0.0000 C.ar    1  LIG1       -0.0611
     19 C           1.6904    8.5424   -0.0012 C.ar    1  LIG1       -0.0017
     20 C           3.2089   10.8831   -0.0002 C.ar    1  LIG1       -0.0617
     21 H           4.9244    9.5860    0.0005 H       1  LIG1        0.0618
     22 C           1.0618    9.7830   -0.0014 C.ar    1  LIG1       -0.0526
     23 C           1.8157   10.9613   -0.0010 C.ar    1  LIG1       -0.0611
     24 H          -0.0240    9.8336   -0.0016 H       1  LIG1        0.0624
     25 H           3.9242   11.9686    0.0004 H       1  LIG1        0.0618
     26 H           3.7403    7.3131   -0.0008 H       1  LIG1        0.0624
     27 H           1.2226   12.1181   -0.0011 H       1  LIG1        0.0618
@<TRIPOS>BOND
     1    16    11    1
     2    24    22    1
     3    22    19   ar
     4    22    23   ar
     5    19    17   ar
     6    19    12    1
     7    27    23    1
     8    23    20   ar
     9    11    12   ar
    10    11    10   ar
    11    26    17    1
    12    17    18   ar
    13    12    13   ar
    14    13     9   ar
    15    13    14    1
    16    20    18   ar
    17    20    25    1
    18     5     4   ar
    19     5     1   ar
    20     4     9    1
    21     4     3   ar
    22     9    10   ar
    23    18    21    1
    24     1     6    1
    25     1     2   ar
    26     8     3    1
    27     3     2   ar
    28     2     7    1
    29    10    15    1
