@<TRIPOS>MOLECULE
mol_data/noopt/geoms/mol2/12138-13-.out
 31 34 0 0 0
SMALL
GASTEIGER

@<TRIPOS>ATOM
      1 C           0.1763    1.8460    0.0000 C.ar    1  LIG1        0.0926
      2 C           1.5558    1.8460    0.0000 C.ar    1  LIG1       -0.0233
      3 C           1.9706    3.2334    0.0000 C.ar    1  LIG1       -0.0144
      4 C           0.8165    3.9895   -0.0001 C.ar    1  LIG1        0.1509
      5 O          -0.3030    3.1567   -0.0002 O.2     1  LIG1       -0.4615
      6 H          -0.7504    0.9343    0.0000 H       1  LIG1        0.1029
      7 H           2.3515    0.8179    0.0001 H       1  LIG1        0.0649
      8 H           3.1998    3.6567    0.0000 H       1  LIG1        0.0656
      9 C           0.5416    5.2601   -0.0001 C.ar    1  LIG1        0.0826
     10 C           1.3662    6.3409   -0.0005 C.ar    1  LIG1       -0.0327
     11 C           0.5391    7.5098    0.0008 C.ar    1  LIG1       -0.0325
     12 C          -0.7546    7.0920    0.0002 C.ar    1  LIG1        0.0880
     13 N          -0.7576    5.7154    0.0001 N.ar    1  LIG1       -0.3492
     14 H          -1.5690    5.1412   -0.0005 H       1  LIG1        0.1661
     15 H           2.6659    6.3141   -0.0004 H       1  LIG1        0.0640
     16 H           0.9463    8.7444    0.0020 H       1  LIG1        0.0640
     17 C          -1.8613    7.7741    0.0007 C.ar    1  LIG1        0.2194
     18 N          -3.0183    7.0571    0.0010 N.ar    1  LIG1       -0.1237
     19 C          -4.1561    9.1884    0.0019 C.ar    1  LIG1        0.2194
     20 N          -1.7409    9.1299    0.0010 N.ar    1  LIG1       -0.1237
     21 N          -4.1578    7.7800    0.0016 N.ar    1  LIG1       -0.1237
     22 N          -2.8989    9.8229    0.0017 N.ar    1  LIG1       -0.1237
     23 C          -5.2629    9.8704    0.0024 C.ar    1  LIG1        0.0875
     24 C          -6.5564    9.4525    0.0033 C.ar    1  LIG1       -0.0333
     25 C          -7.3836   10.6214    0.0025 C.ar    1  LIG1       -0.0437
     26 C          -6.5591   11.7023    0.0029 C.ar    1  LIG1        0.0023
     27 N          -5.2599   11.2470    0.0024 N.ar    1  LIG1       -0.3582
     28 H          -4.4485   11.8212    0.0026 H       1  LIG1        0.1654
     29 H          -6.8340   12.9729    0.0026 H       1  LIG1        0.0807
     30 H          -6.9637    8.2179    0.0033 H       1  LIG1        0.0640
     31 H          -8.6833   10.6481    0.0019 H       1  LIG1        0.0633
@<TRIPOS>BOND
     1    14    13    1
     2    10    15    1
     3    10     9   ar
     4    10    11   ar
     5     5     4   ar
     6     5     1   ar
     7     4     9    1
     8     4     3   ar
     9     9    13   ar
    10     2     3   ar
    11     2     1   ar
    12     2     7    1
    13     3     8    1
    14     6     1    1
    15    13    12   ar
    16    12    17    1
    17    12    11   ar
    18    17    20   ar
    19    17    18   ar
    20    11    16    1
    21    20    22   ar
    22    18    21   ar
    23    21    19   ar
    24    22    19   ar
    25    19    23    1
    26    31    25    1
    27    27    23   ar
    28    27    28    1
    29    27    26   ar
    30    23    24   ar
    31    25    26   ar
    32    25    24   ar
    33    29    26    1
    34    30    24    1
