@<TRIPOS>MOLECULE
mol_data/noopt/geoms/mol2/12131313-.out
 33 36 0 0 0
SMALL
GASTEIGER

@<TRIPOS>ATOM
      1 C           0.1763    1.8460    0.0000 C.ar    1  LIG1        0.0926
      2 C           1.5558    1.8460    0.0000 C.ar    1  LIG1       -0.0233
      3 C           1.9706    3.2334    0.0000 C.ar    1  LIG1       -0.0144
      4 C           0.8165    3.9895   -0.0001 C.ar    1  LIG1        0.1509
      5 O          -0.3030    3.1567   -0.0002 O.2     1  LIG1       -0.4615
      6 H          -0.7504    0.9343    0.0000 H       1  LIG1        0.1029
      7 H           2.3515    0.8179    0.0001 H       1  LIG1        0.0649
      8 H           3.1998    3.6567    0.0000 H       1  LIG1        0.0656
      9 C           0.5416    5.2601   -0.0001 C.ar    1  LIG1        0.0826
     10 C           1.3662    6.3409   -0.0005 C.ar    1  LIG1       -0.0328
     11 C           0.5391    7.5098    0.0008 C.ar    1  LIG1       -0.0343
     12 C          -0.7546    7.0920    0.0002 C.ar    1  LIG1        0.0634
     13 N          -0.7576    5.7154    0.0001 N.ar    1  LIG1       -0.3506
     14 H          -1.5690    5.1412   -0.0005 H       1  LIG1        0.1660
     15 H           2.6659    6.3141   -0.0004 H       1  LIG1        0.0640
     16 H           0.9463    8.7444    0.0020 H       1  LIG1        0.0639
     17 C          -1.8613    7.7741    0.0007 C.ar    1  LIG1        0.0634
     18 C          -2.0694    9.1174    0.0008 C.ar    1  LIG1       -0.0343
     19 C          -3.4854    9.3308    0.0026 C.ar    1  LIG1       -0.0343
     20 C          -4.0804    8.1085    0.0019 C.ar    1  LIG1        0.0633
     21 N          -3.0897    7.1526    0.0012 N.ar    1  LIG1       -0.3519
     22 H          -3.2378    6.1697    0.0005 H       1  LIG1        0.1660
     23 H          -1.1497   10.0362    0.0007 H       1  LIG1        0.0639
     24 H          -4.0935   10.4798    0.0042 H       1  LIG1        0.0639
     25 C          -5.3389    7.7829    0.0028 C.ar    1  LIG1        0.0629
     26 C          -5.9337    6.5605    0.0040 C.ar    1  LIG1       -0.0350
     27 C          -7.3497    6.7739    0.0035 C.ar    1  LIG1       -0.0438
     28 C          -7.5580    8.1172    0.0039 C.ar    1  LIG1        0.0022
     29 N          -6.3296    8.7388    0.0030 N.ar    1  LIG1       -0.3595
     30 H          -6.1815    9.7217    0.0032 H       1  LIG1        0.1654
     31 H          -8.6647    8.7993    0.0039 H       1  LIG1        0.0807
     32 H          -5.3255    5.4115    0.0038 H       1  LIG1        0.0639
     33 H          -8.2694    5.8551    0.0033 H       1  LIG1        0.0633
@<TRIPOS>BOND
     1    14    13    1
     2    10    15    1
     3    10     9   ar
     4    10    11   ar
     5     5     4   ar
     6     5     1   ar
     7     4     9    1
     8     4     3   ar
     9     9    13   ar
    10     1     6    1
    11     1     2   ar
    12     8     3    1
    13     3     2   ar
    14     2     7    1
    15    13    12   ar
    16    12    17    1
    17    12    11   ar
    18    22    21    1
    19    23    18    1
    20    17    18   ar
    21    17    21   ar
    22    18    19   ar
    23    11    16    1
    24    21    20   ar
    25    20    19   ar
    26    20    25    1
    27    19    24    1
    28    25    29   ar
    29    25    26   ar
    30    29    30    1
    31    29    28   ar
    32    33    27    1
    33    27    28   ar
    34    27    26   ar
    35    32    26    1
    36    31    28    1
