@<TRIPOS>MOLECULE
mol_data/noopt/geoms/mol2/1213-13-8-.out
 31 34 0 0 0
SMALL
GASTEIGER

@<TRIPOS>ATOM
      1 C           0.1763    1.8460    0.0000 C.ar    1  LIG1        0.0926
      2 C           1.5558    1.8460    0.0000 C.ar    1  LIG1       -0.0233
      3 C           1.9706    3.2334    0.0000 C.ar    1  LIG1       -0.0144
      4 C           0.8165    3.9895   -0.0001 C.ar    1  LIG1        0.1509
      5 O          -0.3030    3.1567   -0.0002 O.2     1  LIG1       -0.4615
      6 H          -0.7504    0.9343    0.0000 H       1  LIG1        0.1029
      7 H           2.3515    0.8179    0.0001 H       1  LIG1        0.0649
      8 H           3.1998    3.6567    0.0000 H       1  LIG1        0.0656
      9 C           0.5416    5.2601   -0.0001 C.ar    1  LIG1        0.0826
     10 C          -0.6560    5.9034    0.0004 C.ar    1  LIG1       -0.0328
     11 C          -0.3860    7.3097   -0.0010 C.ar    1  LIG1       -0.0343
     12 C           0.9646    7.4640   -0.0005 C.ar    1  LIG1        0.0634
     13 N           1.5364    6.2117   -0.0004 N.ar    1  LIG1       -0.3506
     14 H           2.5126    6.0243   -0.0000 H       1  LIG1        0.1660
     15 H          -1.8284    5.3418    0.0005 H       1  LIG1        0.0640
     16 H          -1.2672    8.2655   -0.0020 H       1  LIG1        0.0639
     17 C           1.6904    8.5425   -0.0012 C.ar    1  LIG1        0.0634
     18 C           1.3246    9.8518   -0.0011 C.ar    1  LIG1       -0.0343
     19 C           2.5258   10.6314   -0.0032 C.ar    1  LIG1       -0.0326
     20 C           3.5728    9.7643   -0.0027 C.ar    1  LIG1        0.0880
     21 N           3.0658    8.4844   -0.0019 N.ar    1  LIG1       -0.3505
     22 H           3.6070    7.6506   -0.0013 H       1  LIG1        0.1660
     23 H           0.1074   10.3082   -0.0009 H       1  LIG1        0.0639
     24 H           2.6046   11.9290   -0.0048 H       1  LIG1        0.0640
     25 C           4.8534    9.9881   -0.0038 C.ar    1  LIG1        0.2193
     26 N           5.2436   11.2920   -0.0043 N.ar    1  LIG1       -0.1243
     27 C           7.5088   10.4519   -0.0062 C.ar    1  LIG1        0.1605
     28 N           5.6627    8.8936   -0.0043 N.ar    1  LIG1       -0.1243
     29 N           6.5758   11.5070   -0.0055 N.ar    1  LIG1       -0.1338
     30 N           6.9889    9.1432   -0.0054 N.ar    1  LIG1       -0.1338
     31 H           8.7894   10.6757   -0.0073 H       1  LIG1        0.1085
@<TRIPOS>BOND
     1    31    27    1
     2    27    29   ar
     3    27    30   ar
     4    29    26   ar
     5    30    28   ar
     6    24    19    1
     7    28    25   ar
     8    26    25   ar
     9    25    20    1
    10    19    20   ar
    11    19    18   ar
    12    20    21   ar
    13    16    11    1
    14    21    22    1
    15    21    17   ar
    16    17    18   ar
    17    17    12    1
    18    18    23    1
    19    11    12   ar
    20    11    10   ar
    21    12    13   ar
    22    13     9   ar
    23    13    14    1
    24     5     4   ar
    25     5     1   ar
    26     9     4    1
    27     9    10   ar
    28     4     3   ar
    29     1     6    1
    30     1     2   ar
    31     8     3    1
    32     3     2   ar
    33     2     7    1
    34    10    15    1
