@<TRIPOS>MOLECULE
mol_data/noopt/geoms/mol2/121313-8.out
 31 34 0 0 0
SMALL
GASTEIGER

@<TRIPOS>ATOM
      1 C           0.1763    1.8460    0.0000 C.ar    1  LIG1        0.0926
      2 C           1.5558    1.8460    0.0000 C.ar    1  LIG1       -0.0233
      3 C           1.9706    3.2334    0.0000 C.ar    1  LIG1       -0.0144
      4 C           0.8165    3.9895   -0.0001 C.ar    1  LIG1        0.1509
      5 O          -0.3030    3.1567   -0.0002 O.2     1  LIG1       -0.4615
      6 H          -0.7504    0.9343    0.0000 H       1  LIG1        0.1029
      7 H           2.3515    0.8179    0.0001 H       1  LIG1        0.0649
      8 H           3.1998    3.6567    0.0000 H       1  LIG1        0.0656
      9 C           0.5416    5.2601   -0.0001 C.ar    1  LIG1        0.0826
     10 C           1.3662    6.3409   -0.0005 C.ar    1  LIG1       -0.0328
     11 C           0.5391    7.5098    0.0008 C.ar    1  LIG1       -0.0343
     12 C          -0.7546    7.0920    0.0002 C.ar    1  LIG1        0.0634
     13 N          -0.7576    5.7154    0.0001 N.ar    1  LIG1       -0.3506
     14 H          -1.5690    5.1412   -0.0005 H       1  LIG1        0.1660
     15 H           2.6659    6.3141   -0.0004 H       1  LIG1        0.0640
     16 H           0.9463    8.7444    0.0020 H       1  LIG1        0.0639
     17 C          -1.8613    7.7741    0.0007 C.ar    1  LIG1        0.0634
     18 C          -3.1548    7.3561    0.0016 C.ar    1  LIG1       -0.0343
     19 C          -3.9820    8.5251    0.0008 C.ar    1  LIG1       -0.0326
     20 C          -3.1575    9.6059    0.0012 C.ar    1  LIG1        0.0880
     21 N          -1.8583    9.1507    0.0007 N.ar    1  LIG1       -0.3505
     22 H          -1.0469    9.7249    0.0010 H       1  LIG1        0.1660
     23 H          -3.5621    6.1215    0.0016 H       1  LIG1        0.0639
     24 H          -5.2817    8.5518    0.0002 H       1  LIG1        0.0640
     25 C          -3.4324   10.8766    0.0009 C.ar    1  LIG1        0.2193
     26 N          -2.3714   11.7290    0.0008 N.ar    1  LIG1       -0.1243
     27 C          -4.0026   13.5112    0.0003 C.ar    1  LIG1        0.1605
     28 N          -4.7511   11.2142    0.0008 N.ar    1  LIG1       -0.1243
     29 N          -2.6739   13.0442    0.0005 N.ar    1  LIG1       -0.1338
     30 N          -5.0193   12.5368    0.0004 N.ar    1  LIG1       -0.1338
     31 H          -4.2775   14.7818   -0.0000 H       1  LIG1        0.1085
@<TRIPOS>BOND
     1    14    13    1
     2    10    15    1
     3    10     9   ar
     4    10    11   ar
     5     5     4   ar
     6     5     1   ar
     7     4     9    1
     8     4     3   ar
     9     9    13   ar
    10    31    27    1
    11     1     2   ar
    12     1     6    1
    13     8     3    1
    14     2     3   ar
    15     2     7    1
    16    13    12   ar
    17    12    17    1
    18    12    11   ar
    19    24    19    1
    20    27    30   ar
    21    27    29   ar
    22    30    28   ar
    23    29    26   ar
    24    21    17   ar
    25    21    22    1
    26    21    20   ar
    27    17    18   ar
    28    28    25   ar
    29    26    25   ar
    30    19    20   ar
    31    19    18   ar
    32    11    16    1
    33    25    20    1
    34    23    18    1
