@<TRIPOS>MOLECULE
mol_data/noopt/geoms/mol2/1213-13-4.out
 35 38 0 0 0
SMALL
GASTEIGER

@<TRIPOS>ATOM
      1 C           0.1763    1.8460    0.0000 C.ar    1  LIG1        0.0926
      2 C           1.5558    1.8460    0.0000 C.ar    1  LIG1       -0.0233
      3 C           1.9706    3.2334    0.0000 C.ar    1  LIG1       -0.0144
      4 C           0.8165    3.9895   -0.0001 C.ar    1  LIG1        0.1509
      5 O          -0.3030    3.1567   -0.0002 O.2     1  LIG1       -0.4615
      6 H          -0.7504    0.9343    0.0000 H       1  LIG1        0.1029
      7 H           2.3515    0.8179    0.0001 H       1  LIG1        0.0649
      8 H           3.1998    3.6567    0.0000 H       1  LIG1        0.0656
      9 C           0.5416    5.2601   -0.0001 C.ar    1  LIG1        0.0826
     10 C          -0.6560    5.9034    0.0004 C.ar    1  LIG1       -0.0328
     11 C          -0.3860    7.3097   -0.0010 C.ar    1  LIG1       -0.0343
     12 C           0.9646    7.4640   -0.0005 C.ar    1  LIG1        0.0634
     13 N           1.5364    6.2117   -0.0004 N.ar    1  LIG1       -0.3506
     14 H           2.5126    6.0243   -0.0000 H       1  LIG1        0.1660
     15 H          -1.8284    5.3418    0.0005 H       1  LIG1        0.0640
     16 H          -1.2672    8.2655   -0.0020 H       1  LIG1        0.0639
     17 C           1.6904    8.5425   -0.0012 C.ar    1  LIG1        0.0633
     18 C           1.3246    9.8518   -0.0011 C.ar    1  LIG1       -0.0344
     19 C           2.5258   10.6314   -0.0032 C.ar    1  LIG1       -0.0358
     20 C           3.5728    9.7643   -0.0027 C.ar    1  LIG1        0.0469
     21 N           3.0658    8.4844   -0.0019 N.ar    1  LIG1       -0.3530
     22 H           3.6070    7.6506   -0.0013 H       1  LIG1        0.1659
     23 H           0.1074   10.3082   -0.0009 H       1  LIG1        0.0639
     24 H           2.6046   11.9290   -0.0048 H       1  LIG1        0.0639
     25 C           5.7557    8.9048   -0.0037 C.ar    1  LIG1       -0.0526
     26 C           7.1328    9.1998   -0.0034 C.ar    1  LIG1       -0.0611
     27 C           4.8533    9.9880   -0.0038 C.ar    1  LIG1       -0.0017
     28 C           7.5932   10.5146   -0.0038 C.ar    1  LIG1       -0.0617
     29 H           7.8464    8.3789   -0.0031 H       1  LIG1        0.0618
     30 C           5.3125   11.3008   -0.0043 C.ar    1  LIG1       -0.0526
     31 C           6.6844   11.5735   -0.0044 C.ar    1  LIG1       -0.0611
     32 H           4.5967   12.1189   -0.0043 H       1  LIG1        0.0624
     33 H           8.8716   10.7507   -0.0037 H       1  LIG1        0.0618
     34 H           5.3870    7.6582   -0.0035 H       1  LIG1        0.0624
     35 H           7.1078   12.8026   -0.0047 H       1  LIG1        0.0618
@<TRIPOS>BOND
     1    24    19    1
     2    35    31    1
     3    31    30   ar
     4    31    28   ar
     5    32    30    1
     6    30    27   ar
     7    28    33    1
     8    28    26   ar
     9    27    25   ar
    10    27    20    1
    11    25    34    1
    12    25    26   ar
    13    26    29    1
    14    19    20   ar
    15    19    18   ar
    16    20    21   ar
    17    16    11    1
    18    21    22    1
    19    21    17   ar
    20    17    18   ar
    21    17    12    1
    22    18    23    1
    23    11    12   ar
    24    11    10   ar
    25    12    13   ar
    26    13     9   ar
    27    13    14    1
    28     5     4   ar
    29     5     1   ar
    30     9     4    1
    31     9    10   ar
    32     4     3   ar
    33     1     6    1
    34     1     2   ar
    35     8     3    1
    36     3     2   ar
    37     2     7    1
    38    10    15    1
