@<TRIPOS>MOLECULE
mol_data/noopt/geoms/mol2/1213-4-5.out
 34 37 0 0 0
SMALL
GASTEIGER

@<TRIPOS>ATOM
      1 C           0.1763    1.8460    0.0000 C.ar    1  LIG1        0.0926
      2 C           1.5558    1.8460    0.0000 C.ar    1  LIG1       -0.0233
      3 C           1.9706    3.2334    0.0000 C.ar    1  LIG1       -0.0144
      4 C           0.8165    3.9895   -0.0001 C.ar    1  LIG1        0.1509
      5 O          -0.3030    3.1567   -0.0002 O.2     1  LIG1       -0.4615
      6 H          -0.7504    0.9343    0.0000 H       1  LIG1        0.1029
      7 H           2.3515    0.8179    0.0001 H       1  LIG1        0.0649
      8 H           3.1998    3.6567    0.0000 H       1  LIG1        0.0656
      9 C           0.5416    5.2601   -0.0001 C.ar    1  LIG1        0.0825
     10 C          -0.6560    5.9034    0.0004 C.ar    1  LIG1       -0.0328
     11 C          -0.3860    7.3097   -0.0010 C.ar    1  LIG1       -0.0357
     12 C           0.9646    7.4640   -0.0005 C.ar    1  LIG1        0.0470
     13 N           1.5364    6.2117   -0.0004 N.ar    1  LIG1       -0.3518
     14 H           2.5126    6.0243   -0.0000 H       1  LIG1        0.1660
     15 H          -1.8284    5.3418    0.0005 H       1  LIG1        0.0640
     16 H          -1.2672    8.2655   -0.0020 H       1  LIG1        0.0639
     17 C           1.0684    9.8077   -0.0023 C.ar    1  LIG1       -0.0520
     18 C           1.8987   10.9453   -0.0045 C.ar    1  LIG1       -0.0529
     19 C           1.6904    8.5424   -0.0012 C.ar    1  LIG1       -0.0017
     20 C           3.2870   10.8305   -0.0050 C.ar    1  LIG1       -0.0113
     21 H           1.4395   11.9314   -0.0056 H       1  LIG1        0.0624
     22 C           3.0763    8.4273   -0.0017 C.ar    1  LIG1       -0.0520
     23 C           3.8840    9.5693   -0.0035 C.ar    1  LIG1       -0.0529
     24 H           3.5321    7.4404   -0.0009 H       1  LIG1        0.0624
     25 H          -0.2203    9.9786   -0.0017 H       1  LIG1        0.0624
     26 H           5.1790    9.4554   -0.0041 H       1  LIG1        0.0624
     27 C           4.0232   11.9019   -0.0070 C.ar    1  LIG1        0.0193
     28 C           5.4001   11.9303   -0.0086 C.ar    1  LIG1       -0.0469
     29 C           5.8979   13.2732   -0.0113 C.ar    1  LIG1       -0.0541
     30 C           4.8723   14.1922   -0.0109 C.ar    1  LIG1       -0.0237
     31 S           3.3768   13.4441   -0.0080 S.2     1  LIG1       -0.0967
     32 H           5.0121   15.4847   -0.0124 H       1  LIG1        0.0693
     33 H           6.1741   10.8859   -0.0080 H       1  LIG1        0.0629
     34 H           7.1657   13.5608   -0.0139 H       1  LIG1        0.0623
@<TRIPOS>BOND
     1    34    29    1
     2    32    30    1
     3    29    30   ar
     4    29    28   ar
     5    30    31   ar
     6    28    33    1
     7    28    27   ar
     8    31    27   ar
     9    27    20    1
    10    21    18    1
    11    20    18   ar
    12    20    23   ar
    13    18    17   ar
    14    26    23    1
    15    23    22   ar
    16    17    25    1
    17    17    19   ar
    18    16    11    1
    19    22    19   ar
    20    22    24    1
    21    19    12    1
    22    11    12   ar
    23    11    10   ar
    24    12    13   ar
    25    13     9   ar
    26    13    14    1
    27     5     4   ar
    28     5     1   ar
    29     9     4    1
    30     9    10   ar
    31     4     3   ar
    32     1     6    1
    33     1     2   ar
    34     8     3    1
    35     3     2   ar
    36     2     7    1
    37    10    15    1
