@<TRIPOS>MOLECULE
mol_data/noopt/geoms/mol2/1213-13.out
 25 27 0 0 0
SMALL
GASTEIGER

@<TRIPOS>ATOM
      1 C           0.1763    1.8460    0.0000 C.ar    1  LIG1        0.0926
      2 C           1.5558    1.8460    0.0000 C.ar    1  LIG1       -0.0233
      3 C           1.9706    3.2334    0.0000 C.ar    1  LIG1       -0.0144
      4 C           0.8165    3.9895   -0.0001 C.ar    1  LIG1        0.1509
      5 O          -0.3030    3.1567   -0.0002 O.2     1  LIG1       -0.4615
      6 H          -0.7504    0.9343    0.0000 H       1  LIG1        0.1029
      7 H           2.3515    0.8179    0.0001 H       1  LIG1        0.0649
      8 H           3.1998    3.6567    0.0000 H       1  LIG1        0.0656
      9 C           0.5416    5.2601   -0.0001 C.ar    1  LIG1        0.0826
     10 C          -0.6560    5.9034    0.0004 C.ar    1  LIG1       -0.0328
     11 C          -0.3860    7.3097   -0.0010 C.ar    1  LIG1       -0.0343
     12 C           0.9646    7.4640   -0.0005 C.ar    1  LIG1        0.0634
     13 N           1.5364    6.2117   -0.0004 N.ar    1  LIG1       -0.3506
     14 H           2.5126    6.0243   -0.0000 H       1  LIG1        0.1660
     15 H          -1.8284    5.3418    0.0005 H       1  LIG1        0.0640
     16 H          -1.2672    8.2655   -0.0020 H       1  LIG1        0.0639
     17 C           1.6904    8.5425   -0.0012 C.ar    1  LIG1        0.0629
     18 C           3.0411    8.6966   -0.0020 C.ar    1  LIG1       -0.0350
     19 C           3.3110   10.1029   -0.0014 C.ar    1  LIG1       -0.0438
     20 C           2.1135   10.7464   -0.0020 C.ar    1  LIG1        0.0022
     21 N           1.1187    9.7948   -0.0014 N.ar    1  LIG1       -0.3595
     22 H           0.1425    9.9822   -0.0017 H       1  LIG1        0.1654
     23 H           1.8386   12.0170   -0.0019 H       1  LIG1        0.0807
     24 H           3.9222    7.7408   -0.0018 H       1  LIG1        0.0639
     25 H           4.4835   10.6645   -0.0008 H       1  LIG1        0.0633
@<TRIPOS>BOND
     1    16    11    1
     2    18    24    1
     3    18    19   ar
     4    18    17   ar
     5    20    23    1
     6    20    21   ar
     7    20    19   ar
     8    22    21    1
     9    21    17   ar
    10    19    25    1
    11    17    12    1
    12    11    12   ar
    13    11    10   ar
    14    12    13   ar
    15    13     9   ar
    16    13    14    1
    17     5     4   ar
    18     5     1   ar
    19     9     4    1
    20     9    10   ar
    21     4     3   ar
    22     1     6    1
    23     1     2   ar
    24     8     3    1
    25     3     2   ar
    26     2     7    1
    27    10    15    1
