@<TRIPOS>MOLECULE
mol_data/noopt/geoms/mol2/1213-8.out
 23 25 0 0 0
SMALL
GASTEIGER

@<TRIPOS>ATOM
      1 C           0.1763    1.8460    0.0000 C.ar    1  LIG1        0.0926
      2 C           1.5558    1.8460    0.0000 C.ar    1  LIG1       -0.0233
      3 C           1.9706    3.2334    0.0000 C.ar    1  LIG1       -0.0144
      4 C           0.8165    3.9895   -0.0001 C.ar    1  LIG1        0.1509
      5 O          -0.3030    3.1567   -0.0002 O.2     1  LIG1       -0.4615
      6 H          -0.7504    0.9343    0.0000 H       1  LIG1        0.1029
      7 H           2.3515    0.8179    0.0001 H       1  LIG1        0.0649
      8 H           3.1998    3.6567    0.0000 H       1  LIG1        0.0656
      9 C           0.5416    5.2601   -0.0001 C.ar    1  LIG1        0.0826
     10 C          -0.6560    5.9034    0.0004 C.ar    1  LIG1       -0.0327
     11 C          -0.3860    7.3097   -0.0010 C.ar    1  LIG1       -0.0325
     12 C           0.9646    7.4640   -0.0005 C.ar    1  LIG1        0.0880
     13 N           1.5364    6.2117   -0.0004 N.ar    1  LIG1       -0.3492
     14 H           2.5126    6.0243   -0.0000 H       1  LIG1        0.1661
     15 H          -1.8284    5.3418    0.0005 H       1  LIG1        0.0640
     16 H          -1.2672    8.2655   -0.0020 H       1  LIG1        0.0640
     17 C           1.6904    8.5425   -0.0012 C.ar    1  LIG1        0.2193
     18 N           3.0403    8.3679   -0.0015 N.ar    1  LIG1       -0.1243
     19 C           3.1954   10.7789   -0.0026 C.ar    1  LIG1        0.1605
     20 N           1.0204    9.7273   -0.0015 N.ar    1  LIG1       -0.1243
     21 N           3.7791    9.4972   -0.0022 N.ar    1  LIG1       -0.1338
     22 N           1.7883   10.8370   -0.0023 N.ar    1  LIG1       -0.1338
     23 H           3.9213   11.8574   -0.0033 H       1  LIG1        0.1085
@<TRIPOS>BOND
     1    23    19    1
     2    19    22   ar
     3    19    21   ar
     4    22    20   ar
     5    21    18   ar
     6    16    11    1
     7    20    17   ar
     8    18    17   ar
     9    17    12    1
    10    11    12   ar
    11    11    10   ar
    12    12    13   ar
    13    13     9   ar
    14    13    14    1
    15     5     4   ar
    16     5     1   ar
    17     9     4    1
    18     9    10   ar
    19     4     3   ar
    20     1     6    1
    21     1     2   ar
    22     8     3    1
    23     3     2   ar
    24     2     7    1
    25    10    15    1
