@<TRIPOS>MOLECULE
mol_data/noopt/geoms/mol2/1213-134-.out
 35 38 0 0 0
SMALL
GASTEIGER

@<TRIPOS>ATOM
      1 C           0.1763    1.8460    0.0000 C.ar    1  LIG1        0.0926
      2 C           1.5558    1.8460    0.0000 C.ar    1  LIG1       -0.0233
      3 C           1.9706    3.2334    0.0000 C.ar    1  LIG1       -0.0144
      4 C           0.8165    3.9895   -0.0001 C.ar    1  LIG1        0.1509
      5 O          -0.3030    3.1567   -0.0002 O.2     1  LIG1       -0.4615
      6 H          -0.7504    0.9343    0.0000 H       1  LIG1        0.1029
      7 H           2.3515    0.8179    0.0001 H       1  LIG1        0.0649
      8 H           3.1998    3.6567    0.0000 H       1  LIG1        0.0656
      9 C           0.5416    5.2601   -0.0001 C.ar    1  LIG1        0.0826
     10 C          -0.6560    5.9034    0.0004 C.ar    1  LIG1       -0.0328
     11 C          -0.3860    7.3097   -0.0010 C.ar    1  LIG1       -0.0343
     12 C           0.9646    7.4640   -0.0005 C.ar    1  LIG1        0.0634
     13 N           1.5364    6.2117   -0.0004 N.ar    1  LIG1       -0.3506
     14 H           2.5126    6.0243   -0.0000 H       1  LIG1        0.1660
     15 H          -1.8284    5.3418    0.0005 H       1  LIG1        0.0640
     16 H          -1.2672    8.2655   -0.0020 H       1  LIG1        0.0639
     17 C           1.6904    8.5425   -0.0012 C.ar    1  LIG1        0.0633
     18 C           3.0411    8.6966   -0.0020 C.ar    1  LIG1       -0.0344
     19 C           3.3110   10.1029   -0.0014 C.ar    1  LIG1       -0.0358
     20 C           2.1135   10.7464   -0.0020 C.ar    1  LIG1        0.0469
     21 N           1.1187    9.7948   -0.0014 N.ar    1  LIG1       -0.3530
     22 H           0.1425    9.9822   -0.0017 H       1  LIG1        0.1659
     23 H           3.9222    7.7408   -0.0018 H       1  LIG1        0.0639
     24 H           4.4835   10.6645   -0.0008 H       1  LIG1        0.0639
     25 C           0.4953   12.4450   -0.0026 C.ar    1  LIG1       -0.0526
     26 C           0.2501   13.8318   -0.0040 C.ar    1  LIG1       -0.0611
     27 C           1.8386   12.0169   -0.0019 C.ar    1  LIG1       -0.0017
     28 C           1.2947   14.7534   -0.0041 C.ar    1  LIG1       -0.0617
     29 H          -0.7791   14.1838   -0.0048 H       1  LIG1        0.0618
     30 C           2.8819   12.9366   -0.0020 C.ar    1  LIG1       -0.0526
     31 C           2.6179   14.3102   -0.0030 C.ar    1  LIG1       -0.0611
     32 H           3.9093   12.5815   -0.0015 H       1  LIG1        0.0624
     33 H           1.0322   16.0266   -0.0053 H       1  LIG1        0.0618
     34 H          -0.5207   11.6340   -0.0023 H       1  LIG1        0.0624
     35 H           3.5972   15.1652   -0.0032 H       1  LIG1        0.0618
@<TRIPOS>BOND
     1    33    28    1
     2    29    26    1
     3    28    26   ar
     4    28    31   ar
     5    26    25   ar
     6    35    31    1
     7    31    30   ar
     8    25    34    1
     9    25    27   ar
    10    16    11    1
    11    18    23    1
    12    18    19   ar
    13    18    17   ar
    14    30    27   ar
    15    30    32    1
    16    20    27    1
    17    20    21   ar
    18    20    19   ar
    19    22    21    1
    20    21    17   ar
    21    19    24    1
    22    17    12    1
    23    11    12   ar
    24    11    10   ar
    25    12    13   ar
    26    13     9   ar
    27    13    14    1
    28     5     4   ar
    29     5     1   ar
    30     9     4    1
    31     9    10   ar
    32     4     3   ar
    33     1     6    1
    34     1     2   ar
    35     8     3    1
    36     3     2   ar
    37     2     7    1
    38    10    15    1
