@<TRIPOS>MOLECULE
mol_data/noopt/geoms/mol2/1213-13-5.out
 32 35 0 0 0
SMALL
GASTEIGER

@<TRIPOS>ATOM
      1 C           0.1763    1.8460    0.0000 C.ar    1  LIG1        0.0926
      2 C           1.5558    1.8460    0.0000 C.ar    1  LIG1       -0.0233
      3 C           1.9706    3.2334    0.0000 C.ar    1  LIG1       -0.0144
      4 C           0.8165    3.9895   -0.0001 C.ar    1  LIG1        0.1509
      5 O          -0.3030    3.1567   -0.0002 O.2     1  LIG1       -0.4615
      6 H          -0.7504    0.9343    0.0000 H       1  LIG1        0.1029
      7 H           2.3515    0.8179    0.0001 H       1  LIG1        0.0649
      8 H           3.1998    3.6567    0.0000 H       1  LIG1        0.0656
      9 C           0.5416    5.2601   -0.0001 C.ar    1  LIG1        0.0826
     10 C          -0.6560    5.9034    0.0004 C.ar    1  LIG1       -0.0328
     11 C          -0.3860    7.3097   -0.0010 C.ar    1  LIG1       -0.0343
     12 C           0.9646    7.4640   -0.0005 C.ar    1  LIG1        0.0634
     13 N           1.5364    6.2117   -0.0004 N.ar    1  LIG1       -0.3506
     14 H           2.5126    6.0243   -0.0000 H       1  LIG1        0.1660
     15 H          -1.8284    5.3418    0.0005 H       1  LIG1        0.0640
     16 H          -1.2672    8.2655   -0.0020 H       1  LIG1        0.0639
     17 C           1.6904    8.5425   -0.0012 C.ar    1  LIG1        0.0633
     18 C           1.3246    9.8518   -0.0011 C.ar    1  LIG1       -0.0344
     19 C           2.5258   10.6314   -0.0032 C.ar    1  LIG1       -0.0353
     20 C           3.5728    9.7643   -0.0027 C.ar    1  LIG1        0.0536
     21 N           3.0658    8.4844   -0.0019 N.ar    1  LIG1       -0.3526
     22 H           3.6070    7.6506   -0.0013 H       1  LIG1        0.1660
     23 H           0.1074   10.3082   -0.0009 H       1  LIG1        0.0639
     24 H           2.6046   11.9290   -0.0048 H       1  LIG1        0.0639
     25 C           4.8534    9.9881   -0.0038 C.ar    1  LIG1        0.0355
     26 C           5.8372    9.0243   -0.0049 C.ar    1  LIG1       -0.0455
     27 C           7.1448    9.6083   -0.0067 C.ar    1  LIG1       -0.0541
     28 C           7.0837   10.9842   -0.0062 C.ar    1  LIG1       -0.0237
     29 S           5.5027   11.5290   -0.0042 S.2     1  LIG1       -0.0952
     30 H           8.1048   11.7887   -0.0069 H       1  LIG1        0.0693
     31 H           5.6327    7.7405   -0.0045 H       1  LIG1        0.0629
     32 H           8.2374    8.9039   -0.0087 H       1  LIG1        0.0623
@<TRIPOS>BOND
     1    32    27    1
     2    30    28    1
     3    27    28   ar
     4    27    26   ar
     5    28    29   ar
     6    26    31    1
     7    26    25   ar
     8    24    19    1
     9    29    25   ar
    10    25    20    1
    11    19    20   ar
    12    19    18   ar
    13    20    21   ar
    14    16    11    1
    15    21    22    1
    16    21    17   ar
    17    17    18   ar
    18    17    12    1
    19    18    23    1
    20    11    12   ar
    21    11    10   ar
    22    12    13   ar
    23    13     9   ar
    24    13    14    1
    25     5     4   ar
    26     5     1   ar
    27     9     4    1
    28     9    10   ar
    29     4     3   ar
    30     1     2   ar
    31     1     6    1
    32     2     3   ar
    33     2     7    1
    34     8     3    1
    35    10    15    1
