@<TRIPOS>MOLECULE
mol_data/noopt/geoms/mol2/1213-12.out
 24 26 0 0 0
SMALL
GASTEIGER

@<TRIPOS>ATOM
      1 C           0.1763    1.8460    0.0000 C.ar    1  LIG1        0.0926
      2 C           1.5558    1.8460    0.0000 C.ar    1  LIG1       -0.0233
      3 C           1.9706    3.2334    0.0000 C.ar    1  LIG1       -0.0144
      4 C           0.8165    3.9895   -0.0001 C.ar    1  LIG1        0.1509
      5 O          -0.3030    3.1567   -0.0002 O.2     1  LIG1       -0.4615
      6 H          -0.7504    0.9343    0.0000 H       1  LIG1        0.1029
      7 H           2.3515    0.8179    0.0001 H       1  LIG1        0.0649
      8 H           3.1998    3.6567    0.0000 H       1  LIG1        0.0656
      9 C           0.5416    5.2601   -0.0001 C.ar    1  LIG1        0.0826
     10 C          -0.6560    5.9034    0.0004 C.ar    1  LIG1       -0.0327
     11 C          -0.3860    7.3097   -0.0010 C.ar    1  LIG1       -0.0327
     12 C           0.9646    7.4640   -0.0005 C.ar    1  LIG1        0.0826
     13 N           1.5364    6.2117   -0.0004 N.ar    1  LIG1       -0.3494
     14 H           2.5126    6.0243   -0.0000 H       1  LIG1        0.1661
     15 H          -1.8284    5.3418    0.0005 H       1  LIG1        0.0640
     16 H          -1.2672    8.2655   -0.0020 H       1  LIG1        0.0640
     17 C           1.6904    8.5425   -0.0012 C.ar    1  LIG1        0.1509
     18 C           3.0421    8.8182   -0.0017 C.ar    1  LIG1       -0.0144
     19 C           3.1713   10.2605   -0.0024 C.ar    1  LIG1       -0.0233
     20 C           1.8894   10.7707   -0.0023 C.ar    1  LIG1        0.0926
     21 O           0.9589    9.7310   -0.0017 O.2     1  LIG1       -0.4615
     22 H           1.3661   11.9607   -0.0027 H       1  LIG1        0.1029
     23 H           4.0272    7.9698   -0.0015 H       1  LIG1        0.0656
     24 H           4.2911   10.9208   -0.0030 H       1  LIG1        0.0649
@<TRIPOS>BOND
     1    24    19    1
     2    22    20    1
     3    19    20   ar
     4    19    18   ar
     5    20    21   ar
     6    16    11    1
     7    18    23    1
     8    18    17   ar
     9    21    17   ar
    10    17    12    1
    11    11    12   ar
    12    11    10   ar
    13    12    13   ar
    14    13     9   ar
    15    13    14    1
    16     5     4   ar
    17     5     1   ar
    18     9     4    1
    19     9    10   ar
    20     4     3   ar
    21     1     6    1
    22     1     2   ar
    23     8     3    1
    24     3     2   ar
    25     2     7    1
    26    10    15    1
