@<TRIPOS>MOLECULE
mol_data/noopt/geoms/mol2/1213-48-.out
 33 36 0 0 0
SMALL
GASTEIGER

@<TRIPOS>ATOM
      1 C           0.1763    1.8460    0.0000 C.ar    1  LIG1        0.0926
      2 C           1.5558    1.8460    0.0000 C.ar    1  LIG1       -0.0233
      3 C           1.9706    3.2334    0.0000 C.ar    1  LIG1       -0.0144
      4 C           0.8165    3.9895   -0.0001 C.ar    1  LIG1        0.1509
      5 O          -0.3030    3.1567   -0.0002 O.2     1  LIG1       -0.4615
      6 H          -0.7504    0.9343    0.0000 H       1  LIG1        0.1029
      7 H           2.3515    0.8179    0.0001 H       1  LIG1        0.0649
      8 H           3.1998    3.6567    0.0000 H       1  LIG1        0.0656
      9 C           0.5416    5.2601   -0.0001 C.ar    1  LIG1        0.0825
     10 C          -0.6560    5.9034    0.0004 C.ar    1  LIG1       -0.0328
     11 C          -0.3860    7.3097   -0.0010 C.ar    1  LIG1       -0.0357
     12 C           0.9646    7.4640   -0.0005 C.ar    1  LIG1        0.0470
     13 N           1.5364    6.2117   -0.0004 N.ar    1  LIG1       -0.3518
     14 H           2.5126    6.0243   -0.0000 H       1  LIG1        0.1660
     15 H          -1.8284    5.3418    0.0005 H       1  LIG1        0.0640
     16 H          -1.2672    8.2655   -0.0020 H       1  LIG1        0.0639
     17 C           3.0968    8.4427   -0.0008 C.ar    1  LIG1       -0.0520
     18 C           3.8380    9.6401   -0.0000 C.ar    1  LIG1       -0.0503
     19 C           1.6904    8.5424   -0.0012 C.ar    1  LIG1       -0.0017
     20 C           3.2089   10.8831   -0.0002 C.ar    1  LIG1        0.0227
     21 H           4.9244    9.5860    0.0005 H       1  LIG1        0.0625
     22 C           1.0618    9.7830   -0.0014 C.ar    1  LIG1       -0.0520
     23 C           1.8157   10.9613   -0.0010 C.ar    1  LIG1       -0.0503
     24 H          -0.0240    9.8336   -0.0016 H       1  LIG1        0.0624
     25 H           3.7403    7.3131   -0.0008 H       1  LIG1        0.0624
     26 H           1.2226   12.1181   -0.0011 H       1  LIG1        0.0625
     27 C           3.9242   11.9686    0.0004 C.ar    1  LIG1        0.2033
     28 N           3.2428   13.1468    0.0007 N.ar    1  LIG1       -0.1258
     29 C           5.4076   14.2194    0.0017 C.ar    1  LIG1        0.1605
     30 N           5.2758   11.8070    0.0007 N.ar    1  LIG1       -0.1258
     31 N           3.9999   14.2638    0.0013 N.ar    1  LIG1       -0.1339
     32 N           6.0036   12.9434    0.0014 N.ar    1  LIG1       -0.1339
     33 H           6.1229   15.3049    0.0023 H       1  LIG1        0.1085
@<TRIPOS>BOND
     1    16    11    1
     2    24    22    1
     3    22    19   ar
     4    22    23   ar
     5    19    17   ar
     6    19    12    1
     7    26    23    1
     8    23    20   ar
     9    11    12   ar
    10    11    10   ar
    11    25    17    1
    12    17    18   ar
    13    12    13   ar
    14    13     9   ar
    15    13    14    1
    16    20    18   ar
    17    20    27    1
    18     5     4   ar
    19     5     1   ar
    20     9     4    1
    21     9    10   ar
    22     4     3   ar
    23    18    21    1
    24     1     6    1
    25     1     2   ar
    26     8     3    1
    27     3     2   ar
    28     2     7    1
    29    27    28   ar
    30    27    30   ar
    31    10    15    1
    32    28    31   ar
    33    30    32   ar
    34    31    29   ar
    35    32    29   ar
    36    29    33    1
