@<TRIPOS>MOLECULE
mol_data/noopt/geoms/mol2/1213-125-.out
 31 34 0 0 0
SMALL
GASTEIGER

@<TRIPOS>ATOM
      1 C           0.1763    1.8460    0.0000 C.ar    1  LIG1        0.0926
      2 C           1.5558    1.8460    0.0000 C.ar    1  LIG1       -0.0233
      3 C           1.9706    3.2334    0.0000 C.ar    1  LIG1       -0.0144
      4 C           0.8165    3.9895   -0.0001 C.ar    1  LIG1        0.1509
      5 O          -0.3030    3.1567   -0.0002 O.2     1  LIG1       -0.4615
      6 H          -0.7504    0.9343    0.0000 H       1  LIG1        0.1029
      7 H           2.3515    0.8179    0.0001 H       1  LIG1        0.0649
      8 H           3.1998    3.6567    0.0000 H       1  LIG1        0.0656
      9 C           0.5416    5.2601   -0.0001 C.ar    1  LIG1        0.0826
     10 C          -0.6560    5.9034    0.0004 C.ar    1  LIG1       -0.0327
     11 C          -0.3860    7.3097   -0.0010 C.ar    1  LIG1       -0.0327
     12 C           0.9646    7.4640   -0.0005 C.ar    1  LIG1        0.0826
     13 N           1.5364    6.2117   -0.0004 N.ar    1  LIG1       -0.3494
     14 H           2.5126    6.0243   -0.0000 H       1  LIG1        0.1661
     15 H          -1.8284    5.3418    0.0005 H       1  LIG1        0.0640
     16 H          -1.2672    8.2655   -0.0020 H       1  LIG1        0.0640
     17 C           1.6904    8.5425   -0.0012 C.ar    1  LIG1        0.1518
     18 C           3.0421    8.8182   -0.0017 C.ar    1  LIG1       -0.0138
     19 C           3.1713   10.2605   -0.0024 C.ar    1  LIG1       -0.0147
     20 C           1.8894   10.7707   -0.0023 C.ar    1  LIG1        0.1423
     21 O           0.9589    9.7310   -0.0017 O.2     1  LIG1       -0.4528
     22 H           4.0272    7.9698   -0.0015 H       1  LIG1        0.0656
     23 H           4.2911   10.9208   -0.0030 H       1  LIG1        0.0656
     24 C           1.3661   11.9607   -0.0027 C.ar    1  LIG1        0.0544
     25 C           0.0187   12.2457   -0.0028 C.ar    1  LIG1       -0.0440
     26 C          -0.2196   13.6579   -0.0024 C.ar    1  LIG1       -0.0540
     27 C           0.9596   14.3693   -0.0029 C.ar    1  LIG1       -0.0236
     28 S           2.2891   13.3551   -0.0030 S.2     1  LIG1       -0.0936
     29 H           1.0635   15.6651   -0.0033 H       1  LIG1        0.0693
     30 H          -0.9367   11.3641   -0.0029 H       1  LIG1        0.0630
     31 H          -1.4114   14.1772   -0.0017 H       1  LIG1        0.0623
@<TRIPOS>BOND
     1    29    27    1
     2    28    27   ar
     3    28    24   ar
     4    23    19    1
     5    30    25    1
     6    27    26   ar
     7    25    24   ar
     8    25    26   ar
     9    24    20    1
    10    26    31    1
    11    19    20   ar
    12    19    18   ar
    13    20    21   ar
    14    16    11    1
    15    18    22    1
    16    18    17   ar
    17    21    17   ar
    18    17    12    1
    19    11    12   ar
    20    11    10   ar
    21    12    13   ar
    22    13     9   ar
    23    13    14    1
    24     5     4   ar
    25     5     1   ar
    26     9     4    1
    27     9    10   ar
    28     4     3   ar
    29     8     3    1
    30     6     1    1
    31     3     2   ar
    32     2     1   ar
    33     2     7    1
    34    10    15    1
