@<TRIPOS>MOLECULE
mol_data/noopt/geoms/mol2/12135-.out
 24 26 0 0 0
SMALL
GASTEIGER

@<TRIPOS>ATOM
      1 C           0.1763    1.8460    0.0000 C.ar    1  LIG1        0.0926
      2 C           1.5558    1.8460    0.0000 C.ar    1  LIG1       -0.0233
      3 C           1.9706    3.2334    0.0000 C.ar    1  LIG1       -0.0144
      4 C           0.8165    3.9895   -0.0001 C.ar    1  LIG1        0.1509
      5 O          -0.3030    3.1567   -0.0002 O.2     1  LIG1       -0.4615
      6 H          -0.7504    0.9343    0.0000 H       1  LIG1        0.1029
      7 H           2.3515    0.8179    0.0001 H       1  LIG1        0.0649
      8 H           3.1998    3.6567    0.0000 H       1  LIG1        0.0656
      9 C           0.5416    5.2601   -0.0001 C.ar    1  LIG1        0.0825
     10 C           1.3662    6.3409   -0.0005 C.ar    1  LIG1       -0.0328
     11 C           0.5391    7.5098    0.0008 C.ar    1  LIG1       -0.0352
     12 C          -0.7546    7.0920    0.0002 C.ar    1  LIG1        0.0536
     13 N          -0.7576    5.7154    0.0001 N.ar    1  LIG1       -0.3514
     14 H          -1.5690    5.1412   -0.0005 H       1  LIG1        0.1660
     15 H           2.6659    6.3141   -0.0004 H       1  LIG1        0.0640
     16 H           0.9463    8.7444    0.0020 H       1  LIG1        0.0639
     17 C          -1.8613    7.7741    0.0007 C.ar    1  LIG1        0.0355
     18 C          -3.1320    7.2431    0.0012 C.ar    1  LIG1       -0.0455
     19 C          -4.1305    8.2698    0.0025 C.ar    1  LIG1       -0.0541
     20 C          -3.5642    9.5252    0.0022 C.ar    1  LIG1       -0.0237
     21 S          -1.8939    9.4459    0.0010 S.2     1  LIG1       -0.0952
     22 H          -4.2149   10.6506    0.0025 H       1  LIG1        0.0693
     23 H          -3.4174    5.9748    0.0008 H       1  LIG1        0.0629
     24 H          -5.4062    8.0200    0.0039 H       1  LIG1        0.0623
@<TRIPOS>BOND
     1    14    13    1
     2    10    15    1
     3    10     9   ar
     4    10    11   ar
     5     5     4   ar
     6     5     1   ar
     7     4     9    1
     8     4     3   ar
     9     9    13   ar
    10     2     3   ar
    11     2     1   ar
    12     2     7    1
    13     3     8    1
    14     6     1    1
    15    13    12   ar
    16    12    17    1
    17    12    11   ar
    18    17    21   ar
    19    17    18   ar
    20    23    18    1
    21    11    16    1
    22    21    20   ar
    23    18    19   ar
    24    20    22    1
    25    20    19   ar
    26    19    24    1
