@<TRIPOS>MOLECULE
mol_data/noopt/geoms/mol2/124-.out
 19 20 0 0 0
SMALL
GASTEIGER

@<TRIPOS>ATOM
      1 C           0.1763    1.8460    0.0000 C.ar    1  LIG1        0.0926
      2 C           1.5558    1.8460    0.0000 C.ar    1  LIG1       -0.0233
      3 C           1.9706    3.2334    0.0000 C.ar    1  LIG1       -0.0159
      4 C           0.8165    3.9895   -0.0001 C.ar    1  LIG1        0.1348
      5 O          -0.3030    3.1567   -0.0002 O.2     1  LIG1       -0.4629
      6 H          -0.7504    0.9343    0.0000 H       1  LIG1        0.1029
      7 H           2.3515    0.8179    0.0001 H       1  LIG1        0.0649
      8 H           3.1998    3.6567    0.0000 H       1  LIG1        0.0655
      9 C          -0.8017    5.6881   -0.0008 C.ar    1  LIG1       -0.0511
     10 C          -1.0469    7.0749   -0.0024 C.ar    1  LIG1       -0.0611
     11 C           0.5416    5.2600   -0.0001 C.ar    1  LIG1        0.0172
     12 C          -0.0023    7.9965   -0.0025 C.ar    1  LIG1       -0.0617
     13 H          -2.0761    7.4269   -0.0032 H       1  LIG1        0.0618
     14 C           1.5848    6.1797   -0.0002 C.ar    1  LIG1       -0.0511
     15 C           1.3209    7.5533   -0.0013 C.ar    1  LIG1       -0.0611
     16 H           2.6122    5.8246    0.0003 H       1  LIG1        0.0625
     17 H          -0.2649    9.2698   -0.0038 H       1  LIG1        0.0618
     18 H          -1.8177    4.8771   -0.0005 H       1  LIG1        0.0625
     19 H           2.3001    8.4083   -0.0016 H       1  LIG1        0.0618
@<TRIPOS>BOND
     1    17    12    1
     2    13    10    1
     3    12    10   ar
     4    12    15   ar
     5    10     9   ar
     6    19    15    1
     7    15    14   ar
     8     9    18    1
     9     9    11   ar
    10    14    11   ar
    11    14    16    1
    12     5     4   ar
    13     5     1   ar
    14    11     4    1
    15     4     3   ar
    16     6     1    1
    17     8     3    1
    18     3     2   ar
    19     2     1   ar
    20     2     7    1
