@<TRIPOS>MOLECULE
mol_data/noopt/geoms/mol2/124-13.out
 27 29 0 0 0
SMALL
GASTEIGER

@<TRIPOS>ATOM
      1 C           0.1763    1.8460    0.0000 C.ar    1  LIG1        0.0926
      2 C           1.5558    1.8460    0.0000 C.ar    1  LIG1       -0.0233
      3 C           1.9706    3.2334    0.0000 C.ar    1  LIG1       -0.0159
      4 C           0.8165    3.9895   -0.0001 C.ar    1  LIG1        0.1348
      5 O          -0.3030    3.1567   -0.0002 O.2     1  LIG1       -0.4629
      6 H          -0.7504    0.9343    0.0000 H       1  LIG1        0.1029
      7 H           2.3515    0.8179    0.0001 H       1  LIG1        0.0649
      8 H           3.1998    3.6567    0.0000 H       1  LIG1        0.0655
      9 C          -0.8017    5.6881   -0.0008 C.ar    1  LIG1       -0.0505
     10 C          -1.0469    7.0749   -0.0024 C.ar    1  LIG1       -0.0520
     11 C           0.5416    5.2600   -0.0001 C.ar    1  LIG1        0.0173
     12 C          -0.0023    7.9965   -0.0025 C.ar    1  LIG1       -0.0017
     13 H          -2.0761    7.4269   -0.0032 H       1  LIG1        0.0624
     14 C           1.5848    6.1797   -0.0002 C.ar    1  LIG1       -0.0505
     15 C           1.3209    7.5533   -0.0013 C.ar    1  LIG1       -0.0520
     16 H           2.6122    5.8246    0.0003 H       1  LIG1        0.0625
     17 H          -1.8177    4.8771   -0.0005 H       1  LIG1        0.0625
     18 H           2.3001    8.4083   -0.0016 H       1  LIG1        0.0624
     19 C          -0.2649    9.2698   -0.0038 C.ar    1  LIG1        0.0465
     20 C           0.5702   10.3425   -0.0050 C.ar    1  LIG1       -0.0364
     21 C          -0.2456   11.5194   -0.0051 C.ar    1  LIG1       -0.0438
     22 C          -1.5432   11.1142   -0.0056 C.ar    1  LIG1        0.0022
     23 N          -1.5596    9.7376   -0.0043 N.ar    1  LIG1       -0.3607
     24 H          -2.3765    9.1714   -0.0045 H       1  LIG1        0.1653
     25 H          -2.6433   11.8069   -0.0059 H       1  LIG1        0.0807
     26 H           1.8696   10.3031   -0.0047 H       1  LIG1        0.0639
     27 H           0.1737   12.7500   -0.0050 H       1  LIG1        0.0633
@<TRIPOS>BOND
     1    25    22    1
     2    22    21   ar
     3    22    23   ar
     4    21    27    1
     5    21    20   ar
     6    20    26    1
     7    20    19   ar
     8    24    23    1
     9    23    19   ar
    10    19    12    1
    11    13    10    1
    12    12    10   ar
    13    12    15   ar
    14    10     9   ar
    15    18    15    1
    16    15    14   ar
    17     9    17    1
    18     9    11   ar
    19    14    11   ar
    20    14    16    1
    21     5     4   ar
    22     5     1   ar
    23    11     4    1
    24     4     3   ar
    25     1     6    1
    26     1     2   ar
    27     8     3    1
    28     3     2   ar
    29     2     7    1
