@<TRIPOS>MOLECULE
mol_data/noopt/geoms/mol2/124-5.out
 26 28 0 0 0
SMALL
GASTEIGER

@<TRIPOS>ATOM
      1 C           0.1763    1.8460    0.0000 C.ar    1  LIG1        0.0926
      2 C           1.5558    1.8460    0.0000 C.ar    1  LIG1       -0.0233
      3 C           1.9706    3.2334    0.0000 C.ar    1  LIG1       -0.0159
      4 C           0.8165    3.9895   -0.0001 C.ar    1  LIG1        0.1348
      5 O          -0.3030    3.1567   -0.0002 O.2     1  LIG1       -0.4629
      6 H          -0.7504    0.9343    0.0000 H       1  LIG1        0.1029
      7 H           2.3515    0.8179    0.0001 H       1  LIG1        0.0649
      8 H           3.1998    3.6567    0.0000 H       1  LIG1        0.0655
      9 C          -0.8017    5.6881   -0.0008 C.ar    1  LIG1       -0.0505
     10 C          -1.0469    7.0749   -0.0024 C.ar    1  LIG1       -0.0529
     11 C           0.5416    5.2600   -0.0001 C.ar    1  LIG1        0.0173
     12 C          -0.0023    7.9965   -0.0025 C.ar    1  LIG1       -0.0113
     13 H          -2.0761    7.4269   -0.0032 H       1  LIG1        0.0624
     14 C           1.5848    6.1797   -0.0002 C.ar    1  LIG1       -0.0505
     15 C           1.3209    7.5533   -0.0013 C.ar    1  LIG1       -0.0529
     16 H           2.6122    5.8246    0.0003 H       1  LIG1        0.0625
     17 H          -1.8177    4.8771   -0.0005 H       1  LIG1        0.0625
     18 H           2.3001    8.4083   -0.0016 H       1  LIG1        0.0624
     19 C          -0.2649    9.2698   -0.0038 C.ar    1  LIG1        0.0193
     20 C           0.6686   10.2824   -0.0050 C.ar    1  LIG1       -0.0469
     21 C           0.0451   11.5717   -0.0070 C.ar    1  LIG1       -0.0541
     22 C          -1.3283   11.4687   -0.0065 C.ar    1  LIG1       -0.0237
     23 S          -1.8248    9.8720   -0.0043 S.2     1  LIG1       -0.0967
     24 H          -2.1634   12.4650   -0.0073 H       1  LIG1        0.0693
     25 H           1.9580   10.1169   -0.0046 H       1  LIG1        0.0629
     26 H           0.7160   12.6852   -0.0091 H       1  LIG1        0.0623
@<TRIPOS>BOND
     1    26    21    1
     2    24    22    1
     3    21    22   ar
     4    21    20   ar
     5    22    23   ar
     6    20    25    1
     7    20    19   ar
     8    23    19   ar
     9    19    12    1
    10    13    10    1
    11    12    10   ar
    12    12    15   ar
    13    10     9   ar
    14    18    15    1
    15    15    14   ar
    16     9    17    1
    17     9    11   ar
    18    14    11   ar
    19    14    16    1
    20     5     4   ar
    21     5     1   ar
    22    11     4    1
    23     4     3   ar
    24     1     6    1
    25     1     2   ar
    26     8     3    1
    27     3     2   ar
    28     2     7    1
