@<TRIPOS>MOLECULE
mol_data/noopt/geoms/mol2/124-128-.out
 32 35 0 0 0
SMALL
GASTEIGER

@<TRIPOS>ATOM
      1 C           0.1763    1.8460    0.0000 C.ar    1  LIG1        0.0926
      2 C           1.5558    1.8460    0.0000 C.ar    1  LIG1       -0.0233
      3 C           1.9706    3.2334    0.0000 C.ar    1  LIG1       -0.0159
      4 C           0.8165    3.9895   -0.0001 C.ar    1  LIG1        0.1348
      5 O          -0.3030    3.1567   -0.0002 O.2     1  LIG1       -0.4629
      6 H          -0.7504    0.9343    0.0000 H       1  LIG1        0.1029
      7 H           2.3515    0.8179    0.0001 H       1  LIG1        0.0649
      8 H           3.1998    3.6567    0.0000 H       1  LIG1        0.0655
      9 C          -0.8017    5.6881   -0.0008 C.ar    1  LIG1       -0.0504
     10 C          -1.0469    7.0749   -0.0024 C.ar    1  LIG1       -0.0504
     11 C           0.5416    5.2600   -0.0001 C.ar    1  LIG1        0.0173
     12 C          -0.0023    7.9965   -0.0025 C.ar    1  LIG1        0.0173
     13 H          -2.0761    7.4269   -0.0032 H       1  LIG1        0.0625
     14 C           1.5848    6.1797   -0.0002 C.ar    1  LIG1       -0.0504
     15 C           1.3209    7.5533   -0.0013 C.ar    1  LIG1       -0.0504
     16 H           2.6122    5.8246    0.0003 H       1  LIG1        0.0625
     17 H          -1.8177    4.8771   -0.0005 H       1  LIG1        0.0625
     18 H           2.3001    8.4083   -0.0016 H       1  LIG1        0.0625
     19 C          -0.2649    9.2697   -0.0038 C.ar    1  LIG1        0.1358
     20 C           0.4841   10.4283   -0.0048 C.ar    1  LIG1       -0.0151
     21 C          -0.4559   11.5298   -0.0061 C.ar    1  LIG1       -0.0120
     22 C          -1.7174   10.9711   -0.0059 C.ar    1  LIG1        0.1760
     23 O          -1.6258    9.5788   -0.0046 O.2     1  LIG1       -0.4516
     24 H           1.7794   10.5383   -0.0045 H       1  LIG1        0.0656
     25 H          -0.1441   12.7919   -0.0072 H       1  LIG1        0.0657
     26 C          -2.9337   11.4300   -0.0066 C.ar    1  LIG1        0.2381
     27 N          -3.9331   10.5060   -0.0069 N.ar    1  LIG1       -0.1226
     28 C          -5.4558   12.3817   -0.0080 C.ar    1  LIG1        0.1605
     29 N          -3.0736   12.7840   -0.0069 N.ar    1  LIG1       -0.1226
     30 N          -5.1894   10.9987   -0.0076 N.ar    1  LIG1       -0.1338
     31 N          -4.3423   13.2439   -0.0075 N.ar    1  LIG1       -0.1338
     32 H          -6.6721   12.8406   -0.0087 H       1  LIG1        0.1085
@<TRIPOS>BOND
     1    32    28    1
     2    28    30   ar
     3    28    31   ar
     4    30    27   ar
     5    31    29   ar
     6    25    21    1
     7    29    26   ar
     8    27    26   ar
     9    26    22    1
    10    21    22   ar
    11    21    20   ar
    12    22    23   ar
    13    20    24    1
    14    20    19   ar
    15    23    19   ar
    16    19    12    1
    17    13    10    1
    18    12    10   ar
    19    12    15   ar
    20    10     9   ar
    21    18    15    1
    22    15    14   ar
    23     9    17    1
    24     9    11   ar
    25    14    11   ar
    26    14    16    1
    27     5     4   ar
    28     5     1   ar
    29    11     4    1
    30     4     3   ar
    31     1     6    1
    32     1     2   ar
    33     8     3    1
    34     3     2   ar
    35     2     7    1
