@<TRIPOS>MOLECULE
mol_data/noopt/geoms/mol2/124-85.out
 32 35 0 0 0
SMALL
GASTEIGER

@<TRIPOS>ATOM
      1 C           0.1763    1.8460    0.0000 C.ar    1  LIG1        0.0926
      2 C           1.5558    1.8460    0.0000 C.ar    1  LIG1       -0.0233
      3 C           1.9706    3.2334    0.0000 C.ar    1  LIG1       -0.0159
      4 C           0.8165    3.9895   -0.0001 C.ar    1  LIG1        0.1348
      5 O          -0.3030    3.1567   -0.0002 O.2     1  LIG1       -0.4629
      6 H          -0.7504    0.9343    0.0000 H       1  LIG1        0.1029
      7 H           2.3515    0.8179    0.0001 H       1  LIG1        0.0649
      8 H           3.1998    3.6567    0.0000 H       1  LIG1        0.0655
      9 C          -0.8017    5.6881   -0.0008 C.ar    1  LIG1       -0.0504
     10 C          -1.0469    7.0749   -0.0024 C.ar    1  LIG1       -0.0503
     11 C           0.5416    5.2600   -0.0001 C.ar    1  LIG1        0.0173
     12 C          -0.0023    7.9965   -0.0025 C.ar    1  LIG1        0.0227
     13 H          -2.0761    7.4269   -0.0032 H       1  LIG1        0.0625
     14 C           1.5848    6.1797   -0.0002 C.ar    1  LIG1       -0.0504
     15 C           1.3209    7.5533   -0.0013 C.ar    1  LIG1       -0.0503
     16 H           2.6122    5.8246    0.0003 H       1  LIG1        0.0625
     17 H          -1.8177    4.8771   -0.0005 H       1  LIG1        0.0625
     18 H           2.3001    8.4083   -0.0016 H       1  LIG1        0.0625
     19 C          -0.2649    9.2698   -0.0038 C.ar    1  LIG1        0.2034
     20 N           0.8044   10.1119   -0.0044 N.ar    1  LIG1       -0.1252
     21 C          -0.8094   11.9099   -0.0065 C.ar    1  LIG1        0.2099
     22 N          -1.5802    9.6202   -0.0044 N.ar    1  LIG1       -0.1252
     23 N           0.5147   11.4299   -0.0058 N.ar    1  LIG1       -0.1247
     24 N          -1.8355   10.9453   -0.0059 N.ar    1  LIG1       -0.1247
     25 C          -1.0720   13.1831   -0.0078 C.ar    1  LIG1        0.0598
     26 C          -0.1385   14.1957   -0.0090 C.ar    1  LIG1       -0.0438
     27 C          -0.7620   15.4850   -0.0110 C.ar    1  LIG1       -0.0540
     28 C          -2.1354   15.3820   -0.0105 C.ar    1  LIG1       -0.0236
     29 S          -2.6320   13.7853   -0.0083 S.2     1  LIG1       -0.0934
     30 H          -2.9705   16.3783   -0.0113 H       1  LIG1        0.0693
     31 H           1.1509   14.0303   -0.0086 H       1  LIG1        0.0630
     32 H          -0.0911   16.5985   -0.0131 H       1  LIG1        0.0623
@<TRIPOS>BOND
     1    32    27    1
     2    30    28    1
     3    27    28   ar
     4    27    26   ar
     5    28    29   ar
     6    26    31    1
     7    26    25   ar
     8    29    25   ar
     9    25    21    1
    10    21    24   ar
    11    21    23   ar
    12    24    22   ar
    13    23    20   ar
    14    22    19   ar
    15    20    19   ar
    16    19    12    1
    17    13    10    1
    18    12    10   ar
    19    12    15   ar
    20    10     9   ar
    21    18    15    1
    22    15    14   ar
    23     9    17    1
    24     9    11   ar
    25    14    11   ar
    26    14    16    1
    27     5     4   ar
    28     5     1   ar
    29    11     4    1
    30     4     3   ar
    31     1     6    1
    32     1     2   ar
    33     8     3    1
    34     3     2   ar
    35     2     7    1
