@<TRIPOS>MOLECULE
mol_data/noopt/geoms/mol2/124-13-.out
 27 29 0 0 0
SMALL
GASTEIGER

@<TRIPOS>ATOM
      1 C           0.1763    1.8460    0.0000 C.ar    1  LIG1        0.0926
      2 C           1.5558    1.8460    0.0000 C.ar    1  LIG1       -0.0233
      3 C           1.9706    3.2334    0.0000 C.ar    1  LIG1       -0.0159
      4 C           0.8165    3.9895   -0.0001 C.ar    1  LIG1        0.1348
      5 O          -0.3030    3.1567   -0.0002 O.2     1  LIG1       -0.4629
      6 H          -0.7504    0.9343    0.0000 H       1  LIG1        0.1029
      7 H           2.3515    0.8179    0.0001 H       1  LIG1        0.0649
      8 H           3.1998    3.6567    0.0000 H       1  LIG1        0.0655
      9 C          -0.8017    5.6881   -0.0008 C.ar    1  LIG1       -0.0505
     10 C          -1.0469    7.0749   -0.0024 C.ar    1  LIG1       -0.0520
     11 C           0.5416    5.2600   -0.0001 C.ar    1  LIG1        0.0173
     12 C          -0.0023    7.9965   -0.0025 C.ar    1  LIG1       -0.0017
     13 H          -2.0761    7.4269   -0.0032 H       1  LIG1        0.0624
     14 C           1.5848    6.1797   -0.0002 C.ar    1  LIG1       -0.0505
     15 C           1.3209    7.5533   -0.0013 C.ar    1  LIG1       -0.0520
     16 H           2.6122    5.8246    0.0003 H       1  LIG1        0.0625
     17 H          -1.8177    4.8771   -0.0005 H       1  LIG1        0.0625
     18 H           2.3001    8.4083   -0.0016 H       1  LIG1        0.0624
     19 C          -0.2649    9.2698   -0.0038 C.ar    1  LIG1        0.0465
     20 C          -1.4561    9.9246   -0.0042 C.ar    1  LIG1       -0.0364
     21 C          -1.1726   11.3282   -0.0069 C.ar    1  LIG1       -0.0438
     22 C           0.1795   11.4694   -0.0063 C.ar    1  LIG1        0.0022
     23 N           0.7391   10.2116   -0.0049 N.ar    1  LIG1       -0.3607
     24 H           1.7134   10.0148   -0.0040 H       1  LIG1        0.1653
     25 H           0.9158   12.5408   -0.0079 H       1  LIG1        0.0807
     26 H          -2.6340    9.3744   -0.0038 H       1  LIG1        0.0639
     27 H          -2.0444   12.2925   -0.0090 H       1  LIG1        0.0633
@<TRIPOS>BOND
     1    27    21    1
     2    25    22    1
     3    21    22   ar
     4    21    20   ar
     5    22    23   ar
     6    23    24    1
     7    23    19   ar
     8    20    19   ar
     9    20    26    1
    10    19    12    1
    11    13    10    1
    12    12    10   ar
    13    12    15   ar
    14    10     9   ar
    15    18    15    1
    16    15    14   ar
    17     9    17    1
    18     9    11   ar
    19    14    11   ar
    20    14    16    1
    21     5     4   ar
    22     5     1   ar
    23    11     4    1
    24     4     3   ar
    25     1     6    1
    26     1     2   ar
    27     8     3    1
    28     3     2   ar
    29     2     7    1
