@<TRIPOS>MOLECULE
mol_data/noopt/geoms/mol2/124-8-.out
 25 27 0 0 0
SMALL
GASTEIGER

@<TRIPOS>ATOM
      1 C           0.1763    1.8460    0.0000 C.ar    1  LIG1        0.0926
      2 C           1.5558    1.8460    0.0000 C.ar    1  LIG1       -0.0233
      3 C           1.9706    3.2334    0.0000 C.ar    1  LIG1       -0.0159
      4 C           0.8165    3.9895   -0.0001 C.ar    1  LIG1        0.1348
      5 O          -0.3030    3.1567   -0.0002 O.2     1  LIG1       -0.4629
      6 H          -0.7504    0.9343    0.0000 H       1  LIG1        0.1029
      7 H           2.3515    0.8179    0.0001 H       1  LIG1        0.0649
      8 H           3.1998    3.6567    0.0000 H       1  LIG1        0.0655
      9 C          -0.8017    5.6881   -0.0008 C.ar    1  LIG1       -0.0504
     10 C          -1.0469    7.0749   -0.0024 C.ar    1  LIG1       -0.0503
     11 C           0.5416    5.2600   -0.0001 C.ar    1  LIG1        0.0173
     12 C          -0.0023    7.9965   -0.0025 C.ar    1  LIG1        0.0227
     13 H          -2.0761    7.4269   -0.0032 H       1  LIG1        0.0625
     14 C           1.5848    6.1797   -0.0002 C.ar    1  LIG1       -0.0504
     15 C           1.3209    7.5533   -0.0013 C.ar    1  LIG1       -0.0503
     16 H           2.6122    5.8246    0.0003 H       1  LIG1        0.0625
     17 H          -1.8177    4.8771   -0.0005 H       1  LIG1        0.0625
     18 H           2.3001    8.4083   -0.0016 H       1  LIG1        0.0625
     19 C          -0.2649    9.2698   -0.0038 C.ar    1  LIG1        0.2033
     20 N          -1.5801    9.6202   -0.0044 N.ar    1  LIG1       -0.1258
     21 C          -0.8092   11.9099   -0.0065 C.ar    1  LIG1        0.1605
     22 N           0.8045   10.1119   -0.0044 N.ar    1  LIG1       -0.1258
     23 N          -1.8354   10.9453   -0.0058 N.ar    1  LIG1       -0.1339
     24 N           0.5148   11.4300   -0.0057 N.ar    1  LIG1       -0.1339
     25 H          -1.0718   13.1831   -0.0078 H       1  LIG1        0.1085
@<TRIPOS>BOND
     1    25    21    1
     2    21    23   ar
     3    21    24   ar
     4    23    20   ar
     5    24    22   ar
     6    22    19   ar
     7    20    19   ar
     8    19    12    1
     9    13    10    1
    10    12    10   ar
    11    12    15   ar
    12    10     9   ar
    13    18    15    1
    14    15    14   ar
    15     9    17    1
    16     9    11   ar
    17    14    11   ar
    18    14    16    1
    19     5     4   ar
    20     5     1   ar
    21    11     4    1
    22     4     3   ar
    23     1     6    1
    24     1     2   ar
    25     8     3    1
    26     3     2   ar
    27     2     7    1
