@<TRIPOS>MOLECULE
mol_data/noopt/geoms/mol2/124-5-12-.out
 33 36 0 0 0
SMALL
GASTEIGER

@<TRIPOS>ATOM
      1 C           0.1763    1.8460    0.0000 C.ar    1  LIG1        0.0926
      2 C           1.5558    1.8460    0.0000 C.ar    1  LIG1       -0.0233
      3 C           1.9706    3.2334    0.0000 C.ar    1  LIG1       -0.0159
      4 C           0.8165    3.9895   -0.0001 C.ar    1  LIG1        0.1348
      5 O          -0.3030    3.1567   -0.0002 O.2     1  LIG1       -0.4629
      6 H          -0.7504    0.9343    0.0000 H       1  LIG1        0.1029
      7 H           2.3515    0.8179    0.0001 H       1  LIG1        0.0649
      8 H           3.1998    3.6567    0.0000 H       1  LIG1        0.0655
      9 C          -0.8017    5.6881   -0.0008 C.ar    1  LIG1       -0.0505
     10 C          -1.0469    7.0749   -0.0024 C.ar    1  LIG1       -0.0529
     11 C           0.5416    5.2600   -0.0001 C.ar    1  LIG1        0.0173
     12 C          -0.0023    7.9965   -0.0025 C.ar    1  LIG1       -0.0113
     13 H          -2.0761    7.4269   -0.0032 H       1  LIG1        0.0624
     14 C           1.5848    6.1797   -0.0002 C.ar    1  LIG1       -0.0505
     15 C           1.3209    7.5533   -0.0013 C.ar    1  LIG1       -0.0529
     16 H           2.6122    5.8246    0.0003 H       1  LIG1        0.0625
     17 H          -1.8177    4.8771   -0.0005 H       1  LIG1        0.0625
     18 H           2.3001    8.4083   -0.0016 H       1  LIG1        0.0624
     19 C          -0.2649    9.2698   -0.0038 C.ar    1  LIG1        0.0200
     20 C          -1.5227    9.8305   -0.0045 C.ar    1  LIG1       -0.0462
     21 C          -1.4602   11.2613   -0.0052 C.ar    1  LIG1       -0.0434
     22 C          -0.1582   11.7100   -0.0058 C.ar    1  LIG1        0.0550
     23 S           0.9296   10.4400   -0.0048 S.2     1  LIG1       -0.0852
     24 H          -2.6415    9.1684   -0.0043 H       1  LIG1        0.0629
     25 H          -2.5169   12.0185   -0.0052 H       1  LIG1        0.0630
     26 C           0.2147   12.9554   -0.0070 C.ar    1  LIG1        0.1413
     27 C          -0.4301   14.1749   -0.0080 C.ar    1  LIG1       -0.0154
     28 C           0.6026   15.1901   -0.0092 C.ar    1  LIG1       -0.0233
     29 C           1.8104   14.5232   -0.0089 C.ar    1  LIG1        0.0926
     30 O           1.5974   13.1443   -0.0074 O.2     1  LIG1       -0.4624
     31 H           3.0622   14.8741   -0.0096 H       1  LIG1        0.1029
     32 H          -1.7108   14.3979   -0.0079 H       1  LIG1        0.0655
     33 H           0.4023   16.4746   -0.0104 H       1  LIG1        0.0649
@<TRIPOS>BOND
     1    33    28    1
     2    31    29    1
     3    28    29   ar
     4    28    27   ar
     5    29    30   ar
     6    27    32    1
     7    27    26   ar
     8    30    26   ar
     9    26    22    1
    10    22    21   ar
    11    22    23   ar
    12    25    21    1
    13    21    20   ar
    14    23    19   ar
    15    20    24    1
    16    20    19   ar
    17    19    12    1
    18    13    10    1
    19    12    10   ar
    20    12    15   ar
    21    10     9   ar
    22    18    15    1
    23    15    14   ar
    24     9    17    1
    25     9    11   ar
    26    14    11   ar
    27    14    16    1
    28     5     4   ar
    29     5     1   ar
    30    11     4    1
    31     4     3   ar
    32     1     6    1
    33     1     2   ar
    34     8     3    1
    35     3     2   ar
    36     2     7    1
