@<TRIPOS>MOLECULE
mol_data/noopt/geoms/mol2/124.out
 19 20 0 0 0
SMALL
GASTEIGER

@<TRIPOS>ATOM
      1 C           0.1763    1.8460    0.0000 C.ar    1  LIG1        0.0926
      2 C           1.5558    1.8460    0.0000 C.ar    1  LIG1       -0.0233
      3 C           1.9706    3.2334    0.0000 C.ar    1  LIG1       -0.0159
      4 C           0.8165    3.9895   -0.0001 C.ar    1  LIG1        0.1348
      5 O          -0.3030    3.1567   -0.0002 O.2     1  LIG1       -0.4629
      6 H          -0.7504    0.9343    0.0000 H       1  LIG1        0.1029
      7 H           2.3515    0.8179    0.0001 H       1  LIG1        0.0649
      8 H           3.1998    3.6567    0.0000 H       1  LIG1        0.0655
      9 C           1.5879    6.2051    0.0007 C.ar    1  LIG1       -0.0511
     10 C           1.2379    7.5692    0.0022 C.ar    1  LIG1       -0.0611
     11 C           0.5416    5.2600   -0.0001 C.ar    1  LIG1        0.0172
     12 C          -0.0943    7.9766    0.0023 C.ar    1  LIG1       -0.0617
     13 H           2.0295    8.3152    0.0030 H       1  LIG1        0.0618
     14 C          -0.7885    5.6662    0.0000 C.ar    1  LIG1       -0.0511
     15 C          -1.1159    7.0261    0.0011 C.ar    1  LIG1       -0.0611
     16 H          -1.5772    4.9182   -0.0005 H       1  LIG1        0.0625
     17 H          -0.3815    9.2445    0.0036 H       1  LIG1        0.0618
     18 H           2.8482    5.8866    0.0003 H       1  LIG1        0.0625
     19 H          -2.3610    7.3999    0.0014 H       1  LIG1        0.0618
@<TRIPOS>BOND
     1    16    14    1
     2     5     4   ar
     3     5     1   ar
     4     4    11    1
     5     4     3   ar
     6    11    14   ar
     7    11     9   ar
     8     2     3   ar
     9     2     1   ar
    10     2     7    1
    11     3     8    1
    12     6     1    1
    13    14    15   ar
    14    18     9    1
    15     9    10   ar
    16    15    19    1
    17    15    12   ar
    18    10    12   ar
    19    10    13    1
    20    12    17    1
