@<TRIPOS>MOLECULE
mol_data/noopt/geoms/mol2/12413-4-.out
 37 40 0 0 0
SMALL
GASTEIGER

@<TRIPOS>ATOM
      1 C           0.1763    1.8460    0.0000 C.ar    1  LIG1        0.0926
      2 C           1.5558    1.8460    0.0000 C.ar    1  LIG1       -0.0233
      3 C           1.9706    3.2334    0.0000 C.ar    1  LIG1       -0.0159
      4 C           0.8165    3.9895   -0.0001 C.ar    1  LIG1        0.1348
      5 O          -0.3030    3.1567   -0.0002 O.2     1  LIG1       -0.4629
      6 H          -0.7504    0.9343    0.0000 H       1  LIG1        0.1029
      7 H           2.3515    0.8179    0.0001 H       1  LIG1        0.0649
      8 H           3.1998    3.6567    0.0000 H       1  LIG1        0.0655
      9 C           1.5879    6.2051    0.0007 C.ar    1  LIG1       -0.0505
     10 C           1.2379    7.5692    0.0022 C.ar    1  LIG1       -0.0520
     11 C           0.5416    5.2600   -0.0001 C.ar    1  LIG1        0.0173
     12 C          -0.0943    7.9766    0.0023 C.ar    1  LIG1       -0.0017
     13 H           2.0295    8.3152    0.0030 H       1  LIG1        0.0624
     14 C          -0.7885    5.6662    0.0000 C.ar    1  LIG1       -0.0505
     15 C          -1.1159    7.0261    0.0011 C.ar    1  LIG1       -0.0520
     16 H          -1.5772    4.9182   -0.0005 H       1  LIG1        0.0625
     17 H           2.8482    5.8866    0.0003 H       1  LIG1        0.0625
     18 H          -2.3610    7.3999    0.0014 H       1  LIG1        0.0624
     19 C          -0.3815    9.2445    0.0036 C.ar    1  LIG1        0.0469
     20 C          -1.5852    9.8761    0.0050 C.ar    1  LIG1       -0.0358
     21 C          -1.3290   11.2850    0.0049 C.ar    1  LIG1       -0.0358
     22 C           0.0201   11.4524    0.0053 C.ar    1  LIG1        0.0469
     23 N           0.6040   10.2057    0.0040 N.ar    1  LIG1       -0.3542
     24 H           1.5820   10.0278    0.0040 H       1  LIG1        0.1659
     25 H          -2.7522    9.3032    0.0048 H       1  LIG1        0.0639
     26 H          -2.2194   12.2322    0.0050 H       1  LIG1        0.0639
     27 C           0.1012   13.7971    0.0049 C.ar    1  LIG1       -0.0526
     28 C           0.9204   14.9426    0.0036 C.ar    1  LIG1       -0.0611
     29 C           0.7354   12.5379    0.0055 C.ar    1  LIG1       -0.0017
     30 C           2.3097   14.8413    0.0036 C.ar    1  LIG1       -0.0617
     31 H           0.4516   15.9242    0.0029 H       1  LIG1        0.0618
     32 C           2.1224   12.4361    0.0055 C.ar    1  LIG1       -0.0526
     33 C           2.9190   13.5859    0.0046 C.ar    1  LIG1       -0.0611
     34 H           2.5877   11.4537    0.0059 H       1  LIG1        0.0624
     35 H           3.0356   15.9198    0.0025 H       1  LIG1        0.0618
     36 H          -1.1891   13.9554    0.0051 H       1  LIG1        0.0624
     37 H           4.2150   13.4846    0.0044 H       1  LIG1        0.0618
@<TRIPOS>BOND
     1    16    14    1
     2     5     4   ar
     3     5     1   ar
     4     4    11    1
     5     4     3   ar
     6    11    14   ar
     7    11     9   ar
     8     2     3   ar
     9     2     1   ar
    10     2     7    1
    11     3     8    1
    12     6     1    1
    13    14    15   ar
    14    17     9    1
    15     9    10   ar
    16    15    18    1
    17    15    12   ar
    18    10    12   ar
    19    10    13    1
    20    12    19    1
    21    35    30    1
    22    31    28    1
    23    30    28   ar
    24    30    33   ar
    25    28    27   ar
    26    19    23   ar
    27    19    20   ar
    28    23    24    1
    29    23    22   ar
    30    37    33    1
    31    33    32   ar
    32    25    20    1
    33    27    36    1
    34    27    29   ar
    35    21    20   ar
    36    21    26    1
    37    21    22   ar
    38    22    29    1
    39    32    29   ar
    40    32    34    1
