@<TRIPOS>MOLECULE
mol_data/noopt/geoms/mol2/1244.out
 29 31 0 0 0
SMALL
GASTEIGER

@<TRIPOS>ATOM
      1 C           0.1763    1.8460    0.0000 C.ar    1  LIG1        0.0926
      2 C           1.5558    1.8460    0.0000 C.ar    1  LIG1       -0.0233
      3 C           1.9706    3.2334    0.0000 C.ar    1  LIG1       -0.0159
      4 C           0.8165    3.9895   -0.0001 C.ar    1  LIG1        0.1348
      5 O          -0.3030    3.1567   -0.0002 O.2     1  LIG1       -0.4629
      6 H          -0.7504    0.9343    0.0000 H       1  LIG1        0.1029
      7 H           2.3515    0.8179    0.0001 H       1  LIG1        0.0649
      8 H           3.1998    3.6567    0.0000 H       1  LIG1        0.0655
      9 C           1.5879    6.2051    0.0007 C.ar    1  LIG1       -0.0505
     10 C           1.2379    7.5692    0.0022 C.ar    1  LIG1       -0.0534
     11 C           0.5416    5.2600   -0.0001 C.ar    1  LIG1        0.0173
     12 C          -0.0943    7.9766    0.0023 C.ar    1  LIG1       -0.0178
     13 H           2.0295    8.3152    0.0030 H       1  LIG1        0.0624
     14 C          -0.7885    5.6662    0.0000 C.ar    1  LIG1       -0.0505
     15 C          -1.1159    7.0261    0.0011 C.ar    1  LIG1       -0.0534
     16 H          -1.5772    4.9182   -0.0005 H       1  LIG1        0.0625
     17 H           2.8482    5.8866    0.0003 H       1  LIG1        0.0625
     18 H          -2.3610    7.3999    0.0014 H       1  LIG1        0.0624
     19 C           0.6556   10.1996    0.0051 C.ar    1  LIG1       -0.0540
     20 C           0.2923   11.5603    0.0080 C.ar    1  LIG1       -0.0612
     21 C          -0.3815    9.2445    0.0036 C.ar    1  LIG1       -0.0179
     22 C          -1.0437   11.9548    0.0088 C.ar    1  LIG1       -0.0617
     23 H           1.0767   12.3139    0.0094 H       1  LIG1        0.0618
     24 C          -1.7154    9.6377    0.0044 C.ar    1  LIG1       -0.0540
     25 C          -2.0561   10.9944    0.0069 C.ar    1  LIG1       -0.0612
     26 H          -2.4969    8.8821    0.0033 H       1  LIG1        0.0624
     27 H          -1.3432   13.2198    0.0114 H       1  LIG1        0.0618
     28 H           1.9190    9.8934    0.0042 H       1  LIG1        0.0624
     29 H          -3.3047   11.3560    0.0078 H       1  LIG1        0.0618
@<TRIPOS>BOND
     1    16    14    1
     2     5     4   ar
     3     5     1   ar
     4     4    11    1
     5     4     3   ar
     6    11    14   ar
     7    11     9   ar
     8     2     3   ar
     9     2     1   ar
    10     2     7    1
    11     3     8    1
    12     6     1    1
    13    14    15   ar
    14    17     9    1
    15     9    10   ar
    16    15    18    1
    17    15    12   ar
    18    10    12   ar
    19    10    13    1
    20    12    21    1
    21    26    24    1
    22    21    24   ar
    23    21    19   ar
    24    28    19    1
    25    24    25   ar
    26    19    20   ar
    27    25    29    1
    28    25    22   ar
    29    20    22   ar
    30    20    23    1
    31    22    27    1
