@<TRIPOS>MOLECULE
mol_data/noopt/geoms/mol2/1244-12-.out
 36 39 0 0 0
SMALL
GASTEIGER

@<TRIPOS>ATOM
      1 C           0.1763    1.8460    0.0000 C.ar    1  LIG1        0.0926
      2 C           1.5558    1.8460    0.0000 C.ar    1  LIG1       -0.0233
      3 C           1.9706    3.2334    0.0000 C.ar    1  LIG1       -0.0159
      4 C           0.8165    3.9895   -0.0001 C.ar    1  LIG1        0.1348
      5 O          -0.3030    3.1567   -0.0002 O.2     1  LIG1       -0.4629
      6 H          -0.7504    0.9343    0.0000 H       1  LIG1        0.1029
      7 H           2.3515    0.8179    0.0001 H       1  LIG1        0.0649
      8 H           3.1998    3.6567    0.0000 H       1  LIG1        0.0655
      9 C           1.5879    6.2051    0.0007 C.ar    1  LIG1       -0.0505
     10 C           1.2379    7.5692    0.0022 C.ar    1  LIG1       -0.0534
     11 C           0.5416    5.2600   -0.0001 C.ar    1  LIG1        0.0173
     12 C          -0.0943    7.9766    0.0023 C.ar    1  LIG1       -0.0178
     13 H           2.0295    8.3152    0.0030 H       1  LIG1        0.0624
     14 C          -0.7885    5.6662    0.0000 C.ar    1  LIG1       -0.0505
     15 C          -1.1159    7.0261    0.0011 C.ar    1  LIG1       -0.0534
     16 H          -1.5772    4.9182   -0.0005 H       1  LIG1        0.0625
     17 H           2.8482    5.8866    0.0003 H       1  LIG1        0.0625
     18 H          -2.3610    7.3999    0.0014 H       1  LIG1        0.0624
     19 C          -1.7289    9.6595    0.0036 C.ar    1  LIG1       -0.0534
     20 C          -1.9875   11.0438    0.0035 C.ar    1  LIG1       -0.0505
     21 C          -0.3815    9.2445    0.0036 C.ar    1  LIG1       -0.0178
     22 C          -0.9519   11.9756    0.0040 C.ar    1  LIG1        0.0173
     23 H          -3.0201   11.3858    0.0032 H       1  LIG1        0.0625
     24 C           0.6528   10.1742    0.0041 C.ar    1  LIG1       -0.0534
     25 C           0.3755   11.5452    0.0044 C.ar    1  LIG1       -0.0505
     26 H           1.6836    9.8291    0.0041 H       1  LIG1        0.0624
     27 H          -2.7370    8.8387    0.0033 H       1  LIG1        0.0624
     28 H           1.3464   12.4097    0.0048 H       1  LIG1        0.0625
     29 C          -1.2268   13.2461    0.0040 C.ar    1  LIG1        0.1348
     30 C          -2.3803   14.0027    0.0040 C.ar    1  LIG1       -0.0159
     31 C          -1.9663   15.3903    0.0040 C.ar    1  LIG1       -0.0233
     32 C          -0.5866   15.3896    0.0041 C.ar    1  LIG1        0.0926
     33 O          -0.1072   14.0793    0.0042 O.2     1  LIG1       -0.4629
     34 H           0.3401   16.3013    0.0040 H       1  LIG1        0.1029
     35 H          -3.6095   13.5794    0.0039 H       1  LIG1        0.0655
     36 H          -2.7620   16.4184    0.0040 H       1  LIG1        0.0649
@<TRIPOS>BOND
     1    16    14    1
     2     5     4   ar
     3     5     1   ar
     4     4    11    1
     5     4     3   ar
     6    11    14   ar
     7    11     9   ar
     8     2     3   ar
     9     2     1   ar
    10     2     7    1
    11     3     8    1
    12     6     1    1
    13    14    15   ar
    14    17     9    1
    15     9    10   ar
    16    15    18    1
    17    15    12   ar
    18    10    12   ar
    19    10    13    1
    20    12    21    1
    21    23    20    1
    22    27    19    1
    23    20    19   ar
    24    20    22   ar
    25    19    21   ar
    26    21    24   ar
    27    35    30    1
    28    22    29    1
    29    22    25   ar
    30    29    30   ar
    31    29    33   ar
    32    31    36    1
    33    31    30   ar
    34    31    32   ar
    35    34    32    1
    36    32    33   ar
    37    26    24    1
    38    24    25   ar
    39    25    28    1
