@<TRIPOS>MOLECULE
mol_data/noopt/geoms/mol2/1248-.out
 25 27 0 0 0
SMALL
GASTEIGER

@<TRIPOS>ATOM
      1 C           0.1763    1.8460    0.0000 C.ar    1  LIG1        0.0926
      2 C           1.5558    1.8460    0.0000 C.ar    1  LIG1       -0.0233
      3 C           1.9706    3.2334    0.0000 C.ar    1  LIG1       -0.0159
      4 C           0.8165    3.9895   -0.0001 C.ar    1  LIG1        0.1348
      5 O          -0.3030    3.1567   -0.0002 O.2     1  LIG1       -0.4629
      6 H          -0.7504    0.9343    0.0000 H       1  LIG1        0.1029
      7 H           2.3515    0.8179    0.0001 H       1  LIG1        0.0649
      8 H           3.1998    3.6567    0.0000 H       1  LIG1        0.0655
      9 C           1.5879    6.2051    0.0007 C.ar    1  LIG1       -0.0504
     10 C           1.2379    7.5692    0.0022 C.ar    1  LIG1       -0.0503
     11 C           0.5416    5.2600   -0.0001 C.ar    1  LIG1        0.0173
     12 C          -0.0943    7.9766    0.0023 C.ar    1  LIG1        0.0227
     13 H           2.0295    8.3152    0.0030 H       1  LIG1        0.0625
     14 C          -0.7885    5.6662    0.0000 C.ar    1  LIG1       -0.0504
     15 C          -1.1159    7.0261    0.0011 C.ar    1  LIG1       -0.0503
     16 H          -1.5772    4.9182   -0.0005 H       1  LIG1        0.0625
     17 H           2.8482    5.8866    0.0003 H       1  LIG1        0.0625
     18 H          -2.3610    7.3999    0.0014 H       1  LIG1        0.0625
     19 C          -0.3815    9.2445    0.0036 C.ar    1  LIG1        0.2033
     20 N          -1.7033    9.5694    0.0042 N.ar    1  LIG1       -0.1258
     21 C          -0.9770   11.8736    0.0063 C.ar    1  LIG1        0.1605
     22 N           0.6713   10.1073    0.0042 N.ar    1  LIG1       -0.1258
     23 N          -1.9843   10.8893    0.0056 N.ar    1  LIG1       -0.1339
     24 N           0.3561   11.4194    0.0057 N.ar    1  LIG1       -0.1339
     25 H          -1.2642   13.1415    0.0076 H       1  LIG1        0.1085
@<TRIPOS>BOND
     1    16    14    1
     2     5     4   ar
     3     5     1   ar
     4     4    11    1
     5     4     3   ar
     6    11    14   ar
     7    11     9   ar
     8     2     3   ar
     9     2     1   ar
    10     2     7    1
    11     3     8    1
    12     6     1    1
    13    14    15   ar
    14    17     9    1
    15     9    10   ar
    16    15    18    1
    17    15    12   ar
    18    10    12   ar
    19    10    13    1
    20    12    19    1
    21    19    20   ar
    22    19    22   ar
    23    20    23   ar
    24    22    24   ar
    25    23    21   ar
    26    24    21   ar
    27    21    25    1
