@<TRIPOS>MOLECULE
mol_data/noopt/geoms/mol2/125-84-.out
 32 35 0 0 0
SMALL
GASTEIGER

@<TRIPOS>ATOM
      1 C           0.1763    1.8460    0.0000 C.ar    1  LIG1        0.0926
      2 C           1.5558    1.8460    0.0000 C.ar    1  LIG1       -0.0233
      3 C           1.9706    3.2334    0.0000 C.ar    1  LIG1       -0.0154
      4 C           0.8165    3.9895   -0.0001 C.ar    1  LIG1        0.1413
      5 O          -0.3030    3.1567   -0.0002 O.2     1  LIG1       -0.4624
      6 H          -0.7504    0.9343    0.0000 H       1  LIG1        0.1029
      7 H           2.3515    0.8179    0.0001 H       1  LIG1        0.0649
      8 H           3.1998    3.6567    0.0000 H       1  LIG1        0.0655
      9 C           0.5416    5.2601   -0.0001 C.ar    1  LIG1        0.0551
     10 C          -0.7217    5.8086    0.0000 C.ar    1  LIG1       -0.0433
     11 C          -0.6730    7.2399    0.0007 C.ar    1  LIG1       -0.0431
     12 C           0.6246    7.7013    0.0003 C.ar    1  LIG1        0.0605
     13 S           1.7246    6.4419   -0.0002 S.2     1  LIG1       -0.0820
     14 H          -1.8340    5.1357   -0.0002 H       1  LIG1        0.0630
     15 H          -1.7370    7.9869    0.0017 H       1  LIG1        0.0630
     16 C           0.9854    8.9502    0.0002 C.ar    1  LIG1        0.2099
     17 N           2.3239    9.1973    0.0001 N.ar    1  LIG1       -0.1247
     18 C           1.7334   11.5401   -0.0001 C.ar    1  LIG1        0.2034
     19 N          -0.0153    9.8730    0.0001 N.ar    1  LIG1       -0.1247
     20 N           2.6815   10.4986   -0.0000 N.ar    1  LIG1       -0.1252
     21 N           0.3761   11.1645   -0.0001 N.ar    1  LIG1       -0.1252
     22 C           1.1146   13.8031   -0.0011 C.ar    1  LIG1       -0.0509
     23 C           1.5567   15.1402   -0.0027 C.ar    1  LIG1       -0.0611
     24 C           2.0941   12.7890   -0.0002 C.ar    1  LIG1        0.0226
     25 C           2.9135   15.4560   -0.0029 C.ar    1  LIG1       -0.0617
     26 H           0.8176   15.9383   -0.0036 H       1  LIG1        0.0618
     27 C           3.4488   13.1036   -0.0005 C.ar    1  LIG1       -0.0509
     28 C           3.8680   14.4381   -0.0017 C.ar    1  LIG1       -0.0611
     29 H           4.1848   12.3037    0.0001 H       1  LIG1        0.0625
     30 H           3.2863   16.7014   -0.0044 H       1  LIG1        0.0618
     31 H          -0.1645   13.5711   -0.0007 H       1  LIG1        0.0625
     32 H           5.1357   14.7262   -0.0021 H       1  LIG1        0.0618
@<TRIPOS>BOND
     1    30    25    1
     2    26    23    1
     3    25    23   ar
     4    25    28   ar
     5    23    22   ar
     6    32    28    1
     7    28    27   ar
     8    22    31    1
     9    22    24   ar
    10    27    24   ar
    11    27    29    1
    12    24    18    1
    13    14    10    1
    14     5     4   ar
    15     5     1   ar
    16    13     9   ar
    17    13    12   ar
    18    21    18   ar
    19    21    19   ar
    20    18    20   ar
    21     9     4    1
    22     9    10   ar
    23     4     3   ar
    24    20    17   ar
    25     1     6    1
    26     1     2   ar
    27     8     3    1
    28     3     2   ar
    29     2     7    1
    30    10    11   ar
    31    19    16   ar
    32    17    16   ar
    33    16    12    1
    34    12    11   ar
    35    11    15    1
