@<TRIPOS>MOLECULE
mol_data/noopt/geoms/mol2/125-8.out
 22 24 0 0 0
SMALL
GASTEIGER

@<TRIPOS>ATOM
      1 C           0.1763    1.8460    0.0000 C.ar    1  LIG1        0.0926
      2 C           1.5558    1.8460    0.0000 C.ar    1  LIG1       -0.0233
      3 C           1.9706    3.2334    0.0000 C.ar    1  LIG1       -0.0154
      4 C           0.8165    3.9895   -0.0001 C.ar    1  LIG1        0.1413
      5 O          -0.3030    3.1567   -0.0002 O.2     1  LIG1       -0.4624
      6 H          -0.7504    0.9343    0.0000 H       1  LIG1        0.1029
      7 H           2.3515    0.8179    0.0001 H       1  LIG1        0.0649
      8 H           3.1998    3.6567    0.0000 H       1  LIG1        0.0655
      9 C           0.5416    5.2601   -0.0001 C.ar    1  LIG1        0.0551
     10 C          -0.7217    5.8086    0.0000 C.ar    1  LIG1       -0.0433
     11 C          -0.6730    7.2399    0.0007 C.ar    1  LIG1       -0.0431
     12 C           0.6246    7.7013    0.0003 C.ar    1  LIG1        0.0605
     13 S           1.7246    6.4419   -0.0002 S.2     1  LIG1       -0.0820
     14 H          -1.8340    5.1357   -0.0002 H       1  LIG1        0.0630
     15 H          -1.7370    7.9869    0.0017 H       1  LIG1        0.0630
     16 C           0.9854    8.9502    0.0002 C.ar    1  LIG1        0.2099
     17 N           2.3239    9.1973    0.0001 N.ar    1  LIG1       -0.1253
     18 C           1.7334   11.5401   -0.0001 C.ar    1  LIG1        0.1605
     19 N          -0.0153    9.8730    0.0001 N.ar    1  LIG1       -0.1253
     20 N           2.6815   10.4986   -0.0000 N.ar    1  LIG1       -0.1339
     21 N           0.3761   11.1645   -0.0001 N.ar    1  LIG1       -0.1339
     22 H           2.0941   12.7890   -0.0002 H       1  LIG1        0.1085
@<TRIPOS>BOND
     1    22    18    1
     2    14    10    1
     3     5     4   ar
     4     5     1   ar
     5    13     9   ar
     6    13    12   ar
     7    21    18   ar
     8    21    19   ar
     9    18    20   ar
    10     4     9    1
    11     4     3   ar
    12     9    10   ar
    13    20    17   ar
    14     1     6    1
    15     1     2   ar
    16     8     3    1
    17     3     2   ar
    18     2     7    1
    19    10    11   ar
    20    17    16   ar
    21    19    16   ar
    22    16    12    1
    23    12    11   ar
    24    11    15    1
