@<TRIPOS>MOLECULE
mol_data/noopt/geoms/mol2/125-4-.out
 26 28 0 0 0
SMALL
GASTEIGER

@<TRIPOS>ATOM
      1 C           0.1763    1.8460    0.0000 C.ar    1  LIG1        0.0926
      2 C           1.5558    1.8460    0.0000 C.ar    1  LIG1       -0.0233
      3 C           1.9706    3.2334    0.0000 C.ar    1  LIG1       -0.0154
      4 C           0.8165    3.9895   -0.0001 C.ar    1  LIG1        0.1413
      5 O          -0.3030    3.1567   -0.0002 O.2     1  LIG1       -0.4624
      6 H          -0.7504    0.9343    0.0000 H       1  LIG1        0.1029
      7 H           2.3515    0.8179    0.0001 H       1  LIG1        0.0649
      8 H           3.1998    3.6567    0.0000 H       1  LIG1        0.0655
      9 C           0.5416    5.2601   -0.0001 C.ar    1  LIG1        0.0550
     10 C          -0.7217    5.8086    0.0000 C.ar    1  LIG1       -0.0434
     11 C          -0.6730    7.2399    0.0007 C.ar    1  LIG1       -0.0462
     12 C           0.6246    7.7013    0.0003 C.ar    1  LIG1        0.0200
     13 S           1.7246    6.4419   -0.0002 S.2     1  LIG1       -0.0852
     14 H          -1.8340    5.1357   -0.0002 H       1  LIG1        0.0630
     15 H          -1.7370    7.9869    0.0017 H       1  LIG1        0.0629
     16 C           0.0059    9.9643   -0.0006 C.ar    1  LIG1       -0.0535
     17 C           0.4479   11.3014   -0.0023 C.ar    1  LIG1       -0.0612
     18 C           0.9854    8.9502    0.0002 C.ar    1  LIG1       -0.0113
     19 C           1.8047   11.6172   -0.0025 C.ar    1  LIG1       -0.0617
     20 H          -0.2911   12.0995   -0.0032 H       1  LIG1        0.0618
     21 C           2.3400    9.2649   -0.0000 C.ar    1  LIG1       -0.0535
     22 C           2.7593   10.5993   -0.0013 C.ar    1  LIG1       -0.0612
     23 H           3.0760    8.4649    0.0005 H       1  LIG1        0.0624
     24 H           2.1776   12.8626   -0.0040 H       1  LIG1        0.0618
     25 H          -1.2733    9.7323   -0.0002 H       1  LIG1        0.0624
     26 H           4.0269   10.8875   -0.0016 H       1  LIG1        0.0618
@<TRIPOS>BOND
     1    24    19    1
     2    20    17    1
     3    19    17   ar
     4    19    22   ar
     5    17    16   ar
     6    26    22    1
     7    22    21   ar
     8    16    25    1
     9    16    18   ar
    10    14    10    1
    11     5     4   ar
    12     5     1   ar
    13    13     9   ar
    14    13    12   ar
    15     4     9    1
    16     4     3   ar
    17     9    10   ar
    18    21    18   ar
    19    21    23    1
    20     2     3   ar
    21     2     1   ar
    22     2     7    1
    23     3     8    1
    24     1     6    1
    25    10    11   ar
    26    18    12    1
    27    12    11   ar
    28    11    15    1
