@<TRIPOS>MOLECULE
mol_data/noopt/geoms/mol2/125-5.out
 23 25 0 0 0
SMALL
GASTEIGER

@<TRIPOS>ATOM
      1 C           0.1763    1.8460    0.0000 C.ar    1  LIG1        0.0926
      2 C           1.5558    1.8460    0.0000 C.ar    1  LIG1       -0.0233
      3 C           1.9706    3.2334    0.0000 C.ar    1  LIG1       -0.0154
      4 C           0.8165    3.9895   -0.0001 C.ar    1  LIG1        0.1413
      5 O          -0.3030    3.1567   -0.0002 O.2     1  LIG1       -0.4624
      6 H          -0.7504    0.9343    0.0000 H       1  LIG1        0.1029
      7 H           2.3515    0.8179    0.0001 H       1  LIG1        0.0649
      8 H           3.1998    3.6567    0.0000 H       1  LIG1        0.0655
      9 C           0.5416    5.2601   -0.0001 C.ar    1  LIG1        0.0550
     10 C          -0.7217    5.8086    0.0000 C.ar    1  LIG1       -0.0434
     11 C          -0.6730    7.2399    0.0007 C.ar    1  LIG1       -0.0457
     12 C           0.6246    7.7013    0.0003 C.ar    1  LIG1        0.0266
     13 S           1.7246    6.4419   -0.0002 S.2     1  LIG1       -0.0847
     14 H          -1.8340    5.1357   -0.0002 H       1  LIG1        0.0630
     15 H          -1.7370    7.9869    0.0017 H       1  LIG1        0.0629
     16 C           0.9854    8.9502    0.0002 C.ar    1  LIG1        0.0259
     17 C           2.2831    9.4115   -0.0003 C.ar    1  LIG1       -0.0464
     18 C           2.3319   10.8428   -0.0011 C.ar    1  LIG1       -0.0541
     19 C           1.0687   11.3914   -0.0004 C.ar    1  LIG1       -0.0237
     20 S          -0.1145   10.2098    0.0005 S.2     1  LIG1       -0.0961
     21 H           0.7938   12.6620   -0.0002 H       1  LIG1        0.0693
     22 H           3.3470    8.6644   -0.0002 H       1  LIG1        0.0629
     23 H           3.4443   11.5156   -0.0023 H       1  LIG1        0.0623
@<TRIPOS>BOND
     1    23    18    1
     2    18    19   ar
     3    18    17   ar
     4    19    21    1
     5    19    20   ar
     6    17    22    1
     7    17    16   ar
     8    14    10    1
     9     5     4   ar
    10     5     1   ar
    11    13     9   ar
    12    13    12   ar
    13     4     9    1
    14     4     3   ar
    15     9    10   ar
    16     1     6    1
    17     1     2   ar
    18     8     3    1
    19     3     2   ar
    20     2     7    1
    21    10    11   ar
    22    16    12    1
    23    16    20   ar
    24    12    11   ar
    25    11    15    1
