@<TRIPOS>MOLECULE
mol_data/noopt/geoms/mol2/125-.out
 16 17 0 0 0
SMALL
GASTEIGER

@<TRIPOS>ATOM
      1 C           0.1763    1.8460    0.0000 C.ar    1  LIG1        0.0926
      2 C           1.5558    1.8460    0.0000 C.ar    1  LIG1       -0.0233
      3 C           1.9706    3.2334    0.0000 C.ar    1  LIG1       -0.0154
      4 C           0.8165    3.9895   -0.0001 C.ar    1  LIG1        0.1413
      5 O          -0.3030    3.1567   -0.0002 O.2     1  LIG1       -0.4624
      6 H          -0.7504    0.9343    0.0000 H       1  LIG1        0.1029
      7 H           2.3515    0.8179    0.0001 H       1  LIG1        0.0649
      8 H           3.1998    3.6567    0.0000 H       1  LIG1        0.0655
      9 C           0.5416    5.2601   -0.0001 C.ar    1  LIG1        0.0544
     10 C          -0.7217    5.8086    0.0000 C.ar    1  LIG1       -0.0440
     11 C          -0.6730    7.2399    0.0007 C.ar    1  LIG1       -0.0540
     12 C           0.6246    7.7013    0.0003 C.ar    1  LIG1       -0.0236
     13 S           1.7246    6.4419   -0.0002 S.2     1  LIG1       -0.0936
     14 H           0.9854    8.9502    0.0002 H       1  LIG1        0.0693
     15 H          -1.8340    5.1357   -0.0002 H       1  LIG1        0.0630
     16 H          -1.7370    7.9869    0.0017 H       1  LIG1        0.0623
@<TRIPOS>BOND
     1    15    10    1
     2     5     4   ar
     3     5     1   ar
     4    13     9   ar
     5    13    12   ar
     6     4     9    1
     7     4     3   ar
     8     9    10   ar
     9     1     2   ar
    10     1     6    1
    11     2     3   ar
    12     2     7    1
    13     3     8    1
    14    10    11   ar
    15    14    12    1
    16    12    11   ar
    17    11    16    1
