@<TRIPOS>MOLECULE
mol_data/noopt/geoms/mol2/125-124.out
 33 36 0 0 0
SMALL
GASTEIGER

@<TRIPOS>ATOM
      1 C           0.1763    1.8460    0.0000 C.ar    1  LIG1        0.0926
      2 C           1.5558    1.8460    0.0000 C.ar    1  LIG1       -0.0233
      3 C           1.9706    3.2334    0.0000 C.ar    1  LIG1       -0.0154
      4 C           0.8165    3.9895   -0.0001 C.ar    1  LIG1        0.1413
      5 O          -0.3030    3.1567   -0.0002 O.2     1  LIG1       -0.4624
      6 H          -0.7504    0.9343    0.0000 H       1  LIG1        0.1029
      7 H           2.3515    0.8179    0.0001 H       1  LIG1        0.0649
      8 H           3.1998    3.6567    0.0000 H       1  LIG1        0.0655
      9 C           0.5416    5.2601   -0.0001 C.ar    1  LIG1        0.0551
     10 C          -0.7217    5.8086    0.0000 C.ar    1  LIG1       -0.0433
     11 C          -0.6730    7.2399    0.0007 C.ar    1  LIG1       -0.0433
     12 C           0.6246    7.7013    0.0003 C.ar    1  LIG1        0.0551
     13 S           1.7246    6.4419   -0.0002 S.2     1  LIG1       -0.0821
     14 H          -1.8340    5.1357   -0.0002 H       1  LIG1        0.0630
     15 H          -1.7370    7.9869    0.0017 H       1  LIG1        0.0630
     16 C           0.9854    8.9502    0.0002 C.ar    1  LIG1        0.1422
     17 C           2.1877    9.6265    0.0001 C.ar    1  LIG1       -0.0147
     18 C           1.8691   11.0391   -0.0001 C.ar    1  LIG1       -0.0152
     19 C           0.4926   11.1323   -0.0001 C.ar    1  LIG1        0.1357
     20 O          -0.0749    9.8577   -0.0001 O.2     1  LIG1       -0.4543
     21 H           3.3852    9.1205    0.0002 H       1  LIG1        0.0656
     22 H           2.7329   12.0106   -0.0002 H       1  LIG1        0.0656
     23 C           0.0787   13.4416    0.0005 C.ar    1  LIG1       -0.0511
     24 C          -0.8951   14.4590    0.0020 C.ar    1  LIG1       -0.0611
     25 C          -0.3699   12.1050   -0.0002 C.ar    1  LIG1        0.0173
     26 C          -2.2559   14.1610    0.0020 C.ar    1  LIG1       -0.0617
     27 H          -0.5708   15.4972    0.0027 H       1  LIG1        0.0618
     28 C          -1.7283   11.8070   -0.0001 C.ar    1  LIG1       -0.0511
     29 C          -2.6804   12.8317    0.0009 C.ar    1  LIG1       -0.0611
     30 H          -2.0491   10.7683   -0.0006 H       1  LIG1        0.0625
     31 H          -3.1278   15.1253    0.0033 H       1  LIG1        0.0618
     32 H           1.3334   13.7819    0.0002 H       1  LIG1        0.0625
     33 H          -3.9488   12.5471    0.0012 H       1  LIG1        0.0618
@<TRIPOS>BOND
     1    30    28    1
     2    14    10    1
     3     5     4   ar
     4     5     1   ar
     5    25    19    1
     6    25    28   ar
     7    25    23   ar
     8    22    18    1
     9    13     9   ar
    10    13    12   ar
    11    19    20   ar
    12    19    18   ar
    13    28    29   ar
    14     4     9    1
    15     4     3   ar
    16     9    10   ar
    17    20    16   ar
    18    18    17   ar
    19     8     3    1
    20     6     1    1
    21     3     2   ar
    22     2     1   ar
    23     2     7    1
    24    10    11   ar
    25    17    16   ar
    26    17    21    1
    27    16    12    1
    28    32    23    1
    29    12    11   ar
    30    23    24   ar
    31    11    15    1
    32    29    33    1
    33    29    26   ar
    34    24    26   ar
    35    24    27    1
    36    26    31    1
