@<TRIPOS>MOLECULE
mol_data/noopt/geoms/mol2/125-412-.out
 33 36 0 0 0
SMALL
GASTEIGER

@<TRIPOS>ATOM
      1 C           0.1763    1.8460    0.0000 C.ar    1  LIG1        0.0926
      2 C           1.5558    1.8460    0.0000 C.ar    1  LIG1       -0.0233
      3 C           1.9706    3.2334    0.0000 C.ar    1  LIG1       -0.0154
      4 C           0.8165    3.9895   -0.0001 C.ar    1  LIG1        0.1413
      5 O          -0.3030    3.1567   -0.0002 O.2     1  LIG1       -0.4624
      6 H          -0.7504    0.9343    0.0000 H       1  LIG1        0.1029
      7 H           2.3515    0.8179    0.0001 H       1  LIG1        0.0649
      8 H           3.1998    3.6567    0.0000 H       1  LIG1        0.0655
      9 C           0.5416    5.2601   -0.0001 C.ar    1  LIG1        0.0550
     10 C          -0.7217    5.8086    0.0000 C.ar    1  LIG1       -0.0434
     11 C          -0.6730    7.2399    0.0007 C.ar    1  LIG1       -0.0462
     12 C           0.6246    7.7013    0.0003 C.ar    1  LIG1        0.0200
     13 S           1.7246    6.4419   -0.0002 S.2     1  LIG1       -0.0852
     14 H          -1.8340    5.1357   -0.0002 H       1  LIG1        0.0630
     15 H          -1.7370    7.9869    0.0017 H       1  LIG1        0.0629
     16 C           2.3547    9.2858    0.0009 C.ar    1  LIG1       -0.0529
     17 C           2.6937   10.6527    0.0022 C.ar    1  LIG1       -0.0505
     18 C           0.9854    8.9502    0.0002 C.ar    1  LIG1       -0.0113
     19 C           1.7143   11.6433    0.0023 C.ar    1  LIG1        0.0173
     20 H           3.7445   10.9338    0.0030 H       1  LIG1        0.0625
     21 C           0.0072    9.9387    0.0002 C.ar    1  LIG1       -0.0529
     22 C           0.3640   11.2912    0.0012 C.ar    1  LIG1       -0.0505
     23 H          -1.0420    9.6544   -0.0002 H       1  LIG1        0.0624
     24 H           3.3132    8.4075    0.0006 H       1  LIG1        0.0624
     25 H          -0.5547   12.2109    0.0014 H       1  LIG1        0.0625
     26 C           2.0629   12.8957    0.0035 C.ar    1  LIG1        0.1348
     27 C           1.3946   14.1025    0.0044 C.ar    1  LIG1       -0.0159
     28 C           2.4074   15.1375    0.0055 C.ar    1  LIG1       -0.0233
     29 C           3.6280   14.4942    0.0053 C.ar    1  LIG1        0.0926
     30 O           3.4418   13.1114    0.0041 O.2     1  LIG1       -0.4629
     31 H           4.8727   14.8692    0.0059 H       1  LIG1        0.1029
     32 H           0.1098   14.3005    0.0041 H       1  LIG1        0.0655
     33 H           2.1822   16.4178    0.0065 H       1  LIG1        0.0649
@<TRIPOS>BOND
     1    14    10    1
     2    23    21    1
     3     5     4   ar
     4     5     1   ar
     5    13     9   ar
     6    13    12   ar
     7     4     9    1
     8     4     3   ar
     9     9    10   ar
    10     2     3   ar
    11     2     1   ar
    12     2     7    1
    13     3     8    1
    14     6     1    1
    15    10    11   ar
    16    18    21   ar
    17    18    12    1
    18    18    16   ar
    19    21    22   ar
    20    12    11   ar
    21    24    16    1
    22    11    15    1
    23    16    17   ar
    24    22    25    1
    25    22    19   ar
    26    17    19   ar
    27    17    20    1
    28    19    26    1
    29    26    30   ar
    30    26    27   ar
    31    30    29   ar
    32    32    27    1
    33    27    28   ar
    34    29    28   ar
    35    29    31    1
    36    28    33    1
