@<TRIPOS>MOLECULE
mol_data/noopt/geoms/mol2/125-12.out
 23 25 0 0 0
SMALL
GASTEIGER

@<TRIPOS>ATOM
      1 C           0.1763    1.8460    0.0000 C.ar    1  LIG1        0.0926
      2 C           1.5558    1.8460    0.0000 C.ar    1  LIG1       -0.0233
      3 C           1.9706    3.2334    0.0000 C.ar    1  LIG1       -0.0154
      4 C           0.8165    3.9895   -0.0001 C.ar    1  LIG1        0.1413
      5 O          -0.3030    3.1567   -0.0002 O.2     1  LIG1       -0.4624
      6 H          -0.7504    0.9343    0.0000 H       1  LIG1        0.1029
      7 H           2.3515    0.8179    0.0001 H       1  LIG1        0.0649
      8 H           3.1998    3.6567    0.0000 H       1  LIG1        0.0655
      9 C           0.5416    5.2601   -0.0001 C.ar    1  LIG1        0.0551
     10 C          -0.7217    5.8086    0.0000 C.ar    1  LIG1       -0.0433
     11 C          -0.6730    7.2399    0.0007 C.ar    1  LIG1       -0.0433
     12 C           0.6246    7.7013    0.0003 C.ar    1  LIG1        0.0551
     13 S           1.7246    6.4419   -0.0002 S.2     1  LIG1       -0.0821
     14 H          -1.8340    5.1357   -0.0002 H       1  LIG1        0.0630
     15 H          -1.7370    7.9869    0.0017 H       1  LIG1        0.0630
     16 C           0.9854    8.9502    0.0002 C.ar    1  LIG1        0.1413
     17 C           2.1877    9.6265    0.0001 C.ar    1  LIG1       -0.0154
     18 C           1.8691   11.0391   -0.0001 C.ar    1  LIG1       -0.0233
     19 C           0.4926   11.1323   -0.0001 C.ar    1  LIG1        0.0926
     20 O          -0.0749    9.8577   -0.0001 O.2     1  LIG1       -0.4624
     21 H          -0.3699   12.1050   -0.0002 H       1  LIG1        0.1029
     22 H           3.3852    9.1205    0.0002 H       1  LIG1        0.0655
     23 H           2.7329   12.0106   -0.0002 H       1  LIG1        0.0649
@<TRIPOS>BOND
     1    14    10    1
     2     5     4   ar
     3     5     1   ar
     4    21    19    1
     5    23    18    1
     6    13     9   ar
     7    13    12   ar
     8    19    20   ar
     9    19    18   ar
    10     4     9    1
    11     4     3   ar
    12     9    10   ar
    13    20    16   ar
    14    18    17   ar
    15     1     6    1
    16     1     2   ar
    17     8     3    1
    18     3     2   ar
    19     2     7    1
    20    10    11   ar
    21    17    16   ar
    22    17    22    1
    23    16    12    1
    24    12    11   ar
    25    11    15    1
