@<TRIPOS>MOLECULE
mol_data/noopt/geoms/mol2/125-13.out
 24 26 0 0 0
SMALL
GASTEIGER

@<TRIPOS>ATOM
      1 C           0.1763    1.8460    0.0000 C.ar    1  LIG1        0.0926
      2 C           1.5558    1.8460    0.0000 C.ar    1  LIG1       -0.0233
      3 C           1.9706    3.2334    0.0000 C.ar    1  LIG1       -0.0154
      4 C           0.8165    3.9895   -0.0001 C.ar    1  LIG1        0.1413
      5 O          -0.3030    3.1567   -0.0002 O.2     1  LIG1       -0.4624
      6 H          -0.7504    0.9343    0.0000 H       1  LIG1        0.1029
      7 H           2.3515    0.8179    0.0001 H       1  LIG1        0.0649
      8 H           3.1998    3.6567    0.0000 H       1  LIG1        0.0655
      9 C           0.5416    5.2601   -0.0001 C.ar    1  LIG1        0.0550
     10 C          -0.7217    5.8086    0.0000 C.ar    1  LIG1       -0.0433
     11 C          -0.6730    7.2399    0.0007 C.ar    1  LIG1       -0.0448
     12 C           0.6246    7.7013    0.0003 C.ar    1  LIG1        0.0361
     13 S           1.7246    6.4419   -0.0002 S.2     1  LIG1       -0.0837
     14 H          -1.8340    5.1357   -0.0002 H       1  LIG1        0.0630
     15 H          -1.7370    7.9869    0.0017 H       1  LIG1        0.0630
     16 C           0.9854    8.9503    0.0002 C.ar    1  LIG1        0.0531
     17 C           2.2240    9.5105   -0.0003 C.ar    1  LIG1       -0.0359
     18 C           2.0504   10.9319    0.0009 C.ar    1  LIG1       -0.0438
     19 C           0.7134   11.1778    0.0003 C.ar    1  LIG1        0.0022
     20 N           0.0577    9.9673    0.0003 N.ar    1  LIG1       -0.3603
     21 H          -0.9290    9.8469   -0.0002 H       1  LIG1        0.1653
     22 H           0.0627   12.3032    0.0007 H       1  LIG1        0.0807
     23 H           3.3554    8.8704   -0.0002 H       1  LIG1        0.0639
     24 H           2.9946   11.8255    0.0019 H       1  LIG1        0.0633
@<TRIPOS>BOND
     1    17    23    1
     2    17    16   ar
     3    17    18   ar
     4    14    10    1
     5    21    20    1
     6     5     4   ar
     7     5     1   ar
     8    13     9   ar
     9    13    12   ar
    10     4     9    1
    11     4     3   ar
    12     9    10   ar
    13     1     6    1
    14     1     2   ar
    15     8     3    1
    16     3     2   ar
    17     2     7    1
    18    10    11   ar
    19    16    20   ar
    20    16    12    1
    21    19    20   ar
    22    19    22    1
    23    19    18   ar
    24    12    11   ar
    25    11    15    1
    26    18    24    1
