@<TRIPOS>MOLECULE
mol_data/noopt/geoms/mol2/125-135-.out
 31 34 0 0 0
SMALL
GASTEIGER

@<TRIPOS>ATOM
      1 C           0.1763    1.8460    0.0000 C.ar    1  LIG1        0.0926
      2 C           1.5558    1.8460    0.0000 C.ar    1  LIG1       -0.0233
      3 C           1.9706    3.2334    0.0000 C.ar    1  LIG1       -0.0154
      4 C           0.8165    3.9895   -0.0001 C.ar    1  LIG1        0.1413
      5 O          -0.3030    3.1567   -0.0002 O.2     1  LIG1       -0.4624
      6 H          -0.7504    0.9343    0.0000 H       1  LIG1        0.1029
      7 H           2.3515    0.8179    0.0001 H       1  LIG1        0.0649
      8 H           3.1998    3.6567    0.0000 H       1  LIG1        0.0655
      9 C           0.5416    5.2601   -0.0001 C.ar    1  LIG1        0.0550
     10 C          -0.7217    5.8086    0.0000 C.ar    1  LIG1       -0.0433
     11 C          -0.6730    7.2399    0.0007 C.ar    1  LIG1       -0.0448
     12 C           0.6246    7.7013    0.0003 C.ar    1  LIG1        0.0362
     13 S           1.7246    6.4419   -0.0002 S.2     1  LIG1       -0.0837
     14 H          -1.8340    5.1357   -0.0002 H       1  LIG1        0.0630
     15 H          -1.7370    7.9869    0.0017 H       1  LIG1        0.0630
     16 C           0.9854    8.9503    0.0002 C.ar    1  LIG1        0.0536
     17 C           2.2240    9.5105   -0.0003 C.ar    1  LIG1       -0.0353
     18 C           2.0504   10.9319    0.0009 C.ar    1  LIG1       -0.0353
     19 C           0.7134   11.1778    0.0003 C.ar    1  LIG1        0.0536
     20 N           0.0577    9.9673    0.0003 N.ar    1  LIG1       -0.3533
     21 H          -0.9290    9.8469   -0.0002 H       1  LIG1        0.1659
     22 H           3.3554    8.8704   -0.0002 H       1  LIG1        0.0639
     23 H           2.9946   11.8255    0.0019 H       1  LIG1        0.0639
     24 C           0.0627   12.3032    0.0007 C.ar    1  LIG1        0.0355
     25 C          -1.3079   12.4386    0.0011 C.ar    1  LIG1       -0.0455
     26 C          -1.6997   13.8161    0.0023 C.ar    1  LIG1       -0.0541
     27 C          -0.6057   14.6526    0.0020 C.ar    1  LIG1       -0.0237
     28 S           0.8271   13.7905    0.0009 S.2     1  LIG1       -0.0952
     29 H          -0.6447   15.9520    0.0022 H       1  LIG1        0.0693
     30 H          -2.1607   11.4575    0.0007 H       1  LIG1        0.0629
     31 H          -2.9413   14.2014    0.0036 H       1  LIG1        0.0623
@<TRIPOS>BOND
     1    17    22    1
     2    17    16   ar
     3    17    18   ar
     4    14    10    1
     5    21    20    1
     6     5     4   ar
     7     5     1   ar
     8    13     9   ar
     9    13    12   ar
    10     4     9    1
    11     4     3   ar
    12     9    10   ar
    13     2     3   ar
    14     2     1   ar
    15     2     7    1
    16     3     8    1
    17     6     1    1
    18    10    11   ar
    19    16    20   ar
    20    16    12    1
    21    19    20   ar
    22    19    24    1
    23    19    18   ar
    24    12    11   ar
    25    30    25    1
    26    24    28   ar
    27    24    25   ar
    28    11    15    1
    29    18    23    1
    30    28    27   ar
    31    25    26   ar
    32    27    29    1
    33    27    26   ar
    34    26    31    1
