@<TRIPOS>MOLECULE
mol_data/noopt/geoms/mol2/125-13-.out
 24 26 0 0 0
SMALL
GASTEIGER

@<TRIPOS>ATOM
      1 C           0.1763    1.8460    0.0000 C.ar    1  LIG1        0.0926
      2 C           1.5558    1.8460    0.0000 C.ar    1  LIG1       -0.0233
      3 C           1.9706    3.2334    0.0000 C.ar    1  LIG1       -0.0154
      4 C           0.8165    3.9895   -0.0001 C.ar    1  LIG1        0.1413
      5 O          -0.3030    3.1567   -0.0002 O.2     1  LIG1       -0.4624
      6 H          -0.7504    0.9343    0.0000 H       1  LIG1        0.1029
      7 H           2.3515    0.8179    0.0001 H       1  LIG1        0.0649
      8 H           3.1998    3.6567    0.0000 H       1  LIG1        0.0655
      9 C           0.5416    5.2601   -0.0001 C.ar    1  LIG1        0.0550
     10 C          -0.7217    5.8086    0.0000 C.ar    1  LIG1       -0.0433
     11 C          -0.6730    7.2399    0.0007 C.ar    1  LIG1       -0.0448
     12 C           0.6246    7.7013    0.0003 C.ar    1  LIG1        0.0361
     13 S           1.7246    6.4419   -0.0002 S.2     1  LIG1       -0.0837
     14 H          -1.8340    5.1357   -0.0002 H       1  LIG1        0.0630
     15 H          -1.7370    7.9869    0.0017 H       1  LIG1        0.0630
     16 C           0.9854    8.9503    0.0002 C.ar    1  LIG1        0.0531
     17 C           0.2363   10.0846    0.0006 C.ar    1  LIG1       -0.0359
     18 C           1.1411   11.1946   -0.0009 C.ar    1  LIG1       -0.0438
     19 C           2.4033   10.6897   -0.0004 C.ar    1  LIG1        0.0022
     20 N           2.3125    9.3160   -0.0002 N.ar    1  LIG1       -0.3603
     21 H           3.0830    8.6880    0.0002 H       1  LIG1        0.1653
     22 H           3.5538   11.2948   -0.0012 H       1  LIG1        0.0807
     23 H          -1.0622   10.1464    0.0007 H       1  LIG1        0.0639
     24 H           0.8188   12.4540   -0.0021 H       1  LIG1        0.0633
@<TRIPOS>BOND
     1    24    18    1
     2    22    19    1
     3    18    19   ar
     4    18    17   ar
     5    19    20   ar
     6    14    10    1
     7    20    16   ar
     8    20    21    1
     9     5     4   ar
    10     5     1   ar
    11    13     9   ar
    12    13    12   ar
    13     9     4    1
    14     9    10   ar
    15     4     3   ar
    16     1     6    1
    17     1     2   ar
    18     8     3    1
    19     3     2   ar
    20     2     7    1
    21    10    11   ar
    22    16    12    1
    23    16    17   ar
    24    12    11   ar
    25    17    23    1
    26    11    15    1
