@<TRIPOS>MOLECULE
mol_data/noopt/geoms/mol2/125-13-8.out
 30 33 0 0 0
SMALL
GASTEIGER

@<TRIPOS>ATOM
      1 C           0.1763    1.8460    0.0000 C.ar    1  LIG1        0.0926
      2 C           1.5558    1.8460    0.0000 C.ar    1  LIG1       -0.0233
      3 C           1.9706    3.2334    0.0000 C.ar    1  LIG1       -0.0154
      4 C           0.8165    3.9895   -0.0001 C.ar    1  LIG1        0.1413
      5 O          -0.3030    3.1567   -0.0002 O.2     1  LIG1       -0.4624
      6 H          -0.7504    0.9343    0.0000 H       1  LIG1        0.1029
      7 H           2.3515    0.8179    0.0001 H       1  LIG1        0.0649
      8 H           3.1998    3.6567    0.0000 H       1  LIG1        0.0655
      9 C           0.5416    5.2601   -0.0001 C.ar    1  LIG1        0.0550
     10 C          -0.7217    5.8086    0.0000 C.ar    1  LIG1       -0.0433
     11 C          -0.6730    7.2399    0.0007 C.ar    1  LIG1       -0.0448
     12 C           0.6246    7.7013    0.0003 C.ar    1  LIG1        0.0362
     13 S           1.7246    6.4419   -0.0002 S.2     1  LIG1       -0.0837
     14 H          -1.8340    5.1357   -0.0002 H       1  LIG1        0.0630
     15 H          -1.7370    7.9869    0.0017 H       1  LIG1        0.0630
     16 C           0.9854    8.9503    0.0002 C.ar    1  LIG1        0.0537
     17 C           0.2363   10.0846    0.0006 C.ar    1  LIG1       -0.0352
     18 C           1.1411   11.1946   -0.0009 C.ar    1  LIG1       -0.0326
     19 C           2.4033   10.6897   -0.0004 C.ar    1  LIG1        0.0880
     20 N           2.3125    9.3160   -0.0002 N.ar    1  LIG1       -0.3512
     21 H           3.0830    8.6880    0.0002 H       1  LIG1        0.1660
     22 H          -1.0622   10.1464    0.0007 H       1  LIG1        0.0639
     23 H           0.8188   12.4540   -0.0021 H       1  LIG1        0.0640
     24 C           3.5539   11.2948   -0.0012 C.ar    1  LIG1        0.2193
     25 N           4.6593   10.5007   -0.0016 N.ar    1  LIG1       -0.1243
     26 C           5.9397   12.5496   -0.0028 C.ar    1  LIG1        0.1605
     27 N           3.5261   12.6557   -0.0016 N.ar    1  LIG1       -0.1243
     28 N           5.8455   11.1443   -0.0024 N.ar    1  LIG1       -0.1338
     29 N           4.7285   13.2682   -0.0025 N.ar    1  LIG1       -0.1338
     30 H           7.0903   13.1547   -0.0036 H       1  LIG1        0.1085
@<TRIPOS>BOND
     1    30    26    1
     2    26    29   ar
     3    26    28   ar
     4    29    27   ar
     5    28    25   ar
     6    23    18    1
     7    27    24   ar
     8    25    24   ar
     9    24    19    1
    10    18    19   ar
    11    18    17   ar
    12    19    20   ar
    13    14    10    1
    14    20    16   ar
    15    20    21    1
    16     5     4   ar
    17     5     1   ar
    18    13     9   ar
    19    13    12   ar
    20     9     4    1
    21     9    10   ar
    22     4     3   ar
    23     1     6    1
    24     1     2   ar
    25     8     3    1
    26     3     2   ar
    27     2     7    1
    28    10    11   ar
    29    16    12    1
    30    16    17   ar
    31    12    11   ar
    32    17    22    1
    33    11    15    1
