@<TRIPOS>MOLECULE
mol_data/noopt/geoms/mol2/125.out
 16 17 0 0 0
SMALL
GASTEIGER

@<TRIPOS>ATOM
      1 C           0.1763    1.8460    0.0000 C.ar    1  LIG1        0.0926
      2 C           1.5558    1.8460    0.0000 C.ar    1  LIG1       -0.0233
      3 C           1.9706    3.2334    0.0000 C.ar    1  LIG1       -0.0154
      4 C           0.8165    3.9895   -0.0001 C.ar    1  LIG1        0.1413
      5 O          -0.3030    3.1567   -0.0002 O.2     1  LIG1       -0.4624
      6 H          -0.7504    0.9343    0.0000 H       1  LIG1        0.1029
      7 H           2.3515    0.8179    0.0001 H       1  LIG1        0.0649
      8 H           3.1998    3.6567    0.0000 H       1  LIG1        0.0655
      9 C           0.5416    5.2601   -0.0001 C.ar    1  LIG1        0.0544
     10 C           1.4652    6.2817   -0.0005 C.ar    1  LIG1       -0.0440
     11 C           0.8292    7.5649   -0.0011 C.ar    1  LIG1       -0.0540
     12 C          -0.5431    7.4487   -0.0004 C.ar    1  LIG1       -0.0236
     13 S          -1.0242    5.8472    0.0003 S.2     1  LIG1       -0.0936
     14 H          -1.3879    8.4368   -0.0001 H       1  LIG1        0.0693
     15 H           2.7561    6.1288   -0.0005 H       1  LIG1        0.0630
     16 H           1.4893    8.6849   -0.0023 H       1  LIG1        0.0623
@<TRIPOS>BOND
     1    16    11    1
     2    11    10   ar
     3    11    12   ar
     4    15    10    1
     5    10     9   ar
     6    12    14    1
     7    12    13   ar
     8     5     4   ar
     9     5     1   ar
    10     4     9    1
    11     4     3   ar
    12     9    13   ar
    13     1     2   ar
    14     1     6    1
    15     2     3   ar
    16     2     7    1
    17     3     8    1
