@<TRIPOS>MOLECULE
mol_data/noopt/geoms/mol2/125138-.out
 30 33 0 0 0
SMALL
GASTEIGER

@<TRIPOS>ATOM
      1 C           0.1763    1.8460    0.0000 C.ar    1  LIG1        0.0926
      2 C           1.5558    1.8460    0.0000 C.ar    1  LIG1       -0.0233
      3 C           1.9706    3.2334    0.0000 C.ar    1  LIG1       -0.0154
      4 C           0.8165    3.9895   -0.0001 C.ar    1  LIG1        0.1413
      5 O          -0.3030    3.1567   -0.0002 O.2     1  LIG1       -0.4624
      6 H          -0.7504    0.9343    0.0000 H       1  LIG1        0.1029
      7 H           2.3515    0.8179    0.0001 H       1  LIG1        0.0649
      8 H           3.1998    3.6567    0.0000 H       1  LIG1        0.0655
      9 C           0.5416    5.2601   -0.0001 C.ar    1  LIG1        0.0550
     10 C           1.4652    6.2817   -0.0005 C.ar    1  LIG1       -0.0433
     11 C           0.8292    7.5649   -0.0011 C.ar    1  LIG1       -0.0448
     12 C          -0.5431    7.4487   -0.0004 C.ar    1  LIG1        0.0362
     13 S          -1.0242    5.8472    0.0003 S.2     1  LIG1       -0.0837
     14 H           2.7561    6.1288   -0.0005 H       1  LIG1        0.0630
     15 H           1.4893    8.6849   -0.0023 H       1  LIG1        0.0630
     16 C          -1.3879    8.4368   -0.0001 C.ar    1  LIG1        0.0537
     17 C          -1.1747    9.7794   -0.0003 C.ar    1  LIG1       -0.0352
     18 C          -2.4573   10.4161    0.0013 C.ar    1  LIG1       -0.0326
     19 C          -3.3979    9.4346    0.0006 C.ar    1  LIG1        0.0880
     20 N          -2.7475    8.2212    0.0002 N.ar    1  LIG1       -0.3512
     21 H          -3.1895    7.3309   -0.0004 H       1  LIG1        0.1660
     22 H          -0.0178   10.3724   -0.0003 H       1  LIG1        0.0639
     23 H          -2.6845   11.6961    0.0027 H       1  LIG1        0.0640
     24 C          -4.6958    9.5099    0.0013 C.ar    1  LIG1        0.2193
     25 N          -5.3741    8.3300    0.0017 N.ar    1  LIG1       -0.1243
     26 C          -7.3869    9.6663    0.0029 C.ar    1  LIG1        0.1605
     27 N          -5.2330   10.7606    0.0017 N.ar    1  LIG1       -0.1243
     28 N          -6.7202    8.4257    0.0024 N.ar    1  LIG1       -0.1338
     29 N          -6.5811   10.8213    0.0025 N.ar    1  LIG1       -0.1338
     30 H          -8.6847    9.7417    0.0036 H       1  LIG1        0.1085
@<TRIPOS>BOND
     1    15    11    1
     2    11    10   ar
     3    11    12   ar
     4    14    10    1
     5    10     9   ar
     6    21    20    1
     7    12    16    1
     8    12    13   ar
     9    17    22    1
    10    17    16   ar
    11    17    18   ar
    12     5     4   ar
    13     5     1   ar
    14    16    20   ar
    15     4     9    1
    16     4     3   ar
    17     9    13   ar
    18     1     6    1
    19     1     2   ar
    20     8     3    1
    21     2     3   ar
    22     2     7    1
    23    20    19   ar
    24    19    18   ar
    25    19    24    1
    26    18    23    1
    27    24    25   ar
    28    24    27   ar
    29    25    28   ar
    30    27    29   ar
    31    28    26   ar
    32    29    26   ar
    33    26    30    1
