@<TRIPOS>MOLECULE
mol_data/noopt/geoms/mol2/125128.out
 29 32 0 0 0
SMALL
GASTEIGER

@<TRIPOS>ATOM
      1 C           0.1763    1.8460    0.0000 C.ar    1  LIG1        0.0926
      2 C           1.5558    1.8460    0.0000 C.ar    1  LIG1       -0.0233
      3 C           1.9706    3.2334    0.0000 C.ar    1  LIG1       -0.0154
      4 C           0.8165    3.9895   -0.0001 C.ar    1  LIG1        0.1413
      5 O          -0.3030    3.1567   -0.0002 O.2     1  LIG1       -0.4624
      6 H          -0.7504    0.9343    0.0000 H       1  LIG1        0.1029
      7 H           2.3515    0.8179    0.0001 H       1  LIG1        0.0649
      8 H           3.1998    3.6567    0.0000 H       1  LIG1        0.0655
      9 C           0.5416    5.2601   -0.0001 C.ar    1  LIG1        0.0551
     10 C           1.4652    6.2817   -0.0005 C.ar    1  LIG1       -0.0433
     11 C           0.8292    7.5649   -0.0011 C.ar    1  LIG1       -0.0433
     12 C          -0.5431    7.4487   -0.0004 C.ar    1  LIG1        0.0551
     13 S          -1.0242    5.8472    0.0003 S.2     1  LIG1       -0.0821
     14 H           2.7561    6.1288   -0.0005 H       1  LIG1        0.0630
     15 H           1.4893    8.6849   -0.0023 H       1  LIG1        0.0630
     16 C          -1.3878    8.4368   -0.0001 C.ar    1  LIG1        0.1424
     17 C          -1.2915    9.8129    0.0001 C.ar    1  LIG1       -0.0146
     18 C          -2.6465   10.3236    0.0003 C.ar    1  LIG1       -0.0120
     19 C          -3.4814    9.2251    0.0002 C.ar    1  LIG1        0.1760
     20 O          -2.7288    8.0502   -0.0002 O.2     1  LIG1       -0.4511
     21 H          -0.2104   10.5348    0.0002 H       1  LIG1        0.0656
     22 H          -2.9829   11.5793    0.0006 H       1  LIG1        0.0657
     23 C          -4.7681    9.0396    0.0003 C.ar    1  LIG1        0.2381
     24 N          -5.5444   10.1576    0.0004 N.ar    1  LIG1       -0.1226
     25 C          -7.4362    8.6549    0.0006 C.ar    1  LIG1        0.1605
     26 N          -5.1970    7.7478    0.0004 N.ar    1  LIG1       -0.1226
     27 N          -6.8775    9.9478    0.0006 N.ar    1  LIG1       -0.1338
     28 N          -6.5351    7.5726    0.0005 N.ar    1  LIG1       -0.1338
     29 H          -8.7229    8.4694    0.0008 H       1  LIG1        0.1085
@<TRIPOS>BOND
     1    15    11    1
     2    11    10   ar
     3    11    12   ar
     4    14    10    1
     5    10     9   ar
     6    12    16    1
     7    12    13   ar
     8    20    16   ar
     9    20    19   ar
    10     5     4   ar
    11     5     1   ar
    12    16    17   ar
    13     4     9    1
    14     4     3   ar
    15     9    13   ar
    16     1     6    1
    17     1     2   ar
    18     8     3    1
    19     3     2   ar
    20     2     7    1
    21    17    21    1
    22    17    18   ar
    23    19    23    1
    24    19    18   ar
    25    23    24   ar
    26    23    26   ar
    27    18    22    1
    28    24    27   ar
    29    26    28   ar
    30    28    25   ar
    31    27    25   ar
    32    25    29    1
