@<TRIPOS>MOLECULE
mol_data/noopt/geoms/mol2/12513-.out
 24 26 0 0 0
SMALL
GASTEIGER

@<TRIPOS>ATOM
      1 C           0.1763    1.8460    0.0000 C.ar    1  LIG1        0.0926
      2 C           1.5558    1.8460    0.0000 C.ar    1  LIG1       -0.0233
      3 C           1.9706    3.2334    0.0000 C.ar    1  LIG1       -0.0154
      4 C           0.8165    3.9895   -0.0001 C.ar    1  LIG1        0.1413
      5 O          -0.3030    3.1567   -0.0002 O.2     1  LIG1       -0.4624
      6 H          -0.7504    0.9343    0.0000 H       1  LIG1        0.1029
      7 H           2.3515    0.8179    0.0001 H       1  LIG1        0.0649
      8 H           3.1998    3.6567    0.0000 H       1  LIG1        0.0655
      9 C           0.5416    5.2601   -0.0001 C.ar    1  LIG1        0.0550
     10 C           1.4652    6.2817   -0.0005 C.ar    1  LIG1       -0.0433
     11 C           0.8292    7.5649   -0.0011 C.ar    1  LIG1       -0.0448
     12 C          -0.5431    7.4487   -0.0004 C.ar    1  LIG1        0.0361
     13 S          -1.0242    5.8472    0.0003 S.2     1  LIG1       -0.0837
     14 H           2.7561    6.1288   -0.0005 H       1  LIG1        0.0630
     15 H           1.4893    8.6849   -0.0023 H       1  LIG1        0.0630
     16 C          -1.3879    8.4368   -0.0001 C.ar    1  LIG1        0.0531
     17 C          -2.7472    8.4349    0.0006 C.ar    1  LIG1       -0.0359
     18 C          -3.1768    9.8010   -0.0005 C.ar    1  LIG1       -0.0438
     19 C          -2.0610   10.5776   -0.0001 C.ar    1  LIG1        0.0022
     20 N          -0.9635    9.7464   -0.0003 N.ar    1  LIG1       -0.3603
     21 H          -0.0153   10.0445    0.0000 H       1  LIG1        0.1653
     22 H          -1.9337   11.8713   -0.0006 H       1  LIG1        0.0807
     23 H          -3.5129    7.3844    0.0006 H       1  LIG1        0.0639
     24 H          -4.4059   10.2244   -0.0014 H       1  LIG1        0.0633
@<TRIPOS>BOND
     1    15    11    1
     2    24    18    1
     3    11    10   ar
     4    11    12   ar
     5    22    19    1
     6    18    19   ar
     7    18    17   ar
     8    14    10    1
     9    10     9   ar
    10    12    16    1
    11    12    13   ar
    12    20    16   ar
    13    20    19   ar
    14    20    21    1
    15     5     4   ar
    16     5     1   ar
    17    16    17   ar
    18     4     9    1
    19     4     3   ar
    20     9    13   ar
    21     1     6    1
    22     1     2   ar
    23     8     3    1
    24     3     2   ar
    25     2     7    1
    26    17    23    1
