@<TRIPOS>MOLECULE
mol_data/noopt/geoms/mol2/1255.out
 23 25 0 0 0
SMALL
GASTEIGER

@<TRIPOS>ATOM
      1 C           0.1763    1.8460    0.0000 C.ar    1  LIG1        0.0926
      2 C           1.5558    1.8460    0.0000 C.ar    1  LIG1       -0.0233
      3 C           1.9706    3.2334    0.0000 C.ar    1  LIG1       -0.0154
      4 C           0.8165    3.9895   -0.0001 C.ar    1  LIG1        0.1413
      5 O          -0.3030    3.1567   -0.0002 O.2     1  LIG1       -0.4624
      6 H          -0.7504    0.9343    0.0000 H       1  LIG1        0.1029
      7 H           2.3515    0.8179    0.0001 H       1  LIG1        0.0649
      8 H           3.1998    3.6567    0.0000 H       1  LIG1        0.0655
      9 C           0.5416    5.2601   -0.0001 C.ar    1  LIG1        0.0550
     10 C           1.4652    6.2817   -0.0005 C.ar    1  LIG1       -0.0434
     11 C           0.8292    7.5649   -0.0011 C.ar    1  LIG1       -0.0457
     12 C          -0.5431    7.4487   -0.0004 C.ar    1  LIG1        0.0266
     13 S          -1.0242    5.8472    0.0003 S.2     1  LIG1       -0.0847
     14 H           2.7561    6.1288   -0.0005 H       1  LIG1        0.0630
     15 H           1.4893    8.6849   -0.0023 H       1  LIG1        0.0629
     16 C          -1.3879    8.4368   -0.0001 C.ar    1  LIG1        0.0259
     17 C          -1.0595    9.7743   -0.0003 C.ar    1  LIG1       -0.0464
     18 C          -2.2281   10.6022   -0.0007 C.ar    1  LIG1       -0.0541
     19 C          -3.3810    9.8488    0.0001 C.ar    1  LIG1       -0.0237
     20 S          -3.0447    8.2108    0.0004 S.2     1  LIG1       -0.0961
     21 H          -4.5934   10.3180    0.0006 H       1  LIG1        0.0693
     22 H           0.1495   10.2521   -0.0004 H       1  LIG1        0.0629
     23 H          -2.1783   11.9012   -0.0016 H       1  LIG1        0.0623
@<TRIPOS>BOND
     1    15    11    1
     2    23    18    1
     3    11    10   ar
     4    11    12   ar
     5    18    17   ar
     6    18    19   ar
     7    14    10    1
     8    10     9   ar
     9    22    17    1
    10    12    16    1
    11    12    13   ar
    12    17    16   ar
    13     5     4   ar
    14     5     1   ar
    15    16    20   ar
    16     9     4    1
    17     9    13   ar
    18     4     3   ar
    19     8     3    1
    20     1     6    1
    21     1     2   ar
    22     3     2   ar
    23     2     7    1
    24    19    20   ar
    25    19    21    1
