@<TRIPOS>MOLECULE
mol_data/noopt/geoms/mol2/1258-5-.out
 29 32 0 0 0
SMALL
GASTEIGER

@<TRIPOS>ATOM
      1 C           0.1763    1.8460    0.0000 C.ar    1  LIG1        0.0926
      2 C           1.5558    1.8460    0.0000 C.ar    1  LIG1       -0.0233
      3 C           1.9706    3.2334    0.0000 C.ar    1  LIG1       -0.0154
      4 C           0.8165    3.9895   -0.0001 C.ar    1  LIG1        0.1413
      5 O          -0.3030    3.1567   -0.0002 O.2     1  LIG1       -0.4624
      6 H          -0.7504    0.9343    0.0000 H       1  LIG1        0.1029
      7 H           2.3515    0.8179    0.0001 H       1  LIG1        0.0649
      8 H           3.1998    3.6567    0.0000 H       1  LIG1        0.0655
      9 C           0.5416    5.2601   -0.0001 C.ar    1  LIG1        0.0551
     10 C           1.4652    6.2817   -0.0005 C.ar    1  LIG1       -0.0433
     11 C           0.8292    7.5649   -0.0011 C.ar    1  LIG1       -0.0431
     12 C          -0.5431    7.4487   -0.0004 C.ar    1  LIG1        0.0605
     13 S          -1.0242    5.8472    0.0003 S.2     1  LIG1       -0.0820
     14 H           2.7561    6.1288   -0.0005 H       1  LIG1        0.0630
     15 H           1.4893    8.6849   -0.0023 H       1  LIG1        0.0630
     16 C          -1.3879    8.4368   -0.0001 C.ar    1  LIG1        0.2099
     17 N          -2.7088    8.1085    0.0000 N.ar    1  LIG1       -0.1247
     18 C          -3.1395   10.4858    0.0004 C.ar    1  LIG1        0.2099
     19 N          -0.8581    9.6907    0.0000 N.ar    1  LIG1       -0.1247
     20 N          -3.5723    9.1456    0.0003 N.ar    1  LIG1       -0.1247
     21 N          -1.7483   10.7049    0.0004 N.ar    1  LIG1       -0.1247
     22 C          -3.9842   11.4739    0.0007 C.ar    1  LIG1        0.0598
     23 C          -5.3565   11.3575    0.0010 C.ar    1  LIG1       -0.0438
     24 C          -5.9926   12.6406    0.0020 C.ar    1  LIG1       -0.0540
     25 C          -5.0692   13.6623    0.0016 C.ar    1  LIG1       -0.0236
     26 S          -3.5034   13.0755    0.0008 S.2     1  LIG1       -0.0934
     27 H          -5.3441   14.9329    0.0017 H       1  LIG1        0.0693
     28 H          -6.0165   10.2375    0.0007 H       1  LIG1        0.0630
     29 H          -7.2836   12.7934    0.0032 H       1  LIG1        0.0623
@<TRIPOS>BOND
     1    15    11    1
     2    11    10   ar
     3    11    12   ar
     4    14    10    1
     5    10     9   ar
     6    12    16    1
     7    12    13   ar
     8     5     4   ar
     9     5     1   ar
    10    16    17   ar
    11    16    19   ar
    12     4     9    1
    13     4     3   ar
    14     9    13   ar
    15     1     6    1
    16     1     2   ar
    17     3     2   ar
    18     3     8    1
    19     2     7    1
    20    17    20   ar
    21    19    21   ar
    22    20    18   ar
    23    21    18   ar
    24    18    22    1
    25    28    23    1
    26    22    26   ar
    27    22    23   ar
    28    26    25   ar
    29    23    24   ar
    30    25    27    1
    31    25    24   ar
    32    24    29    1
