@<TRIPOS>MOLECULE
mol_data/noopt/geoms/mol2/128-12-8-.out
 28 31 0 0 0
SMALL
GASTEIGER

@<TRIPOS>ATOM
      1 C           0.1763    1.8460    0.0000 C.ar    1  LIG1        0.0927
      2 C           1.5558    1.8460    0.0000 C.ar    1  LIG1       -0.0232
      3 C           1.9706    3.2334    0.0000 C.ar    1  LIG1       -0.0126
      4 C           0.8165    3.9895   -0.0001 C.ar    1  LIG1        0.1751
      5 O          -0.3030    3.1567   -0.0002 O.2     1  LIG1       -0.4597
      6 H          -0.7504    0.9343    0.0000 H       1  LIG1        0.1029
      7 H           2.3515    0.8179    0.0001 H       1  LIG1        0.0649
      8 H           3.1998    3.6567    0.0000 H       1  LIG1        0.0656
      9 C           0.5416    5.2601   -0.0001 C.ar    1  LIG1        0.2381
     10 N          -0.7770    5.5977   -0.0001 N.ar    1  LIG1       -0.1219
     11 C          -0.0283    7.8948   -0.0001 C.ar    1  LIG1        0.2381
     12 N           1.6027    6.1126   -0.0001 N.ar    1  LIG1       -0.1219
     13 N          -1.0452    6.9203   -0.0001 N.ar    1  LIG1       -0.1219
     14 N           1.3002    7.4278   -0.0000 N.ar    1  LIG1       -0.1219
     15 C          -0.3032    9.1654   -0.0001 C.ar    1  LIG1        0.1761
     16 C          -1.4568    9.9220   -0.0001 C.ar    1  LIG1       -0.0119
     17 C          -1.0427   11.3096   -0.0001 C.ar    1  LIG1       -0.0119
     18 C           0.3370   11.3089   -0.0000 C.ar    1  LIG1        0.1761
     19 O           0.8164    9.9986    0.0001 O.2     1  LIG1       -0.4483
     20 H          -2.6859    9.4987   -0.0002 H       1  LIG1        0.0657
     21 H          -1.8384   12.3377   -0.0001 H       1  LIG1        0.0657
     22 C           1.2637   12.2206   -0.0000 C.ar    1  LIG1        0.2381
     23 N           0.8440   13.5154   -0.0001 N.ar    1  LIG1       -0.1226
     24 C           3.1854   14.1111   -0.0001 C.ar    1  LIG1        0.1605
     25 N           2.5515   11.7798   -0.0001 N.ar    1  LIG1       -0.1226
     26 N           1.8182   14.4492   -0.0001 N.ar    1  LIG1       -0.1338
     27 N           3.5011   12.7386    0.0000 N.ar    1  LIG1       -0.1338
     28 H           4.1121   15.0228   -0.0001 H       1  LIG1        0.1085
@<TRIPOS>BOND
     1     5     4   ar
     2     5     1   ar
     3    20    16    1
     4    28    24    1
     5    15    11    1
     6    15    16   ar
     7    15    19   ar
     8    13    11   ar
     9    13    10   ar
    10    12     9   ar
    11    12    14   ar
    12    11    14   ar
    13    10     9   ar
    14     9     4    1
    15     4     3   ar
    16    24    26   ar
    17    24    27   ar
    18    17    21    1
    19    17    16   ar
    20    17    18   ar
    21    26    23   ar
    22    25    22   ar
    23    25    27   ar
    24    23    22   ar
    25    22    18    1
    26    18    19   ar
    27     2     3   ar
    28     2     1   ar
    29     2     7    1
    30     3     8    1
    31     1     6    1
