@<TRIPOS>MOLECULE
mol_data/noopt/geoms/mol2/128-54-.out
 32 35 0 0 0
SMALL
GASTEIGER

@<TRIPOS>ATOM
      1 C           0.1763    1.8460    0.0000 C.ar    1  LIG1        0.0927
      2 C           1.5558    1.8460    0.0000 C.ar    1  LIG1       -0.0232
      3 C           1.9706    3.2334    0.0000 C.ar    1  LIG1       -0.0126
      4 C           0.8165    3.9895   -0.0001 C.ar    1  LIG1        0.1751
      5 O          -0.3030    3.1567   -0.0002 O.2     1  LIG1       -0.4597
      6 H          -0.7504    0.9343    0.0000 H       1  LIG1        0.1029
      7 H           2.3515    0.8179    0.0001 H       1  LIG1        0.0649
      8 H           3.1998    3.6567    0.0000 H       1  LIG1        0.0656
      9 C           0.5416    5.2601   -0.0001 C.ar    1  LIG1        0.2381
     10 N          -0.7770    5.5977   -0.0001 N.ar    1  LIG1       -0.1220
     11 C          -0.0283    7.8948   -0.0001 C.ar    1  LIG1        0.2099
     12 N           1.6027    6.1126   -0.0001 N.ar    1  LIG1       -0.1220
     13 N          -1.0452    6.9203   -0.0001 N.ar    1  LIG1       -0.1246
     14 N           1.3002    7.4278   -0.0000 N.ar    1  LIG1       -0.1246
     15 C          -0.3032    9.1654   -0.0001 C.ar    1  LIG1        0.0604
     16 C           0.6203   10.1871   -0.0005 C.ar    1  LIG1       -0.0432
     17 C          -0.0157   11.4703   -0.0011 C.ar    1  LIG1       -0.0462
     18 C          -1.3879   11.3540   -0.0004 C.ar    1  LIG1        0.0200
     19 S          -1.8690    9.7525    0.0003 S.2     1  LIG1       -0.0850
     20 H           1.9113   10.0342   -0.0005 H       1  LIG1        0.0630
     21 H           0.6444   12.5902   -0.0023 H       1  LIG1        0.0629
     22 C          -3.6183   12.0817   -0.0007 C.ar    1  LIG1       -0.0535
     23 C          -4.4920   13.1862   -0.0019 C.ar    1  LIG1       -0.0612
     24 C          -2.2327   12.3421   -0.0001 C.ar    1  LIG1       -0.0113
     25 C          -4.0096   14.4930   -0.0019 C.ar    1  LIG1       -0.0617
     26 H          -5.5650   13.0078   -0.0026 H       1  LIG1        0.0618
     27 C          -1.7506   13.6466   -0.0001 C.ar    1  LIG1       -0.0535
     28 C          -2.6346   14.7306   -0.0009 C.ar    1  LIG1       -0.0612
     29 H          -0.6777   13.8214    0.0003 H       1  LIG1        0.0624
     30 H          -4.8448   15.4893   -0.0030 H       1  LIG1        0.0618
     31 H          -4.1280   10.8857   -0.0005 H       1  LIG1        0.0624
     32 H          -2.1781   15.9478   -0.0011 H       1  LIG1        0.0618
@<TRIPOS>BOND
     1    30    25    1
     2    26    23    1
     3    21    17    1
     4    25    23   ar
     5    25    28   ar
     6    23    22   ar
     7    17    16   ar
     8    17    18   ar
     9    32    28    1
    10    28    27   ar
    11    22    31    1
    12    22    24   ar
    13    20    16    1
    14    16    15   ar
    15    18    24    1
    16    18    19   ar
    17     5     4   ar
    18     5     1   ar
    19    24    27   ar
    20    27    29    1
    21    15    11    1
    22    15    19   ar
    23    13    11   ar
    24    13    10   ar
    25    12     9   ar
    26    12    14   ar
    27    11    14   ar
    28    10     9   ar
    29     9     4    1
    30     4     3   ar
    31     8     3    1
    32     2     1   ar
    33     2     3   ar
    34     2     7    1
    35     1     6    1
