@<TRIPOS>MOLECULE
mol_data/noopt/geoms/mol2/128-84-.out
 31 34 0 0 0
SMALL
GASTEIGER

@<TRIPOS>ATOM
      1 C           0.1763    1.8460    0.0000 C.ar    1  LIG1        0.0927
      2 C           1.5558    1.8460    0.0000 C.ar    1  LIG1       -0.0232
      3 C           1.9706    3.2334    0.0000 C.ar    1  LIG1       -0.0126
      4 C           0.8165    3.9895   -0.0001 C.ar    1  LIG1        0.1751
      5 O          -0.3030    3.1567   -0.0002 O.2     1  LIG1       -0.4597
      6 H          -0.7504    0.9343    0.0000 H       1  LIG1        0.1029
      7 H           2.3515    0.8179    0.0001 H       1  LIG1        0.0649
      8 H           3.1998    3.6567    0.0000 H       1  LIG1        0.0656
      9 C           0.5416    5.2601   -0.0001 C.ar    1  LIG1        0.2381
     10 N          -0.7770    5.5977   -0.0001 N.ar    1  LIG1       -0.1219
     11 C          -0.0283    7.8948   -0.0001 C.ar    1  LIG1        0.2435
     12 N           1.6027    6.1126   -0.0001 N.ar    1  LIG1       -0.1219
     13 N          -1.0452    6.9203   -0.0001 N.ar    1  LIG1       -0.1217
     14 N           1.3002    7.4278   -0.0000 N.ar    1  LIG1       -0.1217
     15 C          -0.3032    9.1654   -0.0001 C.ar    1  LIG1        0.2435
     16 N           0.7578   10.0179   -0.0001 N.ar    1  LIG1       -0.1218
     17 C          -0.8734   11.8001   -0.0001 C.ar    1  LIG1        0.2034
     18 N          -1.6219    9.5031   -0.0001 N.ar    1  LIG1       -0.1218
     19 N           0.4554   11.3331   -0.0001 N.ar    1  LIG1       -0.1251
     20 N          -1.8900   10.8257   -0.0002 N.ar    1  LIG1       -0.1251
     21 C          -2.4916   13.4988   -0.0008 C.ar    1  LIG1       -0.0509
     22 C          -2.7368   14.8855   -0.0024 C.ar    1  LIG1       -0.0611
     23 C          -1.1483   13.0707   -0.0001 C.ar    1  LIG1        0.0226
     24 C          -1.6922   15.8072   -0.0025 C.ar    1  LIG1       -0.0617
     25 H          -3.7660   15.2376   -0.0032 H       1  LIG1        0.0618
     26 C          -0.1050   13.9903   -0.0002 C.ar    1  LIG1       -0.0509
     27 C          -0.3690   15.3640   -0.0013 C.ar    1  LIG1       -0.0611
     28 H           0.9224   13.6353    0.0003 H       1  LIG1        0.0625
     29 H          -1.9547   17.0804   -0.0038 H       1  LIG1        0.0618
     30 H          -3.5076   12.6877   -0.0005 H       1  LIG1        0.0625
     31 H           0.6103   16.2190   -0.0016 H       1  LIG1        0.0618
@<TRIPOS>BOND
     1    29    24    1
     2    25    22    1
     3    24    22   ar
     4    24    27   ar
     5    22    21   ar
     6    31    27    1
     7    27    26   ar
     8    21    30    1
     9    21    23   ar
    10    26    23   ar
    11    26    28    1
    12     5     4   ar
    13     5     1   ar
    14    20    18   ar
    15    20    17   ar
    16    16    19   ar
    17    16    15   ar
    18    23    17    1
    19    19    17   ar
    20    18    15   ar
    21    15    11    1
    22    13    11   ar
    23    13    10   ar
    24    12     9   ar
    25    12    14   ar
    26    11    14   ar
    27    10     9   ar
    28     9     4    1
    29     4     3   ar
    30     1     6    1
    31     1     2   ar
    32     8     3    1
    33     3     2   ar
    34     2     7    1
