@<TRIPOS>MOLECULE
mol_data/noopt/geoms/mol2/128-13.out
 23 25 0 0 0
SMALL
GASTEIGER

@<TRIPOS>ATOM
      1 C           0.1763    1.8460    0.0000 C.ar    1  LIG1        0.0927
      2 C           1.5558    1.8460    0.0000 C.ar    1  LIG1       -0.0232
      3 C           1.9706    3.2334    0.0000 C.ar    1  LIG1       -0.0126
      4 C           0.8165    3.9895   -0.0001 C.ar    1  LIG1        0.1751
      5 O          -0.3030    3.1567   -0.0002 O.2     1  LIG1       -0.4597
      6 H          -0.7504    0.9343    0.0000 H       1  LIG1        0.1029
      7 H           2.3515    0.8179    0.0001 H       1  LIG1        0.0649
      8 H           3.1998    3.6567    0.0000 H       1  LIG1        0.0656
      9 C           0.5416    5.2601   -0.0001 C.ar    1  LIG1        0.2381
     10 N          -0.7770    5.5977   -0.0001 N.ar    1  LIG1       -0.1220
     11 C          -0.0283    7.8948   -0.0001 C.ar    1  LIG1        0.2194
     12 N           1.6027    6.1126   -0.0001 N.ar    1  LIG1       -0.1220
     13 N          -1.0452    6.9203   -0.0001 N.ar    1  LIG1       -0.1236
     14 N           1.3002    7.4278   -0.0000 N.ar    1  LIG1       -0.1236
     15 C          -0.3032    9.1655   -0.0001 C.ar    1  LIG1        0.0875
     16 C           0.5213   10.2462   -0.0005 C.ar    1  LIG1       -0.0333
     17 C          -0.3058   11.4152    0.0008 C.ar    1  LIG1       -0.0437
     18 C          -1.5994   10.9974    0.0002 C.ar    1  LIG1        0.0023
     19 N          -1.6024    9.6207    0.0001 N.ar    1  LIG1       -0.3582
     20 H          -2.4138    9.0466   -0.0005 H       1  LIG1        0.1654
     21 H          -2.7061   11.6794    0.0007 H       1  LIG1        0.0807
     22 H           1.8211   10.2195   -0.0004 H       1  LIG1        0.0640
     23 H           0.1015   12.6497    0.0020 H       1  LIG1        0.0633
@<TRIPOS>BOND
     1    20    19    1
     2    16    22    1
     3    16    15   ar
     4    16    17   ar
     5     5     4   ar
     6     5     1   ar
     7     4     9    1
     8     4     3   ar
     9    15    11    1
    10    15    19   ar
    11     9    10   ar
    12     9    12   ar
    13    10    13   ar
    14    11    13   ar
    15    11    14   ar
    16    12    14   ar
    17     1     6    1
    18     1     2   ar
    19     8     3    1
    20     3     2   ar
    21     2     7    1
    22    19    18   ar
    23    18    21    1
    24    18    17   ar
    25    17    23    1
