@<TRIPOS>MOLECULE
mol_data/noopt/geoms/mol2/128-4-4.out
 35 38 0 0 0
SMALL
GASTEIGER

@<TRIPOS>ATOM
      1 C           0.1763    1.8460    0.0000 C.ar    1  LIG1        0.0927
      2 C           1.5558    1.8460    0.0000 C.ar    1  LIG1       -0.0232
      3 C           1.9706    3.2334    0.0000 C.ar    1  LIG1       -0.0126
      4 C           0.8165    3.9895   -0.0001 C.ar    1  LIG1        0.1751
      5 O          -0.3030    3.1567   -0.0002 O.2     1  LIG1       -0.4597
      6 H          -0.7504    0.9343    0.0000 H       1  LIG1        0.1029
      7 H           2.3515    0.8179    0.0001 H       1  LIG1        0.0649
      8 H           3.1998    3.6567    0.0000 H       1  LIG1        0.0656
      9 C           0.5416    5.2601   -0.0001 C.ar    1  LIG1        0.2381
     10 N          -0.7770    5.5977   -0.0001 N.ar    1  LIG1       -0.1220
     11 C          -0.0283    7.8948   -0.0001 C.ar    1  LIG1        0.2034
     12 N           1.6027    6.1126   -0.0001 N.ar    1  LIG1       -0.1220
     13 N          -1.0452    6.9203   -0.0001 N.ar    1  LIG1       -0.1251
     14 N           1.3002    7.4278   -0.0000 N.ar    1  LIG1       -0.1251
     15 C          -1.6466    9.5935   -0.0008 C.ar    1  LIG1       -0.0504
     16 C          -1.8917   10.9803   -0.0024 C.ar    1  LIG1       -0.0534
     17 C          -0.3032    9.1654   -0.0001 C.ar    1  LIG1        0.0227
     18 C          -0.8471   11.9019   -0.0025 C.ar    1  LIG1       -0.0178
     19 H          -2.9209   11.3323   -0.0032 H       1  LIG1        0.0624
     20 C           0.7400   10.0850   -0.0002 C.ar    1  LIG1       -0.0504
     21 C           0.4760   11.4587   -0.0013 C.ar    1  LIG1       -0.0534
     22 H           1.7674    9.7300    0.0003 H       1  LIG1        0.0625
     23 H          -2.6626    8.7825   -0.0005 H       1  LIG1        0.0625
     24 H           1.4553   12.3137   -0.0016 H       1  LIG1        0.0624
     25 C          -0.0543   14.1099   -0.0038 C.ar    1  LIG1       -0.0540
     26 C          -0.3911   15.4774   -0.0036 C.ar    1  LIG1       -0.0612
     27 C          -1.1097   13.1750   -0.0038 C.ar    1  LIG1       -0.0179
     28 C          -1.7192   15.8977   -0.0042 C.ar    1  LIG1       -0.0617
     29 H           0.4078   16.2156   -0.0034 H       1  LIG1        0.0618
     30 C          -2.4358   13.5941   -0.0044 C.ar    1  LIG1       -0.0540
     31 C          -2.7500   14.9571   -0.0046 C.ar    1  LIG1       -0.0612
     32 H          -3.2317   12.8538   -0.0043 H       1  LIG1        0.0624
     33 H          -1.9941   17.1683   -0.0042 H       1  LIG1        0.0618
     34 H           1.2029   13.7792   -0.0035 H       1  LIG1        0.0624
     35 H          -3.9914   15.3429   -0.0050 H       1  LIG1        0.0618
@<TRIPOS>BOND
     1    35    31    1
     2    31    30   ar
     3    31    28   ar
     4    30    32    1
     5    30    27   ar
     6    33    28    1
     7    28    26   ar
     8    27    25   ar
     9    27    18    1
    10    25    26   ar
    11    25    34    1
    12    26    29    1
    13    19    16    1
    14    18    16   ar
    15    18    21   ar
    16    16    15   ar
    17    24    21    1
    18    21    20   ar
    19    15    23    1
    20    15    17   ar
    21    20    17   ar
    22    20    22    1
    23     5     4   ar
    24     5     1   ar
    25    17    11    1
    26    13    11   ar
    27    13    10   ar
    28     4     9    1
    29     4     3   ar
    30    12     9   ar
    31    12    14   ar
    32    11    14   ar
    33    10     9   ar
    34     3     2   ar
    35     3     8    1
    36     2     1   ar
    37     2     7    1
    38     6     1    1
