@<TRIPOS>MOLECULE
mol_data/noopt/geoms/mol2/128-512-.out
 29 32 0 0 0
SMALL
GASTEIGER

@<TRIPOS>ATOM
      1 C           0.1763    1.8460    0.0000 C.ar    1  LIG1        0.0927
      2 C           1.5558    1.8460    0.0000 C.ar    1  LIG1       -0.0232
      3 C           1.9706    3.2334    0.0000 C.ar    1  LIG1       -0.0126
      4 C           0.8165    3.9895   -0.0001 C.ar    1  LIG1        0.1751
      5 O          -0.3030    3.1567   -0.0002 O.2     1  LIG1       -0.4597
      6 H          -0.7504    0.9343    0.0000 H       1  LIG1        0.1029
      7 H           2.3515    0.8179    0.0001 H       1  LIG1        0.0649
      8 H           3.1998    3.6567    0.0000 H       1  LIG1        0.0656
      9 C           0.5416    5.2601   -0.0001 C.ar    1  LIG1        0.2381
     10 N          -0.7770    5.5977   -0.0001 N.ar    1  LIG1       -0.1220
     11 C          -0.0283    7.8948   -0.0001 C.ar    1  LIG1        0.2099
     12 N           1.6027    6.1126   -0.0001 N.ar    1  LIG1       -0.1220
     13 N          -1.0452    6.9203   -0.0001 N.ar    1  LIG1       -0.1246
     14 N           1.3002    7.4278   -0.0000 N.ar    1  LIG1       -0.1246
     15 C          -0.3032    9.1654   -0.0001 C.ar    1  LIG1        0.0605
     16 C           0.6203   10.1871   -0.0005 C.ar    1  LIG1       -0.0431
     17 C          -0.0157   11.4703   -0.0011 C.ar    1  LIG1       -0.0433
     18 C          -1.3879   11.3540   -0.0004 C.ar    1  LIG1        0.0551
     19 S          -1.8690    9.7525    0.0003 S.2     1  LIG1       -0.0820
     20 H           1.9113   10.0342   -0.0005 H       1  LIG1        0.0630
     21 H           0.6444   12.5902   -0.0023 H       1  LIG1        0.0630
     22 C          -2.2327   12.3421   -0.0001 C.ar    1  LIG1        0.1413
     23 C          -3.6071   12.4609    0.0001 C.ar    1  LIG1       -0.0154
     24 C          -3.9008   13.8789    0.0004 C.ar    1  LIG1       -0.0233
     25 C          -2.6859   14.5328    0.0004 C.ar    1  LIG1        0.0926
     26 O          -1.6423   13.6067    0.0002 O.2     1  LIG1       -0.4624
     27 H          -2.3026   15.7750    0.0005 H       1  LIG1        0.1029
     28 H          -4.4883   11.5052    0.0000 H       1  LIG1        0.0655
     29 H          -5.0890   14.4064    0.0006 H       1  LIG1        0.0649
@<TRIPOS>BOND
     1    21    17    1
     2    17    16   ar
     3    17    18   ar
     4    20    16    1
     5    16    15   ar
     6    18    22    1
     7    18    19   ar
     8     5     4   ar
     9     5     1   ar
    10    22    23   ar
    11    22    26   ar
    12     4     9    1
    13     4     3   ar
    14     9    10   ar
    15     9    12   ar
    16    10    13   ar
    17    11    13   ar
    18    11    15    1
    19    11    14   ar
    20    12    14   ar
    21    15    19   ar
    22     1     6    1
    23     1     2   ar
    24    28    23    1
    25     8     3    1
    26     3     2   ar
    27     2     7    1
    28    23    24   ar
    29    26    25   ar
    30    24    25   ar
    31    24    29    1
    32    25    27    1
