@<TRIPOS>MOLECULE
mol_data/noopt/geoms/mol2/128-124.out
 32 35 0 0 0
SMALL
GASTEIGER

@<TRIPOS>ATOM
      1 C           0.1763    1.8460    0.0000 C.ar    1  LIG1        0.0927
      2 C           1.5558    1.8460    0.0000 C.ar    1  LIG1       -0.0232
      3 C           1.9706    3.2334    0.0000 C.ar    1  LIG1       -0.0126
      4 C           0.8165    3.9895   -0.0001 C.ar    1  LIG1        0.1751
      5 O          -0.3030    3.1567   -0.0002 O.2     1  LIG1       -0.4597
      6 H          -0.7504    0.9343    0.0000 H       1  LIG1        0.1029
      7 H           2.3515    0.8179    0.0001 H       1  LIG1        0.0649
      8 H           3.1998    3.6567    0.0000 H       1  LIG1        0.0656
      9 C           0.5416    5.2601   -0.0001 C.ar    1  LIG1        0.2381
     10 N          -0.7770    5.5977   -0.0001 N.ar    1  LIG1       -0.1219
     11 C          -0.0283    7.8948   -0.0001 C.ar    1  LIG1        0.2381
     12 N           1.6027    6.1126   -0.0001 N.ar    1  LIG1       -0.1219
     13 N          -1.0452    6.9203   -0.0001 N.ar    1  LIG1       -0.1219
     14 N           1.3002    7.4278   -0.0000 N.ar    1  LIG1       -0.1219
     15 C          -0.3032    9.1654   -0.0001 C.ar    1  LIG1        0.1760
     16 C           0.4344   10.3312   -0.0001 C.ar    1  LIG1       -0.0120
     17 C          -0.5162   11.4235   -0.0001 C.ar    1  LIG1       -0.0151
     18 C          -1.7722   10.8526   -0.0002 C.ar    1  LIG1        0.1358
     19 O          -1.6671    9.4613   -0.0003 O.2     1  LIG1       -0.4516
     20 H           1.7286   10.4538   -0.0000 H       1  LIG1        0.0657
     21 H          -0.2166   12.6885   -0.0001 H       1  LIG1        0.0656
     22 C          -3.2321   12.6891    0.0006 C.ar    1  LIG1       -0.0511
     23 C          -4.5719   13.1228    0.0021 C.ar    1  LIG1       -0.0611
     24 C          -2.9929   11.2997   -0.0002 C.ar    1  LIG1        0.0173
     25 C          -5.6285   12.2149    0.0022 C.ar    1  LIG1       -0.0617
     26 H          -4.7790   14.1906    0.0029 H       1  LIG1        0.0618
     27 C          -4.0473   10.3929   -0.0001 C.ar    1  LIG1       -0.0511
     28 C          -5.3716   10.8433    0.0010 C.ar    1  LIG1       -0.0611
     29 H          -3.8370    9.3264   -0.0006 H       1  LIG1        0.0625
     30 H          -6.8535   12.6502    0.0035 H       1  LIG1        0.0618
     31 H          -2.2890   13.5839    0.0002 H       1  LIG1        0.0625
     32 H          -6.3532    9.9910    0.0013 H       1  LIG1        0.0618
@<TRIPOS>BOND
     1    29    27    1
     2    19    18   ar
     3    19    15   ar
     4    18    24    1
     5    18    17   ar
     6     5     4   ar
     7     5     1   ar
     8    24    27   ar
     9    24    22   ar
    10    10    13   ar
    11    10     9   ar
    12    17    16   ar
    13    17    21    1
    14    16    15   ar
    15    16    20    1
    16    15    11    1
    17    13    11   ar
    18    12     9   ar
    19    12    14   ar
    20    11    14   ar
    21     9     4    1
    22     4     3   ar
    23    27    28   ar
    24     1     6    1
    25     1     2   ar
    26     8     3    1
    27     3     2   ar
    28     2     7    1
    29    31    22    1
    30    22    23   ar
    31    28    32    1
    32    28    25   ar
    33    23    25   ar
    34    23    26    1
    35    25    30    1
