@<TRIPOS>MOLECULE
mol_data/noopt/geoms/mol2/128-5-.out
 22 24 0 0 0
SMALL
GASTEIGER

@<TRIPOS>ATOM
      1 C           0.1763    1.8460    0.0000 C.ar    1  LIG1        0.0927
      2 C           1.5558    1.8460    0.0000 C.ar    1  LIG1       -0.0232
      3 C           1.9706    3.2334    0.0000 C.ar    1  LIG1       -0.0126
      4 C           0.8165    3.9895   -0.0001 C.ar    1  LIG1        0.1751
      5 O          -0.3030    3.1567   -0.0002 O.2     1  LIG1       -0.4597
      6 H          -0.7504    0.9343    0.0000 H       1  LIG1        0.1029
      7 H           2.3515    0.8179    0.0001 H       1  LIG1        0.0649
      8 H           3.1998    3.6567    0.0000 H       1  LIG1        0.0656
      9 C           0.5416    5.2601   -0.0001 C.ar    1  LIG1        0.2381
     10 N          -0.7770    5.5977   -0.0001 N.ar    1  LIG1       -0.1220
     11 C          -0.0283    7.8948   -0.0001 C.ar    1  LIG1        0.2099
     12 N           1.6027    6.1126   -0.0001 N.ar    1  LIG1       -0.1220
     13 N          -1.0452    6.9203   -0.0001 N.ar    1  LIG1       -0.1246
     14 N           1.3002    7.4278   -0.0000 N.ar    1  LIG1       -0.1246
     15 C          -0.3032    9.1654   -0.0001 C.ar    1  LIG1        0.0598
     16 C          -1.5665    9.7139    0.0000 C.ar    1  LIG1       -0.0438
     17 C          -1.5178   11.1453    0.0007 C.ar    1  LIG1       -0.0540
     18 C          -0.2202   11.6066    0.0003 C.ar    1  LIG1       -0.0236
     19 S           0.8798   10.3472   -0.0002 S.2     1  LIG1       -0.0934
     20 H           0.1405   12.8556    0.0002 H       1  LIG1        0.0693
     21 H          -2.6788    9.0411   -0.0002 H       1  LIG1        0.0630
     22 H          -2.5818   11.8922    0.0017 H       1  LIG1        0.0623
@<TRIPOS>BOND
     1    21    16    1
     2     5     4   ar
     3     5     1   ar
     4    19    15   ar
     5    19    18   ar
     6     4     9    1
     7     4     3   ar
     8    15    11    1
     9    15    16   ar
    10    13    10   ar
    11    13    11   ar
    12     9    10   ar
    13     9    12   ar
    14    11    14   ar
    15    12    14   ar
    16     1     6    1
    17     1     2   ar
    18     8     3    1
    19     3     2   ar
    20     2     7    1
    21    16    17   ar
    22    20    18    1
    23    18    17   ar
    24    17    22    1
