@<TRIPOS>MOLECULE
mol_data/noopt/geoms/mol2/128-.out
 15 16 0 0 0
SMALL
GASTEIGER

@<TRIPOS>ATOM
      1 C           0.1763    1.8460    0.0000 C.ar    1  LIG1        0.0927
      2 C           1.5558    1.8460    0.0000 C.ar    1  LIG1       -0.0232
      3 C           1.9706    3.2334    0.0000 C.ar    1  LIG1       -0.0126
      4 C           0.8165    3.9895   -0.0001 C.ar    1  LIG1        0.1751
      5 O          -0.3030    3.1567   -0.0002 O.2     1  LIG1       -0.4597
      6 H          -0.7504    0.9343    0.0000 H       1  LIG1        0.1029
      7 H           2.3515    0.8179    0.0001 H       1  LIG1        0.0649
      8 H           3.1998    3.6567    0.0000 H       1  LIG1        0.0656
      9 C           0.5416    5.2601   -0.0001 C.ar    1  LIG1        0.2380
     10 N          -0.7770    5.5977   -0.0001 N.ar    1  LIG1       -0.1226
     11 C          -0.0283    7.8948   -0.0001 C.ar    1  LIG1        0.1605
     12 N           1.6027    6.1126   -0.0001 N.ar    1  LIG1       -0.1226
     13 N          -1.0452    6.9203   -0.0001 N.ar    1  LIG1       -0.1338
     14 N           1.3002    7.4278   -0.0000 N.ar    1  LIG1       -0.1338
     15 H          -0.3032    9.1654   -0.0001 H       1  LIG1        0.1085
@<TRIPOS>BOND
     1     5     4   ar
     2     5     1   ar
     3     4     9    1
     4     4     3   ar
     5     9    10   ar
     6     9    12   ar
     7    10    13   ar
     8    11    13   ar
     9    11    15    1
    10    11    14   ar
    11    12    14   ar
    12     1     2   ar
    13     1     6    1
    14     2     3   ar
    15     2     7    1
    16     3     8    1
