@<TRIPOS>MOLECULE
mol_data/noopt/geoms/mol2/12813-.out
 23 25 0 0 0
SMALL
GASTEIGER

@<TRIPOS>ATOM
      1 C           0.1763    1.8460    0.0000 C.ar    1  LIG1        0.0927
      2 C           1.5558    1.8460    0.0000 C.ar    1  LIG1       -0.0232
      3 C           1.9706    3.2334    0.0000 C.ar    1  LIG1       -0.0126
      4 C           0.8165    3.9895   -0.0001 C.ar    1  LIG1        0.1751
      5 O          -0.3030    3.1567   -0.0002 O.2     1  LIG1       -0.4597
      6 H          -0.7504    0.9343    0.0000 H       1  LIG1        0.1029
      7 H           2.3515    0.8179    0.0001 H       1  LIG1        0.0649
      8 H           3.1998    3.6567    0.0000 H       1  LIG1        0.0656
      9 C           0.5416    5.2601   -0.0001 C.ar    1  LIG1        0.2381
     10 N           1.6027    6.1126   -0.0001 N.ar    1  LIG1       -0.1220
     11 C          -0.0285    7.8948   -0.0001 C.ar    1  LIG1        0.2194
     12 N          -0.7770    5.5977   -0.0001 N.ar    1  LIG1       -0.1220
     13 N           1.3002    7.4277   -0.0001 N.ar    1  LIG1       -0.1236
     14 N          -1.0452    6.9203   -0.0002 N.ar    1  LIG1       -0.1236
     15 C          -0.3034    9.1654   -0.0001 C.ar    1  LIG1        0.0875
     16 C          -1.5010    9.8087    0.0004 C.ar    1  LIG1       -0.0333
     17 C          -1.2311   11.2150   -0.0010 C.ar    1  LIG1       -0.0437
     18 C           0.1196   11.3693   -0.0005 C.ar    1  LIG1        0.0023
     19 N           0.6914   10.1170   -0.0004 N.ar    1  LIG1       -0.3582
     20 H           1.6676    9.9296   -0.0000 H       1  LIG1        0.1654
     21 H           0.8454   12.4478   -0.0012 H       1  LIG1        0.0807
     22 H          -2.6734    9.2471    0.0005 H       1  LIG1        0.0640
     23 H          -2.1122   12.1708   -0.0020 H       1  LIG1        0.0633
@<TRIPOS>BOND
     1    23    17    1
     2    21    18    1
     3    17    18   ar
     4    17    16   ar
     5    18    19   ar
     6    19    15   ar
     7    19    20    1
     8     5     4   ar
     9     5     1   ar
    10    14    12   ar
    11    14    11   ar
    12    12     9   ar
    13    15    11    1
    14    15    16   ar
    15    13    11   ar
    16    13    10   ar
    17    10     9   ar
    18     9     4    1
    19     4     3   ar
    20     1     6    1
    21     1     2   ar
    22     8     3    1
    23     3     2   ar
    24     2     7    1
    25    16    22    1
