@<TRIPOS>MOLECULE
mol_data/noopt/geoms/mol2/12812-12-.out
 29 32 0 0 0
SMALL
GASTEIGER

@<TRIPOS>ATOM
      1 C           0.1763    1.8460    0.0000 C.ar    1  LIG1        0.0927
      2 C           1.5558    1.8460    0.0000 C.ar    1  LIG1       -0.0232
      3 C           1.9706    3.2334    0.0000 C.ar    1  LIG1       -0.0126
      4 C           0.8165    3.9895   -0.0001 C.ar    1  LIG1        0.1751
      5 O          -0.3030    3.1567   -0.0002 O.2     1  LIG1       -0.4597
      6 H          -0.7504    0.9343    0.0000 H       1  LIG1        0.1029
      7 H           2.3515    0.8179    0.0001 H       1  LIG1        0.0649
      8 H           3.1998    3.6567    0.0000 H       1  LIG1        0.0656
      9 C           0.5416    5.2601   -0.0001 C.ar    1  LIG1        0.2381
     10 N           1.6027    6.1126   -0.0001 N.ar    1  LIG1       -0.1219
     11 C          -0.0285    7.8948   -0.0001 C.ar    1  LIG1        0.2381
     12 N          -0.7770    5.5977   -0.0001 N.ar    1  LIG1       -0.1219
     13 N           1.3002    7.4277   -0.0001 N.ar    1  LIG1       -0.1219
     14 N          -1.0452    6.9203   -0.0002 N.ar    1  LIG1       -0.1219
     15 C          -0.3034    9.1654   -0.0001 C.ar    1  LIG1        0.1761
     16 C          -1.4570    9.9219   -0.0001 C.ar    1  LIG1       -0.0119
     17 C          -1.0429   11.3096   -0.0001 C.ar    1  LIG1       -0.0121
     18 C           0.3368   11.3089   -0.0000 C.ar    1  LIG1        0.1707
     19 O           0.8162    9.9985    0.0001 O.2     1  LIG1       -0.4485
     20 H          -2.6861    9.4987   -0.0002 H       1  LIG1        0.0657
     21 H          -1.8386   12.3376   -0.0001 H       1  LIG1        0.0657
     22 C           1.2635   12.2206   -0.0000 C.ar    1  LIG1        0.1697
     23 C           1.2860   13.5999   -0.0000 C.ar    1  LIG1       -0.0128
     24 C           2.6800   13.9920   -0.0001 C.ar    1  LIG1       -0.0232
     25 C           3.4172   12.8257   -0.0000 C.ar    1  LIG1        0.0927
     26 O           2.5662   11.7200    0.0001 O.2     1  LIG1       -0.4598
     27 H           4.6831   12.5301   -0.0000 H       1  LIG1        0.1029
     28 H           0.2711   14.4122   -0.0001 H       1  LIG1        0.0656
     29 H           3.1233   15.2141   -0.0001 H       1  LIG1        0.0649
@<TRIPOS>BOND
     1     5     4   ar
     2     5     1   ar
     3    14    11   ar
     4    14    12   ar
     5    20    16    1
     6    28    23    1
     7     4     9    1
     8     4     3   ar
     9    15    11    1
    10    15    16   ar
    11    15    19   ar
    12     9    10   ar
    13     9    12   ar
    14    10    13   ar
    15    11    13   ar
    16    17    21    1
    17    17    16   ar
    18    17    18   ar
    19    29    24    1
    20    24    23   ar
    21    24    25   ar
    22    22    23   ar
    23    22    18    1
    24    22    26   ar
    25    27    25    1
    26    18    19   ar
    27    25    26   ar
    28     8     3    1
    29     6     1    1
    30     3     2   ar
    31     2     1   ar
    32     2     7    1
