@<TRIPOS>MOLECULE
mol_data/noopt/geoms/mol2/12813-4.out
 33 36 0 0 0
SMALL
GASTEIGER

@<TRIPOS>ATOM
      1 C           0.1763    1.8460    0.0000 C.ar    1  LIG1        0.0927
      2 C           1.5558    1.8460    0.0000 C.ar    1  LIG1       -0.0232
      3 C           1.9706    3.2334    0.0000 C.ar    1  LIG1       -0.0126
      4 C           0.8165    3.9895   -0.0001 C.ar    1  LIG1        0.1751
      5 O          -0.3030    3.1567   -0.0002 O.2     1  LIG1       -0.4597
      6 H          -0.7504    0.9343    0.0000 H       1  LIG1        0.1029
      7 H           2.3515    0.8179    0.0001 H       1  LIG1        0.0649
      8 H           3.1998    3.6567    0.0000 H       1  LIG1        0.0656
      9 C           0.5416    5.2601   -0.0001 C.ar    1  LIG1        0.2381
     10 N           1.6027    6.1126   -0.0001 N.ar    1  LIG1       -0.1220
     11 C          -0.0285    7.8948   -0.0001 C.ar    1  LIG1        0.2194
     12 N          -0.7770    5.5977   -0.0001 N.ar    1  LIG1       -0.1220
     13 N           1.3002    7.4277   -0.0001 N.ar    1  LIG1       -0.1236
     14 N          -1.0452    6.9203   -0.0002 N.ar    1  LIG1       -0.1236
     15 C          -0.3034    9.1654   -0.0001 C.ar    1  LIG1        0.0879
     16 C          -1.5010    9.8087    0.0004 C.ar    1  LIG1       -0.0326
     17 C          -1.2311   11.2150   -0.0010 C.ar    1  LIG1       -0.0357
     18 C           0.1196   11.3693   -0.0005 C.ar    1  LIG1        0.0470
     19 N           0.6914   10.1170   -0.0004 N.ar    1  LIG1       -0.3516
     20 H           1.6676    9.9296   -0.0000 H       1  LIG1        0.1660
     21 H          -2.6734    9.2471    0.0005 H       1  LIG1        0.0640
     22 H          -2.1122   12.1708   -0.0020 H       1  LIG1        0.0639
     23 C           2.2517   12.3480   -0.0008 C.ar    1  LIG1       -0.0526
     24 C           2.9930   13.5454   -0.0000 C.ar    1  LIG1       -0.0611
     25 C           0.8454   12.4477   -0.0012 C.ar    1  LIG1       -0.0017
     26 C           2.3639   14.7884   -0.0002 C.ar    1  LIG1       -0.0617
     27 H           4.0793   13.4913    0.0005 H       1  LIG1        0.0618
     28 C           0.2168   13.6883   -0.0014 C.ar    1  LIG1       -0.0526
     29 C           0.9706   14.8666   -0.0010 C.ar    1  LIG1       -0.0611
     30 H          -0.8690   13.7389   -0.0016 H       1  LIG1        0.0624
     31 H           3.0792   15.8739    0.0004 H       1  LIG1        0.0618
     32 H           2.8952   11.2184   -0.0008 H       1  LIG1        0.0624
     33 H           0.3776   16.0234   -0.0011 H       1  LIG1        0.0618
@<TRIPOS>BOND
     1    22    17    1
     2    30    28    1
     3    28    25   ar
     4    28    29   ar
     5    25    23   ar
     6    25    18    1
     7    33    29    1
     8    29    26   ar
     9    17    18   ar
    10    17    16   ar
    11    32    23    1
    12    23    24   ar
    13    18    19   ar
    14    19    15   ar
    15    19    20    1
    16    26    24   ar
    17    26    31    1
    18    14    12   ar
    19    14    11   ar
    20     5     4   ar
    21     5     1   ar
    22    13    11   ar
    23    13    10   ar
    24    15    11    1
    25    15    16   ar
    26    12     9   ar
    27    10     9   ar
    28     4     9    1
    29     4     3   ar
    30    24    27    1
    31     2     3   ar
    32     2     1   ar
    33     2     7    1
    34     3     8    1
    35     6     1    1
    36    16    21    1
