@<TRIPOS>MOLECULE
mol_data/noopt/geoms/mol2/1284.out
 25 27 0 0 0
SMALL
GASTEIGER

@<TRIPOS>ATOM
      1 C           0.1763    1.8460    0.0000 C.ar    1  LIG1        0.0927
      2 C           1.5558    1.8460    0.0000 C.ar    1  LIG1       -0.0232
      3 C           1.9706    3.2334    0.0000 C.ar    1  LIG1       -0.0126
      4 C           0.8165    3.9895   -0.0001 C.ar    1  LIG1        0.1751
      5 O          -0.3030    3.1567   -0.0002 O.2     1  LIG1       -0.4597
      6 H          -0.7504    0.9343    0.0000 H       1  LIG1        0.1029
      7 H           2.3515    0.8179    0.0001 H       1  LIG1        0.0649
      8 H           3.1998    3.6567    0.0000 H       1  LIG1        0.0656
      9 C           0.5416    5.2601   -0.0001 C.ar    1  LIG1        0.2381
     10 N           1.6027    6.1126   -0.0001 N.ar    1  LIG1       -0.1220
     11 C          -0.0285    7.8948   -0.0001 C.ar    1  LIG1        0.2034
     12 N          -0.7770    5.5977   -0.0001 N.ar    1  LIG1       -0.1220
     13 N           1.3002    7.4277   -0.0001 N.ar    1  LIG1       -0.1251
     14 N          -1.0452    6.9203   -0.0002 N.ar    1  LIG1       -0.1251
     15 C           0.7428   10.1104    0.0007 C.ar    1  LIG1       -0.0509
     16 C           0.3928   11.4745    0.0022 C.ar    1  LIG1       -0.0611
     17 C          -0.3034    9.1653   -0.0001 C.ar    1  LIG1        0.0226
     18 C          -0.9393   11.8819    0.0023 C.ar    1  LIG1       -0.0617
     19 H           1.1845   12.2205    0.0030 H       1  LIG1        0.0618
     20 C          -1.6335    9.5715    0.0000 C.ar    1  LIG1       -0.0509
     21 C          -1.9609   10.9314    0.0011 C.ar    1  LIG1       -0.0611
     22 H          -2.4222    8.8235   -0.0005 H       1  LIG1        0.0625
     23 H          -1.2265   13.1498    0.0036 H       1  LIG1        0.0618
     24 H           2.0032    9.7919    0.0003 H       1  LIG1        0.0625
     25 H          -3.2060   11.3052    0.0014 H       1  LIG1        0.0618
@<TRIPOS>BOND
     1    22    20    1
     2     5     4   ar
     3     5     1   ar
     4    14    12   ar
     5    14    11   ar
     6    17    11    1
     7    17    20   ar
     8    17    15   ar
     9     4     9    1
    10     4     3   ar
    11    13    10   ar
    12    13    11   ar
    13    12     9   ar
    14     9    10   ar
    15     1     6    1
    16     1     2   ar
    17     8     3    1
    18     3     2   ar
    19     2     7    1
    20    20    21   ar
    21    24    15    1
    22    15    16   ar
    23    21    25    1
    24    21    18   ar
    25    16    18   ar
    26    16    19    1
    27    18    23    1
