@<TRIPOS>MOLECULE
mol_data/noopt/geoms/mol2/1284-13.out
 33 36 0 0 0
SMALL
GASTEIGER

@<TRIPOS>ATOM
      1 C           0.1763    1.8460    0.0000 C.ar    1  LIG1        0.0927
      2 C           1.5558    1.8460    0.0000 C.ar    1  LIG1       -0.0232
      3 C           1.9706    3.2334    0.0000 C.ar    1  LIG1       -0.0126
      4 C           0.8165    3.9895   -0.0001 C.ar    1  LIG1        0.1751
      5 O          -0.3030    3.1567   -0.0002 O.2     1  LIG1       -0.4597
      6 H          -0.7504    0.9343    0.0000 H       1  LIG1        0.1029
      7 H           2.3515    0.8179    0.0001 H       1  LIG1        0.0649
      8 H           3.1998    3.6567    0.0000 H       1  LIG1        0.0656
      9 C           0.5416    5.2601   -0.0001 C.ar    1  LIG1        0.2381
     10 N           1.6027    6.1126   -0.0001 N.ar    1  LIG1       -0.1220
     11 C          -0.0285    7.8948   -0.0001 C.ar    1  LIG1        0.2034
     12 N          -0.7770    5.5977   -0.0001 N.ar    1  LIG1       -0.1220
     13 N           1.3002    7.4277   -0.0001 N.ar    1  LIG1       -0.1251
     14 N          -1.0452    6.9203   -0.0002 N.ar    1  LIG1       -0.1251
     15 C          -1.6468    9.5934   -0.0008 C.ar    1  LIG1       -0.0503
     16 C          -1.8919   10.9802   -0.0024 C.ar    1  LIG1       -0.0520
     17 C          -0.3034    9.1653   -0.0001 C.ar    1  LIG1        0.0227
     18 C          -0.8473   11.9018   -0.0025 C.ar    1  LIG1       -0.0017
     19 H          -2.9211   11.3322   -0.0032 H       1  LIG1        0.0624
     20 C           0.7398   10.0850   -0.0002 C.ar    1  LIG1       -0.0503
     21 C           0.4758   11.4586   -0.0013 C.ar    1  LIG1       -0.0520
     22 H           1.7672    9.7299    0.0003 H       1  LIG1        0.0625
     23 H          -2.6628    8.7824   -0.0005 H       1  LIG1        0.0625
     24 H           1.4551   12.3136   -0.0016 H       1  LIG1        0.0624
     25 C          -1.1099   13.1751   -0.0038 C.ar    1  LIG1        0.0465
     26 C          -0.2749   14.2478   -0.0050 C.ar    1  LIG1       -0.0364
     27 C          -1.0906   15.4247   -0.0051 C.ar    1  LIG1       -0.0438
     28 C          -2.3882   15.0195   -0.0056 C.ar    1  LIG1        0.0022
     29 N          -2.4046   13.6429   -0.0043 N.ar    1  LIG1       -0.3607
     30 H          -3.2215   13.0767   -0.0045 H       1  LIG1        0.1653
     31 H          -3.4883   15.7122   -0.0059 H       1  LIG1        0.0807
     32 H           1.0245   14.2084   -0.0047 H       1  LIG1        0.0639
     33 H          -0.6714   16.6553   -0.0050 H       1  LIG1        0.0633
@<TRIPOS>BOND
     1    31    28    1
     2    28    27   ar
     3    28    29   ar
     4    27    33    1
     5    27    26   ar
     6    26    32    1
     7    26    25   ar
     8    30    29    1
     9    29    25   ar
    10    25    18    1
    11    19    16    1
    12    18    16   ar
    13    18    21   ar
    14    16    15   ar
    15    24    21    1
    16    21    20   ar
    17    15    23    1
    18    15    17   ar
    19    20    17   ar
    20    20    22    1
    21    14    12   ar
    22    14    11   ar
    23     5     4   ar
    24     5     1   ar
    25    17    11    1
    26    13    11   ar
    27    13    10   ar
    28    12     9   ar
    29    10     9   ar
    30     9     4    1
    31     4     3   ar
    32     1     6    1
    33     1     2   ar
    34     8     3    1
    35     3     2   ar
    36     2     7    1
