@<TRIPOS>MOLECULE
mol_data/noopt/geoms/mol2/12858-.out
 28 31 0 0 0
SMALL
GASTEIGER

@<TRIPOS>ATOM
      1 C           0.1763    1.8460    0.0000 C.ar    1  LIG1        0.0927
      2 C           1.5558    1.8460    0.0000 C.ar    1  LIG1       -0.0232
      3 C           1.9706    3.2334    0.0000 C.ar    1  LIG1       -0.0126
      4 C           0.8165    3.9895   -0.0001 C.ar    1  LIG1        0.1751
      5 O          -0.3030    3.1567   -0.0002 O.2     1  LIG1       -0.4597
      6 H          -0.7504    0.9343    0.0000 H       1  LIG1        0.1029
      7 H           2.3515    0.8179    0.0001 H       1  LIG1        0.0649
      8 H           3.1998    3.6567    0.0000 H       1  LIG1        0.0656
      9 C           0.5416    5.2601   -0.0001 C.ar    1  LIG1        0.2381
     10 N           1.6027    6.1126   -0.0001 N.ar    1  LIG1       -0.1220
     11 C          -0.0285    7.8948   -0.0001 C.ar    1  LIG1        0.2099
     12 N          -0.7770    5.5977   -0.0001 N.ar    1  LIG1       -0.1220
     13 N           1.3002    7.4277   -0.0001 N.ar    1  LIG1       -0.1246
     14 N          -1.0452    6.9203   -0.0002 N.ar    1  LIG1       -0.1246
     15 C          -0.3034    9.1654   -0.0001 C.ar    1  LIG1        0.0605
     16 C           0.6201   10.1870   -0.0005 C.ar    1  LIG1       -0.0431
     17 C          -0.0159   11.4702   -0.0011 C.ar    1  LIG1       -0.0431
     18 C          -1.3881   11.3540   -0.0004 C.ar    1  LIG1        0.0605
     19 S          -1.8692    9.7525    0.0003 S.2     1  LIG1       -0.0818
     20 H           1.9111   10.0341   -0.0005 H       1  LIG1        0.0630
     21 H           0.6442   12.5902   -0.0023 H       1  LIG1        0.0630
     22 C          -2.2329   12.3421   -0.0001 C.ar    1  LIG1        0.2099
     23 N          -3.5538   12.0138    0.0000 N.ar    1  LIG1       -0.1253
     24 C          -3.9845   14.3911    0.0004 C.ar    1  LIG1        0.1605
     25 N          -1.7032   13.5960    0.0000 N.ar    1  LIG1       -0.1253
     26 N          -4.4173   13.0508    0.0003 N.ar    1  LIG1       -0.1339
     27 N          -2.5934   14.6102    0.0004 N.ar    1  LIG1       -0.1339
     28 H          -4.8293   15.3792    0.0007 H       1  LIG1        0.1085
@<TRIPOS>BOND
     1    21    17    1
     2    17    16   ar
     3    17    18   ar
     4    20    16    1
     5    16    15   ar
     6    18    22    1
     7    18    19   ar
     8     5     4   ar
     9     5     1   ar
    10    14    11   ar
    11    14    12   ar
    12    22    23   ar
    13    22    25   ar
    14     4     9    1
    15     4     3   ar
    16     9    10   ar
    17     9    12   ar
    18    10    13   ar
    19    11    13   ar
    20    11    15    1
    21    15    19   ar
    22     1     6    1
    23     1     2   ar
    24     8     3    1
    25     3     2   ar
    26     2     7    1
    27    23    26   ar
    28    25    27   ar
    29    26    24   ar
    30    27    24   ar
    31    24    28    1
