@<TRIPOS>MOLECULE
mol_data/noopt/geoms/mol2/1285.out
 22 24 0 0 0
SMALL
GASTEIGER

@<TRIPOS>ATOM
      1 C           0.1763    1.8460    0.0000 C.ar    1  LIG1        0.0927
      2 C           1.5558    1.8460    0.0000 C.ar    1  LIG1       -0.0232
      3 C           1.9706    3.2334    0.0000 C.ar    1  LIG1       -0.0126
      4 C           0.8165    3.9895   -0.0001 C.ar    1  LIG1        0.1751
      5 O          -0.3030    3.1567   -0.0002 O.2     1  LIG1       -0.4597
      6 H          -0.7504    0.9343    0.0000 H       1  LIG1        0.1029
      7 H           2.3515    0.8179    0.0001 H       1  LIG1        0.0649
      8 H           3.1998    3.6567    0.0000 H       1  LIG1        0.0656
      9 C           0.5416    5.2601   -0.0001 C.ar    1  LIG1        0.2381
     10 N           1.6027    6.1126   -0.0001 N.ar    1  LIG1       -0.1220
     11 C          -0.0285    7.8948   -0.0001 C.ar    1  LIG1        0.2099
     12 N          -0.7770    5.5977   -0.0001 N.ar    1  LIG1       -0.1220
     13 N           1.3002    7.4277   -0.0001 N.ar    1  LIG1       -0.1246
     14 N          -1.0452    6.9203   -0.0002 N.ar    1  LIG1       -0.1246
     15 C          -0.3034    9.1654   -0.0001 C.ar    1  LIG1        0.0598
     16 C           0.6201   10.1870   -0.0005 C.ar    1  LIG1       -0.0438
     17 C          -0.0159   11.4702   -0.0011 C.ar    1  LIG1       -0.0540
     18 C          -1.3881   11.3540   -0.0004 C.ar    1  LIG1       -0.0236
     19 S          -1.8692    9.7525    0.0003 S.2     1  LIG1       -0.0934
     20 H          -2.2329   12.3421   -0.0001 H       1  LIG1        0.0693
     21 H           1.9111   10.0341   -0.0005 H       1  LIG1        0.0630
     22 H           0.6442   12.5902   -0.0023 H       1  LIG1        0.0623
@<TRIPOS>BOND
     1    22    17    1
     2    17    16   ar
     3    17    18   ar
     4    21    16    1
     5    16    15   ar
     6    18    20    1
     7    18    19   ar
     8     5     4   ar
     9     5     1   ar
    10    14    12   ar
    11    14    11   ar
    12    12     9   ar
    13    15    11    1
    14    15    19   ar
    15    13    11   ar
    16    13    10   ar
    17    10     9   ar
    18     9     4    1
    19     4     3   ar
    20     1     6    1
    21     1     2   ar
    22     8     3    1
    23     3     2   ar
    24     2     7    1
