@<TRIPOS>MOLECULE
mol_data/noopt/geoms/mol2/1288-.out
 21 23 0 0 0
SMALL
GASTEIGER

@<TRIPOS>ATOM
      1 C           0.1763    1.8460    0.0000 C.ar    1  LIG1        0.0927
      2 C           1.5558    1.8460    0.0000 C.ar    1  LIG1       -0.0232
      3 C           1.9706    3.2334    0.0000 C.ar    1  LIG1       -0.0126
      4 C           0.8165    3.9895   -0.0001 C.ar    1  LIG1        0.1751
      5 O          -0.3030    3.1567   -0.0002 O.2     1  LIG1       -0.4597
      6 H          -0.7504    0.9343    0.0000 H       1  LIG1        0.1029
      7 H           2.3515    0.8179    0.0001 H       1  LIG1        0.0649
      8 H           3.1998    3.6567    0.0000 H       1  LIG1        0.0656
      9 C           0.5416    5.2601   -0.0001 C.ar    1  LIG1        0.2381
     10 N           1.6027    6.1126   -0.0001 N.ar    1  LIG1       -0.1219
     11 C          -0.0285    7.8948   -0.0001 C.ar    1  LIG1        0.2435
     12 N          -0.7770    5.5977   -0.0001 N.ar    1  LIG1       -0.1219
     13 N           1.3002    7.4277   -0.0001 N.ar    1  LIG1       -0.1217
     14 N          -1.0452    6.9203   -0.0002 N.ar    1  LIG1       -0.1217
     15 C          -0.3034    9.1654   -0.0001 C.ar    1  LIG1        0.2434
     16 N          -1.6220    9.5030   -0.0001 N.ar    1  LIG1       -0.1224
     17 C          -0.8734   11.8001   -0.0001 C.ar    1  LIG1        0.1605
     18 N           0.7577   10.0179   -0.0001 N.ar    1  LIG1       -0.1224
     19 N          -1.8902   10.8256   -0.0001 N.ar    1  LIG1       -0.1338
     20 N           0.4552   11.3331   -0.0000 N.ar    1  LIG1       -0.1338
     21 H          -1.1483   13.0707   -0.0001 H       1  LIG1        0.1085
@<TRIPOS>BOND
     1     5     4   ar
     2     5     1   ar
     3    14    11   ar
     4    14    12   ar
     5    11    15    1
     6    11    13   ar
     7    21    17    1
     8    19    17   ar
     9    19    16   ar
    10    18    15   ar
    11    18    20   ar
    12    17    20   ar
    13    16    15   ar
    14    13    10   ar
    15    12     9   ar
    16    10     9   ar
    17     9     4    1
    18     4     3   ar
    19     1     6    1
    20     1     2   ar
    21     8     3    1
    22     3     2   ar
    23     2     7    1
