@<TRIPOS>MOLECULE
mol_data/noopt/geoms/mol2/12aa12aa12aa-12aa.out
 30 33 0 0 0
SMALL
GASTEIGER

@<TRIPOS>ATOM
      1 C           0.1763    1.8460    0.0000 C.ar    1  LIG1        0.0927
      2 C           1.5558    1.8460    0.0000 C.ar    1  LIG1       -0.0232
      3 C           1.9706    3.2334    0.0000 C.ar    1  LIG1       -0.0128
      4 C           0.8165    3.9895   -0.0001 C.ar    1  LIG1        0.1697
      5 O          -0.3030    3.1567   -0.0002 O.2     1  LIG1       -0.4598
      6 H          -0.7504    0.9343    0.0000 H       1  LIG1        0.1029
      7 H           2.3515    0.8179    0.0001 H       1  LIG1        0.0649
      8 H           3.1998    3.6567    0.0000 H       1  LIG1        0.0656
      9 C           0.5416    5.2601   -0.0001 C.ar    1  LIG1        0.1707
     10 C           1.2792    6.4258   -0.0001 C.ar    1  LIG1       -0.0121
     11 C           0.3286    7.5182   -0.0001 C.ar    1  LIG1       -0.0121
     12 C          -0.9274    6.9472   -0.0002 C.ar    1  LIG1        0.1707
     13 O          -0.8223    5.5559   -0.0003 O.2     1  LIG1       -0.4486
     14 H           2.5734    6.5485   -0.0000 H       1  LIG1        0.0657
     15 H           0.6282    8.7832   -0.0001 H       1  LIG1        0.0657
     16 C          -2.1481    7.3943   -0.0002 C.ar    1  LIG1        0.1707
     17 C          -3.4042    6.8241   -0.0002 C.ar    1  LIG1       -0.0121
     18 C          -4.3554    7.9160   -0.0002 C.ar    1  LIG1       -0.0121
     19 C          -3.6171    9.0815   -0.0003 C.ar    1  LIG1        0.1707
     20 O          -2.2534    8.7859   -0.0004 O.2     1  LIG1       -0.4486
     21 H          -3.7038    5.5591   -0.0001 H       1  LIG1        0.0657
     22 H          -5.6496    7.7933   -0.0002 H       1  LIG1        0.0657
     23 C          -3.8920   10.3521   -0.0003 C.ar    1  LIG1        0.1697
     24 C          -3.1543   11.5178   -0.0002 C.ar    1  LIG1       -0.0128
     25 C          -4.1049   12.6102   -0.0002 C.ar    1  LIG1       -0.0232
     26 C          -5.3610   12.0393   -0.0003 C.ar    1  LIG1        0.0927
     27 O          -5.2558   10.6479   -0.0004 O.2     1  LIG1       -0.4598
     28 H          -6.5817   12.4864   -0.0003 H       1  LIG1        0.1029
     29 H          -1.8601   11.6405   -0.0001 H       1  LIG1        0.0656
     30 H          -3.8054   13.8752   -0.0002 H       1  LIG1        0.0649
@<TRIPOS>BOND
     1    27    26   ar
     2    27    23   ar
     3    20    19   ar
     4    20    16   ar
     5    26    28    1
     6    26    25   ar
     7    13    12   ar
     8    13     9   ar
     9    19    23    1
    10    19    18   ar
    11    23    24   ar
    12    24    25   ar
    13    24    29    1
    14    17    18   ar
    15    17    16   ar
    16    17    21    1
    17    22    18    1
    18    25    30    1
    19     5     4   ar
    20     5     1   ar
    21    12    16    1
    22    12    11   ar
    23    15    11    1
    24    11    10   ar
    25    10     9   ar
    26    10    14    1
    27     9     4    1
    28     4     3   ar
    29     8     3    1
    30     6     1    1
    31     3     2   ar
    32     2     1   ar
    33     2     7    1
