@<TRIPOS>MOLECULE
mol_data/noopt/geoms/mol2/12aa12fa(110)4ia(70)13ha(250).out
 40 43 0 0 0
SMALL
GASTEIGER

@<TRIPOS>ATOM
      1 C           0.1763    1.8460    0.0000 C.ar    1  LIG1        0.0927
      2 C           1.5558    1.8460    0.0000 C.ar    1  LIG1       -0.0232
      3 C           1.9706    3.2334    0.0000 C.ar    1  LIG1       -0.0127
      4 C           0.8165    3.9895   -0.0001 C.ar    1  LIG1        0.1733
      5 O          -0.3030    3.1567   -0.0002 O.2     1  LIG1       -0.4597
      6 H          -0.7504    0.9343    0.0000 H       1  LIG1        0.1029
      7 H           2.3515    0.8179    0.0001 H       1  LIG1        0.0649
      8 H           3.1998    3.6567    0.0000 H       1  LIG1        0.0656
      9 C           0.5416    5.2601   -0.0001 C.ar    1  LIG1        0.2116
     10 C          -0.0292    6.1427    0.8933 C.ar    1  LIG1        0.1664
     11 C          -0.0356    7.4394    0.2486 C.ar    1  LIG1        0.0266
     12 C           0.5320    7.2630   -0.9965 C.ar    1  LIG1        0.1397
     13 O           0.8961    5.9277   -1.1733 O.2     1  LIG1       -0.4479
     14 O          -0.4808    5.8877    2.0854 O.3     1  LIG1       -0.5031
     15 H          -0.1471    5.0368    2.3792 H       1  LIG1        0.2923
     16 H          -0.4938    8.5405    0.7660 H       1  LIG1        0.0692
     17 C           1.6270    9.1583   -1.8406 C.ar    1  LIG1       -0.0392
     18 C           1.8824    9.9600   -2.9700 C.ar    1  LIG1       -0.0490
     19 C           0.7969    8.0315   -2.0109 C.ar    1  LIG1        0.0203
     20 C           1.3371    9.6546   -4.2150 C.ar    1  LIG1        0.0004
     21 H           2.5201   10.8344   -2.8607 H       1  LIG1        0.0627
     22 C           0.2523    7.7262   -3.2536 C.ar    1  LIG1       -0.0502
     23 C           0.5181    8.5346   -4.3637 C.ar    1  LIG1       -0.0519
     24 H          -0.3848    6.8518   -3.3593 H       1  LIG1        0.0625
     25 C           2.1645    9.4941   -0.7052 C.3     1  LIG1       -0.0390
     26 H           1.4755   10.0938   -0.1479 H       1  LIG1        0.0278
     27 H           3.0590   10.0530   -0.8854 H       1  LIG1        0.0278
     28 H           2.4013    8.6119   -0.1480 H       1  LIG1        0.0278
     29 H           0.0061    8.2444   -5.5228 H       1  LIG1        0.0624
     30 C           1.5940   10.4165   -5.2365 C.ar    1  LIG1        0.0674
     31 C           1.1657   10.3390   -6.5244 C.ar    1  LIG1        0.0501
     32 C           1.7537   11.4330   -7.2372 C.ar    1  LIG1       -0.0231
     33 C           2.5141   12.1319   -6.3532 C.ar    1  LIG1        0.0040
     34 N           2.4194   11.5128   -5.1272 N.ar    1  LIG1       -0.3592
     35 H           2.8744   11.8104   -4.2951 H       1  LIG1        0.1654
     36 H           3.2382   13.1983   -6.5219 H       1  LIG1        0.0807
     37 N           0.3700    9.4356   -7.0151 N.pl3   1  LIG1       -0.3563
     38 H          -0.3291    9.8772   -7.5775 H       1  LIG1        0.1424
     39 H           0.8964    8.7979   -7.5775 H       1  LIG1        0.1424
     40 H           1.5923   11.7102   -8.4970 H       1  LIG1        0.0651
@<TRIPOS>BOND
     1    40    32    1
     2    39    37    1
     3    38    37    1
     4    32    31   ar
     5    32    33   ar
     6    37    31    1
     7    31    30   ar
     8    36    33    1
     9    33    34   ar
    10    29    23    1
    11    30    34   ar
    12    30    20    1
    13    34    35    1
    14    23    20   ar
    15    23    22   ar
    16    20    18   ar
    17    24    22    1
    18    22    19   ar
    19    18    21    1
    20    18    17   ar
    21    19    17   ar
    22    19    12    1
    23    17    25    1
    24    13    12   ar
    25    13     9   ar
    26    12    11   ar
    27    27    25    1
    28    25    28    1
    29    25    26    1
    30     5     4   ar
    31     5     1   ar
    32     9     4    1
    33     9    10   ar
    34     4     3   ar
    35     2     1   ar
    36     2     3   ar
    37     2     7    1
    38     1     6    1
    39     3     8    1
    40    11    16    1
    41    11    10   ar
    42    10    14    1
    43    14    15    1
