@<TRIPOS>MOLECULE
mol_data/noopt/geoms/mol2/12aa12aa12aa.out
 23 25 0 0 0
SMALL
GASTEIGER

@<TRIPOS>ATOM
      1 C           0.1763    1.8460    0.0000 C.ar    1  LIG1        0.0927
      2 C           1.5558    1.8460    0.0000 C.ar    1  LIG1       -0.0232
      3 C           1.9706    3.2334    0.0000 C.ar    1  LIG1       -0.0128
      4 C           0.8165    3.9895   -0.0001 C.ar    1  LIG1        0.1697
      5 O          -0.3030    3.1567   -0.0002 O.2     1  LIG1       -0.4598
      6 H          -0.7504    0.9343    0.0000 H       1  LIG1        0.1029
      7 H           2.3515    0.8179    0.0001 H       1  LIG1        0.0649
      8 H           3.1998    3.6567    0.0000 H       1  LIG1        0.0656
      9 C           0.5416    5.2601   -0.0001 C.ar    1  LIG1        0.1707
     10 C           1.2792    6.4258   -0.0001 C.ar    1  LIG1       -0.0121
     11 C           0.3286    7.5182   -0.0001 C.ar    1  LIG1       -0.0121
     12 C          -0.9274    6.9472   -0.0002 C.ar    1  LIG1        0.1707
     13 O          -0.8223    5.5559   -0.0003 O.2     1  LIG1       -0.4486
     14 H           2.5734    6.5485   -0.0000 H       1  LIG1        0.0657
     15 H           0.6282    8.7832   -0.0001 H       1  LIG1        0.0657
     16 C          -2.1481    7.3943   -0.0002 C.ar    1  LIG1        0.1697
     17 C          -2.7387    8.6410   -0.0002 C.ar    1  LIG1       -0.0128
     18 C          -4.1701    8.4218   -0.0002 C.ar    1  LIG1       -0.0232
     19 C          -4.3593    7.0551   -0.0003 C.ar    1  LIG1        0.0927
     20 O          -3.1273    6.4000   -0.0004 O.2     1  LIG1       -0.4598
     21 H          -5.3898    6.2627   -0.0003 H       1  LIG1        0.1029
     22 H          -2.1504    9.8002   -0.0001 H       1  LIG1        0.0656
     23 H          -5.0789    9.3514   -0.0002 H       1  LIG1        0.0649
@<TRIPOS>BOND
     1    20    19   ar
     2    20    16   ar
     3    21    19    1
     4    19    18   ar
     5    13    12   ar
     6    13     9   ar
     7    12    16    1
     8    12    11   ar
     9    23    18    1
    10    18    17   ar
    11    17    16   ar
    12    17    22    1
    13     5     4   ar
    14     5     1   ar
    15    10    11   ar
    16    10     9   ar
    17    10    14    1
    18    11    15    1
    19     9     4    1
    20     4     3   ar
    21     1     6    1
    22     1     2   ar
    23     8     3    1
    24     3     2   ar
    25     2     7    1
