@<TRIPOS>MOLECULE
mol_data/noopt/geoms/mol2/12aa12aa-12aa.out
 23 25 0 0 0
SMALL
GASTEIGER

@<TRIPOS>ATOM
      1 C           0.1763    1.8460    0.0000 C.ar    1  LIG1        0.0927
      2 C           1.5558    1.8460    0.0000 C.ar    1  LIG1       -0.0232
      3 C           1.9706    3.2334    0.0000 C.ar    1  LIG1       -0.0128
      4 C           0.8165    3.9895   -0.0001 C.ar    1  LIG1        0.1697
      5 O          -0.3030    3.1567   -0.0002 O.2     1  LIG1       -0.4598
      6 H          -0.7504    0.9343    0.0000 H       1  LIG1        0.1029
      7 H           2.3515    0.8179    0.0001 H       1  LIG1        0.0649
      8 H           3.1998    3.6567    0.0000 H       1  LIG1        0.0656
      9 C           0.5416    5.2601   -0.0001 C.ar    1  LIG1        0.1707
     10 C          -0.6119    6.0167   -0.0001 C.ar    1  LIG1       -0.0121
     11 C          -0.1979    7.4043   -0.0001 C.ar    1  LIG1       -0.0121
     12 C           1.1818    7.4036   -0.0002 C.ar    1  LIG1        0.1707
     13 O           1.6612    6.0932   -0.0003 O.2     1  LIG1       -0.4486
     14 H          -1.8411    5.5934   -0.0000 H       1  LIG1        0.0657
     15 H          -0.9936    8.4323   -0.0001 H       1  LIG1        0.0657
     16 C           2.1085    8.3153   -0.0002 C.ar    1  LIG1        0.1697
     17 C           3.4880    8.3153   -0.0001 C.ar    1  LIG1       -0.0128
     18 C           3.9028    9.7027   -0.0001 C.ar    1  LIG1       -0.0232
     19 C           2.7487   10.4588   -0.0002 C.ar    1  LIG1        0.0927
     20 O           1.6292    9.6260   -0.0003 O.2     1  LIG1       -0.4598
     21 H           2.4738   11.7294   -0.0002 H       1  LIG1        0.1029
     22 H           4.2837    7.2872   -0.0000 H       1  LIG1        0.0656
     23 H           5.1320   10.1260   -0.0001 H       1  LIG1        0.0649
@<TRIPOS>BOND
     1    20    19   ar
     2    20    16   ar
     3    13    12   ar
     4    13     9   ar
     5    19    21    1
     6    19    18   ar
     7     5     4   ar
     8     5     1   ar
     9    12    16    1
    10    12    11   ar
    11    16    17   ar
    12    17    18   ar
    13    17    22    1
    14    10    11   ar
    15    10     9   ar
    16    10    14    1
    17    15    11    1
    18    18    23    1
    19     4     9    1
    20     4     3   ar
    21     8     3    1
    22     6     1    1
    23     3     2   ar
    24     2     1   ar
    25     2     7    1
