@<TRIPOS>MOLECULE
mol_data/noopt/geoms/mol2/12aa4fd-4al-12di4ah-12dh-13li-6ll.out
 100 104 0 0 0
SMALL
GASTEIGER

@<TRIPOS>ATOM
      1 C           0.1763    1.8460    0.0000 C.ar    1  LIG1        0.0926
      2 C           1.5558    1.8460    0.0000 C.ar    1  LIG1       -0.0233
      3 C           1.9706    3.2334    0.0000 C.ar    1  LIG1       -0.0158
      4 C           0.8165    3.9895   -0.0001 C.ar    1  LIG1        0.1383
      5 O          -0.3030    3.1567   -0.0002 O.2     1  LIG1       -0.4628
      6 H          -0.7504    0.9343    0.0000 H       1  LIG1        0.1029
      7 H           2.3515    0.8179    0.0001 H       1  LIG1        0.0649
      8 H           3.1998    3.6567    0.0000 H       1  LIG1        0.0655
      9 C           1.5877    6.2051    0.0220 C.ar    1  LIG1        0.1281
     10 C           1.2377    7.5692    0.0226 C.ar    1  LIG1       -0.0105
     11 C           0.5416    5.2600   -0.0001 C.ar    1  LIG1        0.0599
     12 C          -0.0943    7.9766    0.0015 C.ar    1  LIG1        0.0031
     13 H           2.0291    8.3151    0.0396 H       1  LIG1        0.0661
     14 C          -0.7883    5.6663   -0.0212 C.ar    1  LIG1       -0.0296
     15 C          -1.1157    7.0262   -0.0206 C.ar    1  LIG1        0.0604
     16 H          -1.5769    4.9183   -0.0379 H       1  LIG1        0.0639
     17 O           2.8479    5.8865    0.0420 O.3     1  LIG1       -0.5060
     18 H           3.3803    6.6854    0.0469 H       1  LIG1        0.2922
     19 N          -3.4587    7.7296   -0.0575 N.1     1  LIG1       -0.1908
     20 C          -2.3607    7.3999   -0.0402 C.1     1  LIG1        0.0998
     21 C           0.6553   10.1996    0.0252 C.ar    1  LIG1       -0.0532
     22 C           0.2920   11.5602    0.0270 C.ar    1  LIG1       -0.0497
     23 C          -0.3815    9.2445    0.0026 C.ar    1  LIG1       -0.0129
     24 C          -1.0438   11.9547    0.0065 C.ar    1  LIG1        0.0307
     25 H           1.0763   12.3138    0.0445 H       1  LIG1        0.0625
     26 C          -1.7153    9.6378   -0.0179 C.ar    1  LIG1       -0.0066
     27 C          -2.0560   10.9944   -0.0162 C.ar    1  LIG1        0.1873
     28 H          -2.4966    8.8822   -0.0351 H       1  LIG1        0.0662
     29 H           1.9185    9.8933    0.0448 H       1  LIG1        0.0624
     30 O          -3.3045   11.3561   -0.0353 O.3     1  LIG1       -0.2872
     31 C          -3.3878   12.7837   -0.0424 C.3     2  LIG2       -0.0309
     32 H          -4.4156   13.0809   -0.0582 H       1  LIG1        0.0309
     33 H          -2.9175   13.1728    0.8365 H       0  HOH0        0.2052
     34 H          -2.8927   13.1656   -0.9106 H       0  HOH0        0.2052
     35 C          -1.3434   13.2197    0.0086 C.2     1  LIG1        0.0125
     36 C          -0.6286   14.3995    0.0250 C.2     1  LIG1        0.0637
     37 C          -1.6002   15.4733    0.0165 C.2     1  LIG1       -0.0242
     38 C          -2.8448   14.8781   -0.0047 C.2     1  LIG1       -0.0057
     39 O          -2.7126   13.4891   -0.0100 O.3     3  HOH3       -0.4105
     40 N           1.8019   14.6775    0.0619 N.1     1  LIG1       -0.1908
     41 C           0.6628   14.5472    0.0446 C.1     1  LIG1        0.1001
     42 C          -1.3253   16.7441    0.0270 C.3     1  LIG1       -0.0379
     43 H          -2.1046   17.2735    0.5343 H       1  LIG1        0.0278
     44 H          -1.2482   17.1007   -0.9789 H       1  LIG1        0.0278
     45 H          -0.3968   16.9040    0.5342 H       1  LIG1        0.0278
     46 C          -4.3400   16.6859   -0.0067 C.ar    1  LIG1       -0.0532
     47 C          -5.6880   17.0934   -0.0231 C.ar    1  LIG1       -0.0487
     48 C          -4.0737   15.3014   -0.0204 C.ar    1  LIG1       -0.0152
     49 C          -6.7264   16.1654   -0.0523 C.ar    1  LIG1        0.0393
     50 H          -5.9159   18.1570   -0.0128 H       1  LIG1        0.0625
     51 C          -5.1101   14.3745   -0.0496 C.ar    1  LIG1       -0.0326
     52 C          -6.4427   14.7992   -0.0659 C.ar    1  LIG1        0.0359
     53 H          -4.8790   13.3124   -0.0595 H       1  LIG1        0.0642
     54 H          -3.4148   17.5986    0.0202 H       1  LIG1        0.0624
     55 N          -7.4073   13.9281   -0.0930 N.pl3   1  LIG1       -0.3574
     56 H          -8.1946   14.3173   -0.5713 H       1  LIG1        0.1423
     57 H          -7.1002   13.1054   -0.5713 H       1  LIG1        0.1423
     58 C          -7.9595   16.5768   -0.0669 C.ar    1  LIG1        0.1567
     59 C          -8.5863   17.8057   -0.0631 C.ar    1  LIG1        0.1187
     60 C         -10.0105   17.5450   -0.0880 C.ar    1  LIG1        0.0908
     61 C         -10.1596   16.1734   -0.1054 C.ar    1  LIG1        0.1772
     62 O          -8.9092   15.5544   -0.0930 O.2     1  LIG1       -0.4499
     63 N          -7.5434   20.0185   -0.0226 N.1     1  LIG1       -0.1907
     64 C          -8.0321   18.9814   -0.0416 C.1     1  LIG1        0.1048
     65 N         -10.9460   18.4477   -0.0926 N.pl3   1  LIG1       -0.3540
     66 H         -10.6177   19.2655   -0.5652 H       1  LIG1        0.1425
     67 H         -11.7516   18.0904   -0.5652 H       1  LIG1        0.1425
     68 C         -11.1664   15.3514   -0.1300 C.ar    1  LIG1        0.1269
     69 C         -12.5037   15.5950   -0.1471 C.ar    1  LIG1        0.1518
     70 C         -13.1691   14.3272   -0.1707 C.ar    1  LIG1        0.0174
     71 C         -12.2091   13.3646   -0.1688 C.ar    1  LIG1        0.0588
     72 N         -10.9816   13.9873   -0.1435 N.ar    1  LIG1       -0.3484
     73 H         -10.1015   13.5253   -0.1366 H       1  LIG1        0.1661
     74 O         -13.0704   16.7650   -0.1413 O.3     1  LIG1       -0.4926
     75 C         -12.0654   17.7822   -0.1392 C.3     1  LIG1        0.0789
     76 H         -12.5322   18.7450   -0.1346 H       1  LIG1        0.0660
     77 H         -11.4542   17.6780    0.7329 H       1  LIG1        0.0660
     78 H         -11.4575   17.6848   -1.0144 H       1  LIG1        0.0660
     79 C         -14.4541   14.1292   -0.1907 C.3     1  LIG1       -0.0342
     80 H         -14.6812   13.2102    0.3081 H       1  LIG1        0.0279
     81 H         -14.7912   14.0772   -1.2050 H       1  LIG1        0.0279
     82 H         -14.9473   14.9372    0.3081 H       1  LIG1        0.0279
     83 C         -11.1610   11.2625   -0.1941 C.ar    1  LIG1        0.2240
     84 C         -12.3138   12.0690   -0.1852 C.ar    1  LIG1        0.0636
     85 C         -13.5632   11.4462   -0.1942 C.ar    1  LIG1       -0.0042
     86 C         -13.6187   10.0515   -0.2118 C.ar    1  LIG1        0.1390
     87 C         -12.4100    9.3314   -0.2197 C.ar    1  LIG1        0.0730
     88 N         -11.1961    9.9159   -0.2110 N.ar    1  LIG1       -0.2171
     89 H         -14.4860   12.0434   -0.1887 H       1  LIG1        0.0663
     90 H         -12.4099    8.0315   -0.2359 H       1  LIG1        0.0868
     91 O          -9.9754   11.7959   -0.1862 O.3     1  LIG1       -0.4792
     92 C          -8.9871   10.7624   -0.1834 C.3     1  LIG1        0.0804
     93 H          -8.0115   11.2018   -0.1770 H       1  LIG1        0.0660
     94 H          -9.1098   10.1539    0.6882 H       1  LIG1        0.0660
     95 H          -9.1004   10.1581   -1.0591 H       1  LIG1        0.0660
     96 O         -14.7574    9.4243   -0.2209 O.3     1  LIG1       -0.4936
     97 C         -15.8258   10.3747   -0.2243 C.3     1  LIG1        0.0789
     98 H         -16.7628    9.8581   -0.2320 H       1  LIG1        0.0660
     99 H         -15.7626   10.9856    0.6519 H       1  LIG1        0.0660
    100 H         -15.7516   10.9917   -1.0954 H       1  LIG1        0.0660
@<TRIPOS>BOND
     1    81    79    1
     2   100    97    1
     3    95    92    1
     4    78    75    1
     5    44    42    1
     6    34    39    1
     7    57    55    1
     8    56    55    1
     9    67    65    1
    10    66    65    1
    11    90    87    1
    12    98    97    1
    13    97    96    1
    14    97    99    1
    15    96    86    1
    16    87    86   ar
    17    87    88   ar
    18    86    85   ar
    19    88    83   ar
    20    85    89    1
    21    85    84   ar
    22    83    91    1
    23    83    84   ar
    24    79    70    1
    25    79    82    1
    26    79    80    1
    27    91    92    1
    28    84    71    1
    29    92    93    1
    30    92    94    1
    31    70    71   ar
    32    70    69   ar
    33    71    72   ar
    34    69    74    1
    35    69    68   ar
    36    72    73    1
    37    72    68   ar
    38    74    75    1
    39    75    76    1
    40    75    77    1
    41    68    61    1
    42    61    62   ar
    43    61    60   ar
    44    55    52    1
    45    62    58   ar
    46    65    60    1
    47    60    59   ar
    48    58    59   ar
    49    58    49    1
    50    52    49   ar
    51    52    51   ar
    52    59    64    1
    53    53    51    1
    54    32    31    1
    55    19    20    3
    56    49    47   ar
    57    51    48   ar
    58    64    63    3
    59    20    15    1
    60    16    14    1
    61    30    27    1
    62    28    26    1
    63    47    50    1
    64    47    46   ar
    65    14    15   ar
    66    14    11   ar
    67    15    12   ar
    68    48    46   ar
    69    48    38    1
    70    26    27   ar
    71    26    23   ar
    72    27    24   ar
    73    39    33    1
    74    46    54    1
    75    38    37    2
    76     5     4   ar
    77     5     1   ar
    78    11     4    1
    79    11     9   ar
    80     4     3   ar
    81     2     3   ar
    82     2     1   ar
    83     2     7    1
    84     8     3    1
    85     6     1    1
    86    12    23    1
    87    12    10   ar
    88    23    21   ar
    89    24    35    1
    90    24    22   ar
    91    35    36    2
    92    37    36    1
    93    37    42    1
    94     9    10   ar
    95     9    17    1
    96    10    13    1
    97    36    41    1
    98    21    22   ar
    99    21    29    1
   100    22    25    1
   101    42    45    1
   102    42    43    1
   103    17    18    1
   104    41    40    3
