@<TRIPOS>MOLECULE
mol_data/noopt/geoms/mol2/12aa12aa-12aa-12aa.out
 30 33 0 0 0
SMALL
GASTEIGER

@<TRIPOS>ATOM
      1 C           0.1763    1.8460    0.0000 C.ar    1  LIG1        0.0927
      2 C           1.5558    1.8460    0.0000 C.ar    1  LIG1       -0.0232
      3 C           1.9706    3.2334    0.0000 C.ar    1  LIG1       -0.0128
      4 C           0.8165    3.9895   -0.0001 C.ar    1  LIG1        0.1697
      5 O          -0.3030    3.1567   -0.0002 O.2     1  LIG1       -0.4598
      6 H          -0.7504    0.9343    0.0000 H       1  LIG1        0.1029
      7 H           2.3515    0.8179    0.0001 H       1  LIG1        0.0649
      8 H           3.1998    3.6567    0.0000 H       1  LIG1        0.0656
      9 C           0.5416    5.2601   -0.0001 C.ar    1  LIG1        0.1707
     10 C          -0.6119    6.0167   -0.0001 C.ar    1  LIG1       -0.0121
     11 C          -0.1979    7.4043   -0.0001 C.ar    1  LIG1       -0.0121
     12 C           1.1818    7.4036   -0.0002 C.ar    1  LIG1        0.1707
     13 O           1.6612    6.0932   -0.0003 O.2     1  LIG1       -0.4486
     14 H          -1.8411    5.5934   -0.0000 H       1  LIG1        0.0657
     15 H          -0.9936    8.4323   -0.0001 H       1  LIG1        0.0657
     16 C           2.1085    8.3153   -0.0002 C.ar    1  LIG1        0.1707
     17 C           2.1310    9.6946   -0.0002 C.ar    1  LIG1       -0.0121
     18 C           3.5250   10.0867   -0.0001 C.ar    1  LIG1       -0.0121
     19 C           4.2622    8.9204   -0.0002 C.ar    1  LIG1        0.1707
     20 O           3.4112    7.8147   -0.0003 O.2     1  LIG1       -0.4486
     21 H           1.1161   10.5069   -0.0001 H       1  LIG1        0.0657
     22 H           3.9683   11.3088   -0.0001 H       1  LIG1        0.0657
     23 C           5.5281    8.6248   -0.0002 C.ar    1  LIG1        0.1697
     24 C           6.2658    7.4591   -0.0001 C.ar    1  LIG1       -0.0128
     25 C           7.6600    7.8504   -0.0001 C.ar    1  LIG1       -0.0232
     26 C           7.6818    9.2300   -0.0002 C.ar    1  LIG1        0.0927
     27 O           6.3794    9.7307   -0.0003 O.2     1  LIG1       -0.4598
     28 H           8.6085   10.1417   -0.0002 H       1  LIG1        0.1029
     29 H           5.8225    6.2370   -0.0000 H       1  LIG1        0.0656
     30 H           8.6749    7.0381   -0.0001 H       1  LIG1        0.0649
@<TRIPOS>BOND
     1    27    26   ar
     2    27    23   ar
     3    20    19   ar
     4    20    16   ar
     5    13    12   ar
     6    13     9   ar
     7    26    28    1
     8    26    25   ar
     9     5     4   ar
    10     5     1   ar
    11    19    23    1
    12    19    18   ar
    13    12    16    1
    14    12    11   ar
    15    23    24   ar
    16    17    16   ar
    17    17    18   ar
    18    17    21    1
    19    24    25   ar
    20    24    29    1
    21    10    11   ar
    22    10     9   ar
    23    10    14    1
    24    18    22    1
    25    15    11    1
    26     9     4    1
    27     4     3   ar
    28    25    30    1
    29     8     3    1
    30     6     1    1
    31     3     2   ar
    32     2     1   ar
    33     2     7    1
