@<TRIPOS>MOLECULE
mol_data/noopt/geoms/mol2/12aa12aa12aa12aa-.out
 30 33 0 0 0
SMALL
GASTEIGER

@<TRIPOS>ATOM
      1 C           0.1763    1.8460    0.0000 C.ar    1  LIG1        0.0927
      2 C           1.5558    1.8460    0.0000 C.ar    1  LIG1       -0.0232
      3 C           1.9706    3.2334    0.0000 C.ar    1  LIG1       -0.0128
      4 C           0.8165    3.9895   -0.0001 C.ar    1  LIG1        0.1697
      5 O          -0.3030    3.1567   -0.0002 O.2     1  LIG1       -0.4598
      6 H          -0.7504    0.9343    0.0000 H       1  LIG1        0.1029
      7 H           2.3515    0.8179    0.0001 H       1  LIG1        0.0649
      8 H           3.1998    3.6567    0.0000 H       1  LIG1        0.0656
      9 C           0.5416    5.2601   -0.0001 C.ar    1  LIG1        0.1707
     10 C           1.2792    6.4258   -0.0001 C.ar    1  LIG1       -0.0121
     11 C           0.3286    7.5182   -0.0001 C.ar    1  LIG1       -0.0121
     12 C          -0.9274    6.9472   -0.0002 C.ar    1  LIG1        0.1707
     13 O          -0.8223    5.5559   -0.0003 O.2     1  LIG1       -0.4486
     14 H           2.5734    6.5485   -0.0000 H       1  LIG1        0.0657
     15 H           0.6282    8.7832   -0.0001 H       1  LIG1        0.0657
     16 C          -2.1481    7.3943   -0.0002 C.ar    1  LIG1        0.1707
     17 C          -2.7387    8.6410   -0.0002 C.ar    1  LIG1       -0.0121
     18 C          -4.1701    8.4218   -0.0002 C.ar    1  LIG1       -0.0121
     19 C          -4.3593    7.0551   -0.0003 C.ar    1  LIG1        0.1707
     20 O          -3.1273    6.4000   -0.0004 O.2     1  LIG1       -0.4486
     21 H          -2.1504    9.8002   -0.0001 H       1  LIG1        0.0657
     22 H          -5.0789    9.3514   -0.0002 H       1  LIG1        0.0657
     23 C          -5.3898    6.2627   -0.0003 C.ar    1  LIG1        0.1697
     24 C          -5.5796    4.8963   -0.0003 C.ar    1  LIG1       -0.0128
     25 C          -7.0109    4.6763   -0.0003 C.ar    1  LIG1       -0.0232
     26 C          -7.6010    5.9235   -0.0004 C.ar    1  LIG1        0.0927
     27 O          -6.6221    6.9178   -0.0005 O.2     1  LIG1       -0.4598
     28 H          -8.8217    6.3706   -0.0004 H       1  LIG1        0.1029
     29 H          -4.6708    3.9667   -0.0002 H       1  LIG1        0.0656
     30 H          -7.5993    3.5171   -0.0003 H       1  LIG1        0.0649
@<TRIPOS>BOND
     1    27    26   ar
     2    27    23   ar
     3    20    19   ar
     4    20    16   ar
     5    26    28    1
     6    26    25   ar
     7    24    25   ar
     8    24    23   ar
     9    24    29    1
    10    30    25    1
    11    23    19    1
    12    19    18   ar
    13    13    12   ar
    14    13     9   ar
    15    16    17   ar
    16    16    12    1
    17    22    18    1
    18    18    17   ar
    19    17    21    1
    20    12    11   ar
    21     5     4   ar
    22     5     1   ar
    23    15    11    1
    24    11    10   ar
    25    10     9   ar
    26    10    14    1
    27     9     4    1
    28     4     3   ar
    29     1     6    1
    30     1     2   ar
    31     8     3    1
    32     3     2   ar
    33     2     7    1
