@<TRIPOS>MOLECULE
mol_data/noopt/geoms/mol2/12ad12fd(230)13hi(230)4dd(30).out
 44 47 0 0 0
SMALL
GASTEIGER

@<TRIPOS>ATOM
      1 C           0.1763    1.8460    0.0000 C.ar    1  LIG1        0.0940
      2 C           1.5558    1.8460    0.0000 C.ar    1  LIG1       -0.0057
      3 C           1.9706    3.2334    0.0000 C.ar    1  LIG1        0.1006
      4 C           0.8165    3.9895   -0.0001 C.ar    1  LIG1        0.1906
      5 O          -0.3030    3.1567   -0.0002 O.2     1  LIG1       -0.4584
      6 H          -0.7504    0.9343    0.0000 H       1  LIG1        0.1030
      7 H           2.3515    0.8179    0.0001 H       1  LIG1        0.0662
      8 N           4.2839    4.0300    0.0000 N.1     1  LIG1       -0.1907
      9 C           3.1998    3.6567    0.0000 C.1     1  LIG1        0.1031
     10 C           0.5416    5.2601   -0.0001 C.ar    1  LIG1        0.2143
     11 C          -0.3205    6.0797   -0.6987 C.ar    1  LIG1        0.1843
     12 C          -0.1167    7.4218   -0.1946 C.ar    1  LIG1        0.1410
     13 C           0.8567    7.3332    0.7792 C.ar    1  LIG1        0.1747
     14 O           1.2783    6.0104    0.9175 O.2     1  LIG1       -0.4450
     15 O          -1.1607    5.7406   -1.6310 O.3     1  LIG1       -0.5023
     16 H          -1.0290    4.8178   -1.8608 H       1  LIG1        0.2923
     17 N          -1.2965    9.4254   -0.9561 N.1     1  LIG1       -0.1906
     18 C          -0.7436    8.4864   -0.5992 C.1     1  LIG1        0.1067
     19 C           1.4524    8.1733    1.5725 C.ar    1  LIG1        0.1051
     20 C           1.5573    9.5270    1.5055 C.ar    1  LIG1        0.0568
     21 C           2.3243    9.9531    2.6371 C.ar    1  LIG1       -0.0038
     22 C           2.6530    8.8412    3.3469 C.ar    1  LIG1        0.0530
     23 N           2.1216    7.7493    2.6984 N.ar    1  LIG1       -0.3500
     24 H           2.2069    6.8048    2.9961 H       1  LIG1        0.1661
     25 N           1.0539   10.2906    0.5816 N.pl3   1  LIG1       -0.3560
     26 H           1.7909   10.6561    0.0131 H       1  LIG1        0.1424
     27 H           0.4276    9.7573    0.0130 H       1  LIG1        0.1424
     28 C           2.6483   11.1768    2.9346 C.3     1  LIG1       -0.0359
     29 H           1.8631   11.6245    3.5073 H       1  LIG1        0.0279
     30 H           2.7962   11.7356    2.0341 H       1  LIG1        0.0279
     31 H           3.5522   11.1772    3.5072 H       1  LIG1        0.0279
     32 C           3.0039    7.6987    5.3657 C.ar    1  LIG1        0.0609
     33 C           3.7743    7.6023    6.5406 C.ar    1  LIG1       -0.0425
     34 C           3.3371    8.7130    4.4448 C.ar    1  LIG1        0.0172
     35 C           4.8307    8.4756    6.7894 C.ar    1  LIG1       -0.0431
     36 H           3.5341    6.8270    7.2647 H       1  LIG1        0.0631
     37 C           4.3916    9.5851    4.6927 C.ar    1  LIG1       -0.0340
     38 C           5.1455    9.4730    5.8656 C.ar    1  LIG1        0.0525
     39 H           4.6288   10.3590    3.9672 H       1  LIG1        0.0637
     40 H           5.5213    8.3579    7.8845 H       1  LIG1        0.0631
     41 N           1.1726    6.1106    5.0337 N.1     1  LIG1       -0.1908
     42 C           2.0308    6.8549    5.1893 C.1     1  LIG1        0.0998
     43 N           6.9983   11.0128    6.2917 N.1     1  LIG1       -0.1909
     44 C           6.1300   10.2912    6.0920 C.1     1  LIG1        0.0992
@<TRIPOS>BOND
     1    16    15    1
     2    15    11    1
     3    17    18    3
     4    11    12   ar
     5    11    10   ar
     6    18    12    1
     7    12    13   ar
     8     5     4   ar
     9     5     1   ar
    10     4    10    1
    11     4     3   ar
    12    10    14   ar
    13     1     6    1
    14     1     2   ar
    15     9     8    3
    16     9     3    1
    17     3     2   ar
    18     2     7    1
    19    27    25    1
    20    26    25    1
    21    25    20    1
    22    13    14   ar
    23    13    19    1
    24    20    19   ar
    25    20    21   ar
    26    19    23   ar
    27    30    28    1
    28    21    28    1
    29    21    22   ar
    30    23    24    1
    31    23    22   ar
    32    28    31    1
    33    28    29    1
    34    22    34    1
    35    39    37    1
    36    34    37   ar
    37    34    32   ar
    38    37    38   ar
    39    41    42    3
    40    42    32    1
    41    32    33   ar
    42    38    44    1
    43    38    35   ar
    44    44    43    3
    45    33    35   ar
    46    33    36    1
    47    35    40    1
