@<TRIPOS>MOLECULE
mol_data/noopt/geoms/mol2/12ad13fl(10)6ee(190)13ae(180).out
 46 49 0 0 0
SMALL
GASTEIGER

@<TRIPOS>ATOM
      1 C           0.1763    1.8460    0.0000 C.ar    1  LIG1        0.0939
      2 C           1.5558    1.8460    0.0000 C.ar    1  LIG1       -0.0058
      3 C           1.9706    3.2334    0.0000 C.ar    1  LIG1        0.0989
      4 C           0.8165    3.9895   -0.0001 C.ar    1  LIG1        0.1718
      5 O          -0.3030    3.1567   -0.0002 O.2     1  LIG1       -0.4600
      6 H          -0.7504    0.9343    0.0000 H       1  LIG1        0.1030
      7 H           2.3515    0.8179    0.0001 H       1  LIG1        0.0662
      8 N           4.2839    4.0300    0.0000 N.1     1  LIG1       -0.1907
      9 C           3.1998    3.6567    0.0000 C.1     1  LIG1        0.1030
     10 C           0.5416    5.2601   -0.0001 C.ar    1  LIG1        0.1295
     11 C           1.3532    6.3381    0.1652 C.ar    1  LIG1        0.1881
     12 C           0.5329    7.5085    0.0766 C.ar    1  LIG1        0.1875
     13 C          -0.7435    7.0944   -0.1406 C.ar    1  LIG1        0.0957
     14 N          -0.7428    5.7186   -0.1878 N.ar    1  LIG1       -0.3458
     15 H          -1.5426    5.1470   -0.3348 H       1  LIG1        0.1662
     16 O           2.6370    6.3079    0.3678 O.3     1  LIG1       -0.5018
     17 H           2.9747    7.2051    0.4177 H       1  LIG1        0.2924
     18 O           0.9317    8.7413    0.1833 O.3     1  LIG1       -0.4895
     19 C           2.3607    8.7789    0.2224 C.3     1  LIG1        0.0791
     20 H           2.6885    9.7937    0.3100 H       1  LIG1        0.0660
     21 H           2.7095    8.2176    1.0639 H       1  LIG1        0.0660
     22 H           2.7535    8.3537   -0.6775 H       1  LIG1        0.0660
     23 C          -1.8243    9.1801   -0.1630 C.ar    1  LIG1        0.1231
     24 C          -1.8385    7.7790   -0.2902 C.ar    1  LIG1        0.0370
     25 C          -3.0499    7.1481   -0.5793 C.ar    1  LIG1       -0.0323
     26 C          -4.1959    7.9307   -0.7301 C.ar    1  LIG1        0.0528
     27 C          -4.0808    9.3253   -0.5839 C.ar    1  LIG1        0.1039
     28 N          -2.9202    9.9504   -0.3052 N.ar    1  LIG1       -0.2351
     29 H          -3.1002    6.0551   -0.6851 H       1  LIG1        0.0638
     30 C          -0.7208    9.8128    0.1054 C.1     1  LIG1       -0.0491
     31 C           0.2987   10.3975    0.3535 C.1     1  LIG1       -0.1124
     32 H           1.2070   10.9183    0.5744 H       1  LIG1        0.1232
     33 C          -5.3476    7.3911   -0.9995 C.1     1  LIG1       -0.0674
     34 C          -6.4117    6.8925   -1.2483 C.1     1  LIG1       -0.1138
     35 H          -7.3596    6.4483   -1.4700 H       1  LIG1        0.1232
     36 C          -5.1193   10.0962   -0.7151 C.ar    1  LIG1        0.0674
     37 C          -6.4404    9.7886   -0.8037 C.ar    1  LIG1       -0.0195
     38 C          -7.1583   11.0204   -0.9380 C.ar    1  LIG1        0.0426
     39 C          -6.2443   12.0267   -0.9240 C.ar    1  LIG1        0.0177
     40 N          -4.9947   11.4652   -0.7881 N.ar    1  LIG1       -0.3583
     41 H          -4.1384   11.9685   -0.7484 H       1  LIG1        0.1654
     42 H          -6.4049   13.3134   -1.0155 H       1  LIG1        0.0819
     43 H          -6.9538    8.5947   -0.7732 H       1  LIG1        0.0651
     44 C          -8.4462   11.1556   -1.0522 C.1     1  LIG1       -0.0682
     45 C          -9.6362   11.2805   -1.1577 C.1     1  LIG1       -0.1139
     46 H         -10.6962   11.3917   -1.2516 H       1  LIG1        0.1232
@<TRIPOS>BOND
     1    35    34    1
     2    46    45    1
     3    34    33    3
     4    45    44    3
     5    44    38    1
     6    42    39    1
     7    33    26    1
     8    38    39   ar
     9    38    37   ar
    10    39    40   ar
    11    37    43    1
    12    37    36   ar
    13    40    41    1
    14    40    36   ar
    15    26    27   ar
    16    26    25   ar
    17    36    27    1
    18    29    25    1
    19    22    19    1
    20    27    28   ar
    21    25    24   ar
    22    15    14    1
    23    28    23   ar
    24    24    23   ar
    25    24    13    1
    26    14    13   ar
    27    14    10   ar
    28    23    30    1
    29    13    12   ar
    30     5     4   ar
    31     5     1   ar
    32     4    10    1
    33     4     3   ar
    34    10    11   ar
    35     2     3   ar
    36     2     1   ar
    37     2     7    1
    38     3     9    1
    39     6     1    1
    40     8     9    3
    41    12    11   ar
    42    12    18    1
    43    30    31    3
    44    11    16    1
    45    18    19    1
    46    19    20    1
    47    19    21    1
    48    31    32    1
    49    16    17    1
