@<TRIPOS>MOLECULE
mol_data/noopt/geoms/mol2/12ad6el-13ll12ai-.out
 51 51 0 0 0
SMALL
GASTEIGER

@<TRIPOS>ATOM
      1 C           0.1763    1.8460    0.0000 C.ar    1  LIG1        0.0939
      2 C           1.5558    1.8460    0.0000 C.ar    1  LIG1       -0.0058
      3 C           1.9706    3.2334    0.0000 C.ar    1  LIG1        0.0974
      4 C           0.8165    3.9895   -0.0001 C.ar    1  LIG1        0.1544
      5 O          -0.3030    3.1567   -0.0002 O.2     1  LIG1       -0.4615
      6 H          -0.7504    0.9343    0.0000 H       1  LIG1        0.1030
      7 H           2.3515    0.8179    0.0001 H       1  LIG1        0.0662
      8 N           4.2839    4.0300    0.0000 N.1     1  LIG1       -0.1907
      9 C           3.1998    3.6567    0.0000 C.1     1  LIG1        0.1030
     10 C          -0.7951    5.6985   -0.0211 C.2     1  LIG1        0.1194
     11 C           0.5416    5.2601   -0.0001 C.2     1  LIG1        0.0486
     12 C           1.5571    6.2179    0.0209 C.2     1  LIG1       -0.0618
     13 C           1.2066    7.5691    0.0200 C.3     1  LIG1        0.0221
     14 C          -0.1586    7.9086   -0.0020 C.3     1  LIG1        0.1725
     15 N          -1.1512    6.9977   -0.0223 N.2     1  LIG1       -0.2556
     16 H           2.6132    5.9133    0.0367 H       1  LIG1        0.0586
     17 C          -1.7753    4.8448   -0.0410 C.1     1  LIG1       -0.0495
     18 C          -2.6810    4.0560   -0.0594 C.1     1  LIG1       -0.1124
     19 H          -3.4878    3.3534   -0.0758 H       1  LIG1        0.1232
     20 O           2.1148    8.4990    0.0389 O.3     2  HOH2       -0.4105
     21 C           3.4126    7.8986    0.0458 C.3     3  LIG3       -0.0681
     22 H           4.1598    8.6643    0.0611 H       1  LIG1        0.0227
     23 H           3.5158    7.2821    0.9143 H       1  LIG1        0.0227
     24 H           3.5334    7.3000   -0.8329 H       1  LIG1        0.0227
     25 C          -0.5350    9.1530   -0.0037 C.ar    1  LIG1        0.0961
     26 C           0.1997   10.2966    0.0115 C.ar    1  LIG1        0.1864
     27 C          -0.7188   11.3952    0.0021 C.ar    1  LIG1        0.1903
     28 C          -1.9744   10.8746   -0.0201 C.ar    1  LIG1        0.1283
     29 N          -1.8664    9.5021   -0.0232 N.ar    1  LIG1       -0.3476
     30 H          -2.6289    8.8645   -0.0380 H       1  LIG1        0.1660
     31 O           1.4973   10.3746    0.0323 O.3     1  LIG1       -0.4756
     32 C           2.0545    9.0577    0.0398 C.3     1  LIG1        0.1807
     33 H           3.1224    9.1223    0.0567 H       1  LIG1        0.0811
     34 H           1.7153    8.5318    0.9078 H       0  HOH0        0.2052
     35 H           1.7429    8.5334   -0.8393 H       0  HOH0        0.2052
     36 O          -0.4123   12.6585    0.0124 O.3     1  LIG1       -0.4894
     37 C           1.0102   12.8046    0.0162 C.3     1  LIG1        0.0791
     38 H           1.2619   13.8445    0.0245 H       1  LIG1        0.0660
     39 H           1.4149   12.3327    0.8871 H       1  LIG1        0.0660
     40 H           1.4181   12.3459   -0.8602 H       1  LIG1        0.0660
     41 C          -3.1323   11.4652   -0.0357 C.ar    1  LIG1        0.1548
     42 C          -3.5688   12.7738   -0.0327 C.ar    1  LIG1       -0.0114
     43 C          -5.0160   12.7285   -0.0587 C.ar    1  LIG1       -0.0121
     44 C          -5.3679   11.3945   -0.0759 C.ar    1  LIG1        0.0955
     45 O          -4.2238   10.5960   -0.0623 O.2     1  LIG1       -0.4611
     46 H          -6.4860   10.7318   -0.1010 H       1  LIG1        0.1032
     47 H          -2.8455   13.8538   -0.0111 H       1  LIG1        0.0658
     48 C          -5.8066   13.7608   -0.0642 C.3     1  LIG1       -0.0367
     49 H          -6.7183   13.5145    0.4387 H       1  LIG1        0.0278
     50 H          -6.0209   14.0405   -1.0746 H       1  LIG1        0.0278
     51 H          -5.3311   14.5769    0.4386 H       1  LIG1        0.0278
@<TRIPOS>BOND
     1    50    48    1
     2    40    37    1
     3    35    20    1
     4    24    21    1
     5    46    44    1
     6    44    45   ar
     7    44    43   ar
     8    19    18    1
     9    48    43    1
    10    48    51    1
    11    48    49    1
    12    45    41   ar
    13    18    17    3
    14    43    42   ar
    15    17    10    1
    16    30    29    1
    17    41    42   ar
    18    41    28    1
    19    42    47    1
    20    29    28   ar
    21    29    25   ar
    22    15    10    2
    23    15    14    1
    24    10    11    1
    25    28    27   ar
    26    25    14    1
    27    25    26   ar
    28     5     4   ar
    29     5     1   ar
    30    11     4    1
    31    11    12    2
    32     4     3   ar
    33     1     6    1
    34     1     2   ar
    35     8     9    3
    36     9     3    1
    37     3     2   ar
    38     2     7    1
    39    27    26   ar
    40    27    36    1
    41    26    31    1
    42    36    37    1
    43    37    38    1
    44    37    39    1
    45    13    12    1
    46    12    16    1
    47    31    32    1
    48    20    34    1
    49    32    33    1
    50    21    22    1
    51    21    23    1
