@<TRIPOS>MOLECULE
mol_data/noopt/geoms/mol2/12ad13fe(200)13ll(250)13ee(130).out
 49 52 0 0 0
SMALL
GASTEIGER

@<TRIPOS>ATOM
      1 C           0.1763    1.8460    0.0000 C.ar    1  LIG1        0.0939
      2 C           1.5558    1.8460    0.0000 C.ar    1  LIG1       -0.0058
      3 C           1.9706    3.2334    0.0000 C.ar    1  LIG1        0.0989
      4 C           0.8165    3.9895   -0.0001 C.ar    1  LIG1        0.1718
      5 O          -0.3030    3.1567   -0.0002 O.2     1  LIG1       -0.4600
      6 H          -0.7504    0.9343    0.0000 H       1  LIG1        0.1030
      7 H           2.3515    0.8179    0.0001 H       1  LIG1        0.0662
      8 N           4.2839    4.0300    0.0000 N.1     1  LIG1       -0.1907
      9 C           3.1998    3.6567    0.0000 C.1     1  LIG1        0.1030
     10 C           0.5416    5.2601   -0.0001 C.ar    1  LIG1        0.1270
     11 C          -0.6038    5.9147   -0.3281 C.ar    1  LIG1        0.1612
     12 C          -0.3618    7.3149   -0.1512 C.ar    1  LIG1        0.0935
     13 C           0.9202    7.4544    0.2788 C.ar    1  LIG1        0.0864
     14 N           1.4771    6.1989    0.3722 N.ar    1  LIG1       -0.3466
     15 H           2.4069    6.0015    0.6630 H       1  LIG1        0.1662
     16 O          -1.7123    5.3669   -0.7296 O.3     1  LIG1       -0.5034
     17 H          -1.5846    4.4206   -0.8285 H       1  LIG1        0.2923
     18 C          -1.2093    8.2780   -0.3615 C.1     1  LIG1       -0.0638
     19 C          -1.9924    9.1679   -0.5558 C.1     1  LIG1       -0.1137
     20 H          -2.6900    9.9606   -0.7288 H       1  LIG1        0.1232
     21 C           1.5989    8.5227    0.5758 C.ar    1  LIG1        0.1107
     22 C           1.8554    9.6372   -0.1590 C.ar    1  LIG1        0.1890
     23 C           2.6547   10.5079    0.6496 C.ar    1  LIG1        0.1890
     24 C           2.8499    9.8879    1.8435 C.ar    1  LIG1        0.1106
     25 N           2.2056    8.6720    1.8025 N.ar    1  LIG1       -0.3459
     26 H           2.1817    8.0077    2.5415 H       1  LIG1        0.1662
     27 O           1.4496    9.8663   -1.3726 O.3     1  LIG1       -0.4895
     28 C           1.9630   11.1243   -1.8182 C.3     1  LIG1        0.0791
     29 H           1.6289   11.3123   -2.8172 H       1  LIG1        0.0660
     30 H           1.6118   11.9018   -1.1724 H       1  LIG1        0.0660
     31 H           3.0325   11.1003   -1.7985 H       1  LIG1        0.0660
     32 O           3.1109   11.6766    0.3085 O.3     1  LIG1       -0.4895
     33 C           4.5341   11.6154    0.1832 C.3     1  LIG1        0.0791
     34 H           4.9091   12.5773   -0.0976 H       1  LIG1        0.0660
     35 H           4.9624   11.3251    1.1199 H       1  LIG1        0.0660
     36 H           4.7956   10.8979   -0.5662 H       1  LIG1        0.0660
     37 C           3.5050   10.2747    2.8977 C.ar    1  LIG1        0.0834
     38 C           3.0612   10.8217    4.0604 C.ar    1  LIG1        0.0668
     39 C           4.2070   11.0602    4.8855 C.ar    1  LIG1        0.0580
     40 C           5.3004   10.6469    4.1915 C.ar    1  LIG1        0.0189
     41 N           4.8751   10.1656    2.9738 N.ar    1  LIG1       -0.3573
     42 H           5.4639    9.7973    2.2627 H       1  LIG1        0.1655
     43 H           6.5591   10.6570    4.5163 H       1  LIG1        0.0820
     44 C           1.8237   11.0807    4.3631 C.1     1  LIG1       -0.0663
     45 C           0.6803   11.3200    4.6429 C.1     1  LIG1       -0.1138
     46 H          -0.3382   11.5331    4.8920 H       1  LIG1        0.1232
     47 C           4.2058   11.5762    6.0787 C.1     1  LIG1       -0.0669
     48 C           4.2047   12.0530    7.1813 C.1     1  LIG1       -0.1138
     49 H           4.2037   12.4777    8.1634 H       1  LIG1        0.1232
@<TRIPOS>BOND
     1    29    28    1
     2    28    31    1
     3    28    27    1
     4    28    30    1
     5    27    22    1
     6    17    16    1
     7    16    11    1
     8    20    19    1
     9    36    33    1
    10    19    18    3
    11    18    12    1
    12    11    12   ar
    13    11    10   ar
    14    22    21   ar
    15    22    23   ar
    16    12    13   ar
    17    34    33    1
    18     5     4   ar
    19     5     1   ar
    20    10     4    1
    21    10    14   ar
    22     4     3   ar
    23     2     3   ar
    24     2     1   ar
    25     2     7    1
    26     9     3    1
    27     9     8    3
    28     1     6    1
    29    33    32    1
    30    33    35    1
    31    13    14   ar
    32    13    21    1
    33    32    23    1
    34    14    15    1
    35    21    25   ar
    36    23    24   ar
    37    25    24   ar
    38    25    26    1
    39    24    37    1
    40    42    41    1
    41    37    41   ar
    42    37    38   ar
    43    41    40   ar
    44    38    44    1
    45    38    39   ar
    46    40    43    1
    47    40    39   ar
    48    44    45    3
    49    45    46    1
    50    39    47    1
    51    47    48    3
    52    48    49    1
