@<TRIPOS>MOLECULE
mol_data/noopt/geoms/mol2/12ad6ia-13lf6ie-12ae12fi-13ea4ih-.out
 94 100 0 0 0
SMALL
GASTEIGER

@<TRIPOS>ATOM
      1 C           0.1763    1.8460    0.0000 C.ar    1  LIG1        0.0938
      2 C           1.5558    1.8460    0.0000 C.ar    1  LIG1       -0.0058
      3 C           1.9706    3.2334    0.0000 C.ar    1  LIG1        0.0971
      4 C           0.8165    3.9895   -0.0001 C.ar    1  LIG1        0.1502
      5 O          -0.3030    3.1567   -0.0002 O.2     1  LIG1       -0.4619
      6 H          -0.7504    0.9343    0.0000 H       1  LIG1        0.1030
      7 H           2.3515    0.8179    0.0001 H       1  LIG1        0.0662
      8 N           4.2839    4.0300    0.0000 N.1     1  LIG1       -0.1907
      9 C           3.1998    3.6567    0.0000 C.1     1  LIG1        0.1030
     10 C          -0.7951    5.6985   -0.0211 C.3     1  LIG1        0.1166
     11 C           0.5416    5.2601   -0.0001 C.2     1  LIG1        0.0222
     12 C           1.5571    6.2179    0.0209 C.2     1  LIG1       -0.0707
     13 C           1.2066    7.5691    0.0200 C.3     1  LIG1       -0.0085
     14 C          -0.1586    7.9086   -0.0020 C.2     1  LIG1        0.1135
     15 N          -1.1512    6.9977   -0.0223 N.2     1  LIG1       -0.2657
     16 H           2.6132    5.9133    0.0367 H       1  LIG1        0.0580
     17 C          -1.7755    4.8446   -0.0410 C.3     1  LIG1       -0.0329
     18 H          -1.4765    3.9465    0.4579 H       1  LIG1        0.0257
     19 H          -2.0328    4.6205   -1.0552 H       1  LIG1        0.0257
     20 H          -2.6241    5.2642    0.4578 H       1  LIG1        0.0257
     21 H           2.1148    8.4990    0.0389 H       1  LIG1        0.0355
     22 C          -0.5350    9.1530   -0.0037 C.ar    1  LIG1        0.1131
     23 C           0.1997   10.2966    0.0115 C.ar    1  LIG1        0.1889
     24 C          -0.7188   11.3952    0.0021 C.ar    1  LIG1        0.1851
     25 C          -1.9744   10.8746   -0.0201 C.ar    1  LIG1        0.0945
     26 N          -1.8664    9.5021   -0.0232 N.ar    1  LIG1       -0.3470
     27 H          -2.6289    8.8645   -0.0380 H       1  LIG1        0.1662
     28 O           1.4973   10.3746    0.0323 O.3     1  LIG1       -0.4895
     29 C           2.0545    9.0577    0.0398 C.3     1  LIG1        0.0791
     30 H           3.1224    9.1223    0.0567 H       1  LIG1        0.0660
     31 H           1.7153    8.5318    0.9078 H       1  LIG1        0.0660
     32 H           1.7429    8.5334   -0.8393 H       1  LIG1        0.0660
     33 O          -0.4123   12.6585    0.0124 O.3     1  LIG1       -0.5019
     34 H          -1.2163   13.1832    0.0150 H       1  LIG1        0.2924
     35 C          -4.3171   10.7070   -0.0653 C.ar    1  LIG1        0.0483
     36 C          -3.1323   11.4652   -0.0357 C.ar    1  LIG1        0.0242
     37 C          -3.2320   12.8577   -0.0234 C.ar    1  LIG1       -0.0332
     38 C          -4.5002   13.4407   -0.0410 C.ar    1  LIG1        0.0543
     39 C          -5.6265   12.5980   -0.0706 C.ar    1  LIG1        0.1216
     40 N          -5.5485   11.2529   -0.0826 N.ar    1  LIG1       -0.2469
     41 H          -2.3284   13.4831   -0.0014 H       1  LIG1        0.0637
     42 C          -4.2756    9.4074   -0.0776 C.3     1  LIG1       -0.0217
     43 H          -3.3909    9.0740    0.4234 H       1  LIG1        0.0293
     44 H          -4.2645    9.0605   -1.0898 H       1  LIG1        0.0293
     45 H          -5.1374    9.0184    0.4233 H       1  LIG1        0.0293
     46 C          -4.6462   14.7325   -0.0308 C.1     1  LIG1       -0.0674
     47 C          -4.7812   15.9260   -0.0213 C.1     1  LIG1       -0.1138
     48 H          -4.9013   16.9892   -0.0129 H       1  LIG1        0.1232
     49 C          -6.8282   13.0934   -0.0878 C.ar    1  LIG1        0.1564
     50 C          -7.3685   14.3627   -0.1008 C.ar    1  LIG1        0.0019
     51 C          -8.8074   14.2008   -0.1176 C.ar    1  LIG1        0.0742
     52 C          -9.0510   12.8428   -0.1138 C.ar    1  LIG1        0.1896
     53 O          -7.8464   12.1390   -0.0956 O.2     1  LIG1       -0.4488
     54 H          -6.7343   15.4975   -0.0986 H       1  LIG1        0.0668
     55 C          -9.6782   15.1659   -0.1331 C.1     1  LIG1       -0.0657
     56 C         -10.4829   16.0577   -0.1475 C.1     1  LIG1       -0.1138
     57 H         -11.1996   16.8520   -0.1602 H       1  LIG1        0.1232
     58 C         -10.1123   12.0921   -0.1230 C.ar    1  LIG1        0.2132
     59 C         -11.4738   12.3142   -0.1300 C.ar    1  LIG1        0.1694
     60 C         -12.1065   11.0116   -0.1389 C.ar    1  LIG1        0.0390
     61 C         -11.0891   10.0796   -0.1370 C.ar    1  LIG1        0.1596
     62 O          -9.8502   10.7214   -0.1273 O.2     1  LIG1       -0.4461
     63 O         -12.0937   13.4569   -0.1288 O.3     1  LIG1       -0.5029
     64 H         -13.0419   13.3071   -0.1285 H       1  LIG1        0.2923
     65 C         -13.3880   10.7917   -0.1473 C.3     1  LIG1       -0.0325
     66 H         -13.5949    9.8697    0.3549 H       1  LIG1        0.0280
     67 H         -13.7332   10.7323   -1.1584 H       1  LIG1        0.0280
     68 H         -13.8905   11.5919    0.3548 H       1  LIG1        0.0280
     69 C         -11.0223    8.7814   -0.1419 C.ar    1  LIG1        0.0985
     70 C         -12.0100    7.8474   -0.1456 C.ar    1  LIG1        0.0535
     71 C         -11.3818    6.5606   -0.1493 C.ar    1  LIG1       -0.0203
     72 C         -10.0378    6.7647   -0.1494 C.ar    1  LIG1        0.0485
     73 N          -9.8133    8.1230   -0.1444 N.ar    1  LIG1       -0.3508
     74 H          -8.9201    8.5590   -0.1435 H       1  LIG1        0.1660
     75 C         -13.2885    8.0830   -0.1444 C.1     1  LIG1       -0.0674
     76 C         -14.4698    8.3006   -0.1432 C.1     1  LIG1       -0.1138
     77 H         -15.5221    8.4945   -0.1422 H       1  LIG1        0.1232
     78 H         -11.9825    5.4076   -0.1524 H       1  LIG1        0.0651
     79 C          -9.3247    4.5298   -0.1317 C.ar    1  LIG1       -0.0412
     80 C          -8.2259    3.6488   -0.1343 C.ar    1  LIG1       -0.0565
     81 C          -9.0553    5.9135   -0.1523 C.ar    1  LIG1        0.0030
     82 C          -6.9161    4.1225   -0.1568 C.ar    1  LIG1       -0.0408
     83 H          -8.4112    2.5771   -0.1184 H       1  LIG1        0.0621
     84 C          -7.7479    6.3869   -0.1748 C.ar    1  LIG1       -0.0317
     85 C          -6.6697    5.4958   -0.1774 C.ar    1  LIG1        0.0252
     86 H          -7.5661    7.4585   -0.1903 H       1  LIG1        0.0643
     87 H          -5.9253    3.2808   -0.1586 H       1  LIG1        0.0636
     88 C         -10.5241    4.0279   -0.1105 C.3     1  LIG1       -0.0391
     89 H         -10.5083    3.0875    0.3997 H       1  LIG1        0.0278
     90 H         -10.8683    3.8839   -1.1133 H       1  LIG1        0.0278
     91 H         -11.1826    4.6995    0.3997 H       1  LIG1        0.0278
     92 N          -5.4496    5.9442   -0.1983 N.pl3   1  LIG1       -0.3579
     93 H          -4.8623    5.2901   -0.6751 H       1  LIG1        0.1423
     94 H          -5.4255    6.8229   -0.6751 H       1  LIG1        0.1423
@<TRIPOS>BOND
     1    67    65    1
     2    90    88    1
     3    44    42    1
     4    19    17    1
     5    32    29    1
     6    94    92    1
     7    93    92    1
     8    92    85    1
     9    86    84    1
    10    85    84   ar
    11    85    82   ar
    12    84    81   ar
    13    57    56    1
    14    87    82    1
    15    82    80   ar
    16    78    71    1
    17    81    72    1
    18    81    79   ar
    19    72    71   ar
    20    72    73   ar
    21    71    70   ar
    22    56    55    3
    23    65    60    1
    24    65    68    1
    25    65    66    1
    26    70    75    1
    27    70    69   ar
    28    73    74    1
    29    73    69   ar
    30    75    76    3
    31    76    77    1
    32    69    61    1
    33    60    61   ar
    34    60    59   ar
    35    61    62   ar
    36    80    79   ar
    37    80    83    1
    38    55    51    1
    39    79    88    1
    40    59    63    1
    41    59    58   ar
    42    63    64    1
    43    62    58   ar
    44    58    52    1
    45    51    52   ar
    46    51    50   ar
    47    52    53   ar
    48    88    91    1
    49    88    89    1
    50    50    54    1
    51    50    49   ar
    52    53    49   ar
    53    49    39    1
    54    40    39   ar
    55    40    35   ar
    56    42    35    1
    57    42    45    1
    58    42    43    1
    59    39    38   ar
    60    35    36   ar
    61    38    46    1
    62    38    37   ar
    63    17    10    1
    64    17    20    1
    65    17    18    1
    66    27    26    1
    67    36    37   ar
    68    36    25    1
    69    46    47    3
    70    37    41    1
    71    26    25   ar
    72    26    22   ar
    73    15    10    1
    74    15    14    2
    75    47    48    1
    76    10    11    1
    77    25    24   ar
    78    22    14    1
    79    22    23   ar
    80     5     4   ar
    81     5     1   ar
    82     4    11    1
    83     4     3   ar
    84    11    12    2
    85     1     2   ar
    86     1     6    1
    87     2     3   ar
    88     2     7    1
    89     3     9    1
    90     8     9    3
    91    24    23   ar
    92    24    33    1
    93    23    28    1
    94    33    34    1
    95    13    12    1
    96    13    21    1
    97    12    16    1
    98    28    29    1
    99    29    30    1
   100    29    31    1
