@<TRIPOS>MOLECULE
mol_data/noopt/geoms/mol2/12ad12il4aa-4ia-.out
 47 50 0 0 0
SMALL
GASTEIGER

@<TRIPOS>ATOM
      1 C           0.1763    1.8460    0.0000 C.ar    1  LIG1        0.0940
      2 C           1.5558    1.8460    0.0000 C.ar    1  LIG1       -0.0057
      3 C           1.9706    3.2334    0.0000 C.ar    1  LIG1        0.1004
      4 C           0.8165    3.9895   -0.0001 C.ar    1  LIG1        0.1873
      5 O          -0.3030    3.1567   -0.0002 O.2     1  LIG1       -0.4585
      6 H          -0.7504    0.9343    0.0000 H       1  LIG1        0.1030
      7 H           2.3515    0.8179    0.0001 H       1  LIG1        0.0662
      8 N           4.2839    4.0300    0.0000 N.1     1  LIG1       -0.1907
      9 C           3.1998    3.6567    0.0000 C.1     1  LIG1        0.1031
     10 C           0.5416    5.2601   -0.0001 C.ar    1  LIG1        0.1784
     11 C           1.2791    6.4258    0.0147 C.ar    1  LIG1        0.0408
     12 C           0.3286    7.5182    0.0040 C.ar    1  LIG1        0.1692
     13 C          -0.9273    6.9473   -0.0167 C.ar    1  LIG1        0.1775
     14 O          -0.8221    5.5559   -0.0197 O.2     1  LIG1       -0.4476
     15 C           2.5735    6.5484    0.0345 C.3     1  LIG1       -0.0325
     16 H           2.8385    7.4511    0.5443 H       1  LIG1        0.0280
     17 H           2.9439    6.5836   -0.9688 H       1  LIG1        0.0280
     18 H           3.0033    5.7116    0.5443 H       1  LIG1        0.0280
     19 O           0.6281    8.7832    0.0126 O.3     1  LIG1       -0.4910
     20 C           2.0498    8.9371    0.0157 C.3     1  LIG1        0.0790
     21 H           2.2959    9.9784    0.0225 H       1  LIG1        0.0660
     22 H           2.4574    8.4686    0.8870 H       1  LIG1        0.0660
     23 H           2.4600    8.4795   -0.8602 H       1  LIG1        0.0660
     24 C          -2.3872    8.7837   -0.0205 C.ar    1  LIG1       -0.0504
     25 C          -3.7269    9.2174   -0.0381 C.ar    1  LIG1       -0.0534
     26 C          -2.1478    7.3944   -0.0335 C.ar    1  LIG1        0.0210
     27 C          -4.7832    8.3097   -0.0679 C.ar    1  LIG1       -0.0176
     28 H          -3.9341   10.2852   -0.0283 H       1  LIG1        0.0624
     29 C          -3.2019    6.4877   -0.0633 C.ar    1  LIG1       -0.0504
     30 C          -4.5260    6.9382   -0.0808 C.ar    1  LIG1       -0.0534
     31 H          -2.9914    5.4213   -0.0727 H       1  LIG1        0.0625
     32 H          -1.4444    9.6784    0.0070 H       1  LIG1        0.0625
     33 H          -5.5074    6.0860   -0.1085 H       1  LIG1        0.0624
     34 C          -6.2609   10.1319   -0.0701 C.ar    1  LIG1       -0.0427
     35 C          -7.6048   10.5525   -0.0865 C.ar    1  LIG1       -0.0583
     36 C          -6.0080    8.7449   -0.0837 C.ar    1  LIG1       -0.0150
     37 C          -8.6522    9.6345   -0.1158 C.ar    1  LIG1       -0.0615
     38 H          -7.8223   11.6182   -0.0762 H       1  LIG1        0.0620
     39 C          -7.0533    7.8281   -0.1129 C.ar    1  LIG1       -0.0538
     40 C          -8.3817    8.2656   -0.1293 C.ar    1  LIG1       -0.0612
     41 H          -6.8325    6.7637   -0.1228 H       1  LIG1        0.0624
     42 H          -9.8813   10.0579   -0.1304 H       1  LIG1        0.0618
     43 C          -5.3266   11.0358   -0.0431 C.3     1  LIG1       -0.0391
     44 H          -5.6853   11.9044    0.4686 H       1  LIG1        0.0278
     45 H          -5.0553   11.2984   -1.0443 H       1  LIG1        0.0278
     46 H          -4.4703   10.6486    0.4686 H       1  LIG1        0.0278
     47 H          -9.3548    7.4040   -0.1565 H       1  LIG1        0.0618
@<TRIPOS>BOND
     1    45    43    1
     2    17    15    1
     3    23    20    1
     4    47    40    1
     5    42    37    1
     6    40    37   ar
     7    40    39   ar
     8    41    39    1
     9    37    35   ar
    10    39    36   ar
    11    33    30    1
    12    35    38    1
    13    35    34   ar
    14    36    34   ar
    15    36    27    1
    16    30    27   ar
    17    30    29   ar
    18    31    29    1
    19    34    43    1
    20    27    25   ar
    21    29    26   ar
    22    43    46    1
    23    43    44    1
    24    25    28    1
    25    25    24   ar
    26    26    24   ar
    27    26    13    1
    28    24    32    1
    29    14    13   ar
    30    14    10   ar
    31    13    12   ar
    32     5     4   ar
    33     5     1   ar
    34     4    10    1
    35     4     3   ar
    36    10    11   ar
    37     1     2   ar
    38     1     6    1
    39     2     3   ar
    40     2     7    1
    41     3     9    1
    42     8     9    3
    43    12    19    1
    44    12    11   ar
    45    19    20    1
    46    11    15    1
    47    20    21    1
    48    20    22    1
    49    15    18    1
    50    15    16    1
