@<TRIPOS>MOLECULE
mol_data/noopt/geoms/mol2/12ad4hf4ei4id6fd13af-4id-12ea.out
 95 100 0 0 0
SMALL
GASTEIGER

@<TRIPOS>ATOM
      1 C           0.1763    1.8460    0.0000 C.ar    1  LIG1        0.0939
      2 C           1.5558    1.8460    0.0000 C.ar    1  LIG1       -0.0058
      3 C           1.9706    3.2334    0.0000 C.ar    1  LIG1        0.0974
      4 C           0.8165    3.9895   -0.0001 C.ar    1  LIG1        0.1539
      5 O          -0.3030    3.1567   -0.0002 O.2     1  LIG1       -0.4615
      6 H          -0.7504    0.9343    0.0000 H       1  LIG1        0.1030
      7 H           2.3515    0.8179    0.0001 H       1  LIG1        0.0662
      8 N           4.2839    4.0300    0.0000 N.1     1  LIG1       -0.1907
      9 C           3.1998    3.6567    0.0000 C.1     1  LIG1        0.1030
     10 C           1.5879    6.2051    0.0007 C.ar    1  LIG1        0.0362
     11 C           1.2379    7.5692    0.0022 C.ar    1  LIG1       -0.0291
     12 C           0.5416    5.2600   -0.0001 C.ar    1  LIG1        0.0426
     13 C          -0.0943    7.9766    0.0023 C.ar    1  LIG1        0.0265
     14 H           2.0295    8.3152    0.0030 H       1  LIG1        0.0643
     15 C          -0.7885    5.6662    0.0000 C.ar    1  LIG1       -0.0071
     16 C          -1.1159    7.0261    0.0011 C.ar    1  LIG1        0.1254
     17 H          -1.5772    4.9182   -0.0005 H       1  LIG1        0.0662
     18 N           2.8483    5.8866    0.0003 N.pl3   1  LIG1       -0.3574
     19 H           2.9712    5.0134   -0.4712 H       1  LIG1        0.1423
     20 H           3.3713    6.5965   -0.4712 H       1  LIG1        0.1423
     21 O          -2.3611    7.3999    0.0014 O.3     1  LIG1       -0.5061
     22 H          -2.9281    6.6253    0.0015 H       1  LIG1        0.2922
     23 C           0.6556   10.1996    0.0051 C.ar    1  LIG1        0.0331
     24 C           0.2923   11.5603    0.0080 C.ar    1  LIG1       -0.0378
     25 C          -0.3815    9.2445    0.0036 C.ar    1  LIG1        0.0013
     26 C          -1.0437   11.9548    0.0088 C.ar    1  LIG1       -0.0135
     27 H           1.0767   12.3139    0.0094 H       1  LIG1        0.0636
     28 C          -1.7154    9.6377    0.0044 C.ar    1  LIG1       -0.0493
     29 C          -2.0561   10.9944    0.0069 C.ar    1  LIG1       -0.0421
     30 H          -2.4969    8.8821    0.0033 H       1  LIG1        0.0627
     31 C           1.9190    9.8934    0.0042 C.1     1  LIG1       -0.0690
     32 C           3.0864    9.6104    0.0033 C.1     1  LIG1       -0.1139
     33 H           4.1262    9.3583    0.0026 H       1  LIG1        0.1232
     34 C          -3.3050   11.3561    0.0078 C.3     1  LIG1       -0.0391
     35 H          -3.8903   10.6161    0.5125 H       1  LIG1        0.0278
     36 H          -3.6483   11.4555   -1.0008 H       1  LIG1        0.0278
     37 H          -3.4042   12.2944    0.5124 H       1  LIG1        0.0278
     38 C          -0.3155   14.1849    0.0136 C.ar    1  LIG1       -0.0421
     39 C          -0.6919   15.5420    0.0179 C.ar    1  LIG1       -0.0501
     40 C          -1.3432   13.2197    0.0114 C.ar    1  LIG1       -0.0144
     41 C          -2.0317   15.9235    0.0194 C.ar    1  LIG1       -0.0087
     42 H           0.0852   16.3031    0.0198 H       1  LIG1        0.0627
     43 C          -2.6809   13.6000    0.0129 C.ar    1  LIG1       -0.0494
     44 C          -3.0346   14.9533    0.0168 C.ar    1  LIG1       -0.0300
     45 H          -3.4550   12.8369    0.0112 H       1  LIG1        0.0627
     46 C           0.9512   13.8909    0.0121 C.3     1  LIG1       -0.0391
     47 H           1.4967   14.6611    0.5161 H       1  LIG1        0.0278
     48 H           1.2975   13.8105   -0.9972 H       1  LIG1        0.0278
     49 H           1.1015   12.9590    0.5160 H       1  LIG1        0.0278
     50 N          -5.3912   15.6111    0.0197 N.3     2  LIG2        0.0000
     51 C          -4.2868   15.3028    0.0183 C.3     1  LIG1        0.0304
     52 C          -3.6925   17.5848    0.0256 C.ar    1  LIG1        0.2209
     53 C          -2.3434   17.1855    0.0233 C.ar    1  LIG1        0.0450
     54 C          -1.3560   18.1725    0.0256 C.ar    1  LIG1       -0.0294
     55 C          -1.7457   19.5129    0.0299 C.ar    1  LIG1        0.0799
     56 C          -3.1204   19.8125    0.0317 C.ar    1  LIG1        0.1083
     57 N          -4.0862   18.8731    0.0297 N.ar    1  LIG1       -0.2097
     58 H          -0.2914   17.8988    0.0229 H       1  LIG1        0.0639
     59 O          -4.6476   16.7029    0.0237 O.3     1  LIG1       -0.4920
     60 H          -4.2691   15.8206    0.0232 H       1  LIG1        0.2937
     61 N          -0.0878   21.3121    0.0339 N.1     1  LIG1       -0.1908
     62 C          -0.8648   20.4689    0.0320 C.1     1  LIG1        0.1014
     63 C          -3.5328   21.0454    0.0358 C.ar    1  LIG1        0.0674
     64 C          -2.8316   22.2099    0.0382 C.ar    1  LIG1       -0.0265
     65 C          -3.7817   23.2813    0.0437 C.ar    1  LIG1        0.0101
     66 C          -5.0218   22.7243    0.0426 C.ar    1  LIG1        0.0551
     67 N          -4.8740   21.3556    0.0382 N.ar    1  LIG1       -0.3524
     68 H          -5.6177   20.6961    0.0365 H       1  LIG1        0.1660
     69 H          -1.5367   22.3257    0.0374 H       1  LIG1        0.0645
     70 O          -3.5121   24.5531    0.0483 O.3     3  HOH3       -0.2528
     71 H          -4.3309   25.0542    0.0495 H       0  HOH0        0.2528
     72 C          -6.3078   24.6863    0.0699 C.ar    1  LIG1       -0.0406
     73 C          -7.6025   25.2405    0.0741 C.ar    1  LIG1       -0.0463
     74 C          -6.1965   23.2810    0.0460 C.ar    1  LIG1        0.0031
     75 C          -8.7376   24.4331    0.0548 C.ar    1  LIG1        0.0361
     76 H          -7.7112   26.3226    0.0926 H       1  LIG1        0.0628
     77 C          -7.3293   22.4745    0.0267 C.ar    1  LIG1       -0.0343
     78 C          -8.6069   23.0440    0.0308 C.ar    1  LIG1        0.0631
     79 H          -7.2173   21.3934    0.0085 H       1  LIG1        0.0637
     80 C          -5.2868   25.4912    0.0884 C.3     1  LIG1       -0.0391
     81 H          -5.5532   26.3937    0.5978 H       1  LIG1        0.0278
     82 H          -4.9954   25.7210   -0.9153 H       1  LIG1        0.0278
     83 H          -4.4715   25.0214    0.5978 H       1  LIG1        0.0278
     84 N         -10.5930   21.6157   -0.0029 N.1     1  LIG1       -0.1908
     85 C          -9.6622   22.2851    0.0129 C.1     1  LIG1        0.0999
     86 C          -9.9177   24.9784    0.0593 C.ar    1  LIG1        0.1513
     87 C         -10.4046   26.2691    0.0626 C.ar    1  LIG1        0.0703
     88 C         -11.8491   26.1675    0.0670 C.ar    1  LIG1       -0.0078
     89 C         -12.1492   24.8208    0.0659 C.ar    1  LIG1        0.0938
     90 O         -10.9748   24.0673    0.0610 O.2     1  LIG1       -0.4616
     91 H         -13.2410   24.1151    0.0683 H       1  LIG1        0.1030
     92 C          -9.7235   27.3764    0.0622 C.1     1  LIG1       -0.0659
     93 C          -9.0942   28.3996    0.0618 C.1     1  LIG1       -0.1138
     94 H          -8.5337   29.3110    0.0615 H       1  LIG1        0.1232
     95 H         -12.6790   27.1681    0.0710 H       1  LIG1        0.0661
@<TRIPOS>BOND
     1    36    34    1
     2    48    46    1
     3    82    80    1
     4    20    18    1
     5    19    18    1
     6    84    85    3
     7    17    15    1
     8     5     4   ar
     9     5     1   ar
    10     4    12    1
    11     4     3   ar
    12    12    15   ar
    13    12    10   ar
    14     1     6    1
    15     1     2   ar
    16     9     8    3
    17     9     3    1
    18     3     2   ar
    19     2     7    1
    20    15    16   ar
    21    18    10    1
    22    10    11   ar
    23    16    21    1
    24    16    13   ar
    25    21    22    1
    26    11    13   ar
    27    11    14    1
    28    13    25    1
    29    33    32    1
    30    32    31    3
    31    30    28    1
    32    25    28   ar
    33    25    23   ar
    34    31    23    1
    35    28    29   ar
    36    23    24   ar
    37    29    34    1
    38    29    26   ar
    39    34    37    1
    40    34    35    1
    41    24    26   ar
    42    24    27    1
    43    79    77    1
    44    26    40    1
    45    45    43    1
    46    40    43   ar
    47    40    38   ar
    48    46    38    1
    49    46    49    1
    50    46    47    1
    51    43    44   ar
    52    85    78    1
    53    38    39   ar
    54    44    51    1
    55    44    41   ar
    56    39    41   ar
    57    39    42    1
    58    41    53    1
    59    58    54    1
    60    60    59    1
    61    53    52   ar
    62    53    54   ar
    63    59    52    1
    64    52    57   ar
    65    54    55   ar
    66    77    78   ar
    67    77    74   ar
    68    57    56   ar
    69    55    56   ar
    70    55    62    1
    71    78    75   ar
    72    56    63    1
    73    62    61    3
    74    63    64   ar
    75    63    67   ar
    76    68    67    1
    77    69    64    1
    78    64    65   ar
    79    67    66   ar
    80    66    65   ar
    81    66    74    1
    82    74    72   ar
    83    70    71    1
    84    75    86    1
    85    75    73   ar
    86    86    90   ar
    87    86    87   ar
    88    90    89   ar
    89    94    93    1
    90    93    92    3
    91    92    87    1
    92    87    88   ar
    93    89    88   ar
    94    89    91    1
    95    88    95    1
    96    72    73   ar
    97    72    80    1
    98    73    76    1
    99    80    83    1
   100    80    81    1
