@<TRIPOS>MOLECULE
mol_data/noopt/geoms/mol2/12ad13ei-4da-13hh.out
 46 49 0 0 0
SMALL
GASTEIGER

@<TRIPOS>ATOM
      1 C           0.1763    1.8460    0.0000 C.ar    1  LIG1        0.0939
      2 C           1.5558    1.8460    0.0000 C.ar    1  LIG1       -0.0058
      3 C           1.9706    3.2334    0.0000 C.ar    1  LIG1        0.0988
      4 C           0.8165    3.9895   -0.0001 C.ar    1  LIG1        0.1693
      5 O          -0.3030    3.1567   -0.0002 O.2     1  LIG1       -0.4601
      6 H          -0.7504    0.9343    0.0000 H       1  LIG1        0.1030
      7 H           2.3515    0.8179    0.0001 H       1  LIG1        0.0662
      8 N           4.2839    4.0300    0.0000 N.1     1  LIG1       -0.1907
      9 C           3.1998    3.6567    0.0000 C.1     1  LIG1        0.1030
     10 C           0.5416    5.2601   -0.0001 C.ar    1  LIG1        0.0996
     11 C           1.3662    6.3409   -0.0005 C.ar    1  LIG1        0.0565
     12 C           0.5391    7.5098    0.0008 C.ar    1  LIG1       -0.0091
     13 C          -0.7546    7.0920    0.0002 C.ar    1  LIG1        0.0524
     14 N          -0.7576    5.7154    0.0001 N.ar    1  LIG1       -0.3505
     15 H          -1.5690    5.1412   -0.0005 H       1  LIG1        0.1660
     16 C           2.6659    6.3141   -0.0004 C.1     1  LIG1       -0.0672
     17 C           3.8668    6.2894   -0.0003 C.1     1  LIG1       -0.1138
     18 H           4.9366    6.2674   -0.0002 H       1  LIG1        0.1232
     19 C           0.9464    8.7447    0.0020 C.3     1  LIG1       -0.0365
     20 H           0.2284    9.3567    0.5067 H       1  LIG1        0.0279
     21 H           1.0584    9.0843   -1.0066 H       1  LIG1        0.0279
     22 H           1.8877    8.8092    0.5066 H       1  LIG1        0.0279
     23 C          -1.8180    9.1831    0.0231 C.ar    1  LIG1        0.0615
     24 C          -3.0442    9.8757    0.0243 C.ar    1  LIG1       -0.0345
     25 C          -1.8613    7.7740    0.0007 C.ar    1  LIG1        0.0160
     26 C          -4.2608    9.1975    0.0035 C.ar    1  LIG1        0.0014
     27 H          -3.0338   10.9633    0.0416 H       1  LIG1        0.0637
     28 C          -3.0755    7.0964   -0.0200 C.ar    1  LIG1       -0.0508
     29 C          -4.2831    7.8024   -0.0189 C.ar    1  LIG1       -0.0519
     30 H          -3.0825    6.0096   -0.0370 H       1  LIG1        0.0625
     31 N           0.2574   10.4781    0.0603 N.1     1  LIG1       -0.1908
     32 C          -0.7153    9.8712    0.0429 C.1     1  LIG1        0.0998
     33 H          -5.4151    7.1636   -0.0382 H       1  LIG1        0.0624
     34 C          -5.3742    9.8687    0.0051 C.ar    1  LIG1        0.0693
     35 C          -5.5953   11.2100    0.0059 C.ar    1  LIG1        0.0711
     36 C          -7.0133   11.4096    0.0088 C.ar    1  LIG1        0.0637
     37 C          -7.5963   10.1816    0.0080 C.ar    1  LIG1        0.0249
     38 N          -6.5964    9.2353    0.0062 N.ar    1  LIG1       -0.3575
     39 H          -6.7350    8.2510    0.0052 H       1  LIG1        0.1654
     40 H          -8.8517    9.8438    0.0097 H       1  LIG1        0.0826
     41 N          -4.6845   12.1377    0.0056 N.pl3   1  LIG1       -0.3549
     42 H          -3.8685   11.8034   -0.4659 H       1  LIG1        0.1424
     43 H          -5.0337   12.9474   -0.4659 H       1  LIG1        0.1424
     44 N          -7.6326   12.5527    0.0114 N.pl3   1  LIG1       -0.3554
     45 H          -7.0739   13.2355   -0.4594 H       1  LIG1        0.1424
     46 H          -8.5097   12.4577   -0.4594 H       1  LIG1        0.1424
@<TRIPOS>BOND
     1    21    19    1
     2    43    41    1
     3    42    41    1
     4    46    44    1
     5    45    44    1
     6    33    29    1
     7    30    28    1
     8    28    29   ar
     9    28    25   ar
    10    29    26   ar
    11    15    14    1
    12    11    16    1
    13    11    10   ar
    14    11    12   ar
    15    16    17    3
    16    17    18    1
    17     5     4   ar
    18     5     1   ar
    19    10     4    1
    20    10    14   ar
    21     4     3   ar
    22     1     2   ar
    23     1     6    1
    24     8     9    3
    25     2     3   ar
    26     2     7    1
    27     3     9    1
    28    14    13   ar
    29    13    25    1
    30    13    12   ar
    31    25    23   ar
    32    12    19    1
    33    19    22    1
    34    19    20    1
    35    26    34    1
    36    26    24   ar
    37    34    35   ar
    38    34    38   ar
    39    39    38    1
    40    41    35    1
    41    35    36   ar
    42    38    37   ar
    43    37    36   ar
    44    37    40    1
    45    36    44    1
    46    23    24   ar
    47    23    32    1
    48    24    27    1
    49    32    31    3
