@<TRIPOS>MOLECULE
mol_data/noopt/geoms/mol2/12ad6dh4ei-13id-6ff-13dd12el12df-.out
 92 100 0 0 0
SMALL
GASTEIGER

@<TRIPOS>ATOM
      1 C           0.1763    1.8460    0.0000 C.ar    1  LIG1        0.0939
      2 C           1.5558    1.8460    0.0000 C.ar    1  LIG1       -0.0058
      3 C           1.9706    3.2334    0.0000 C.ar    1  LIG1        0.0974
      4 C           0.8165    3.9895   -0.0001 C.ar    1  LIG1        0.1549
      5 O          -0.3030    3.1567   -0.0002 O.2     1  LIG1       -0.4615
      6 H          -0.7504    0.9343    0.0000 H       1  LIG1        0.1030
      7 H           2.3515    0.8179    0.0001 H       1  LIG1        0.0662
      8 N           4.2839    4.0300    0.0000 N.1     1  LIG1       -0.1907
      9 C           3.1998    3.6567    0.0000 C.1     1  LIG1        0.1030
     10 C          -0.7953    5.6985    0.0001 C.ar    1  LIG1        0.1515
     11 C           0.5416    5.2601   -0.0001 C.ar    1  LIG1        0.0561
     12 C           1.5573    6.2179    0.0001 C.ar    1  LIG1       -0.0253
     13 C           1.2067    7.5691    0.0002 C.ar    1  LIG1        0.0545
     14 C          -0.1587    7.9086    0.0001 C.ar    1  LIG1        0.0935
     15 N          -1.1514    6.9977    0.0002 N.ar    1  LIG1       -0.2338
     16 H           2.6135    5.9134   -0.0011 H       1  LIG1        0.0645
     17 N          -2.6404    4.0918   -0.0000 N.1     1  LIG1       -0.1893
     18 C          -1.7757    4.8447    0.0000 C.1     1  LIG1        0.1198
     19 N           2.1151    8.4991    0.0002 N.pl3   1  LIG1       -0.3369
     20 H           2.9321    8.1670   -0.4713 H       1  LIG1        0.1465
     21 H           1.7640    9.3080   -0.4713 H       1  LIG1        0.0374
     22 C           0.4315   10.1791    0.0225 C.ar    1  LIG1       -0.0320
     23 C          -0.0272   11.5106    0.0233 C.ar    1  LIG1       -0.0482
     24 C          -0.5350    9.1529    0.0003 C.ar    1  LIG1        0.0060
     25 C          -1.3877   11.8094    0.0023 C.ar    1  LIG1        0.0018
     26 H           0.7016   12.3178    0.0405 H       1  LIG1        0.0627
     27 C          -1.8933    9.4507   -0.0206 C.ar    1  LIG1       -0.0487
     28 C          -2.3292   10.7798   -0.0199 C.ar    1  LIG1       -0.0407
     29 H          -2.6191    8.6416   -0.0374 H       1  LIG1        0.0627
     30 C           1.7133    9.9631    0.0424 C.3     1  LIG1        0.0134
     31 C           2.8977    9.7635    0.0608 C.3     1  LIG1        0.0469
     32 H           3.9527    9.5858    0.0772 H       1  LIG1        0.0522
     33 C          -3.6005   11.0521   -0.0394 C.3     1  LIG1       -0.0391
     34 H          -4.1397   10.2742    0.4597 H       1  LIG1        0.0278
     35 H          -3.9345   11.1236   -1.0534 H       1  LIG1        0.0278
     36 H          -3.7736   11.9827    0.4596 H       1  LIG1        0.0278
     37 C          -1.7761   13.0501    0.0036 C.ar    1  LIG1        0.0514
     38 C          -1.0524   14.2008    0.0041 C.ar    1  LIG1       -0.0072
     39 C          -1.9816   15.2904    0.0067 C.ar    1  LIG1        0.0806
     40 C          -3.2323   14.7575    0.0059 C.ar    1  LIG1        0.0700
     41 N          -3.1111   13.3862    0.0045 N.ar    1  LIG1       -0.3528
     42 H          -3.8674   12.7412    0.0036 H       1  LIG1        0.1660
     43 C           0.2447   14.2915    0.0039 C.3     1  LIG1       -0.0365
     44 H           0.5397   15.1878    0.5083 H       1  LIG1        0.0279
     45 H           0.6004   14.3164   -1.0050 H       1  LIG1        0.0279
     46 H           0.6615   13.4448    0.5082 H       1  LIG1        0.0279
     47 N          -1.4279   17.6735    0.0109 N.1     1  LIG1       -0.1908
     48 C          -1.6874   16.5566    0.0090 C.1     1  LIG1        0.1016
     49 C          -5.5736   14.5673   -0.0128 C.ar    1  LIG1        0.2225
     50 C          -4.3960   15.3369    0.0074 C.ar    1  LIG1        0.0644
     51 C          -4.5092   16.7282    0.0292 C.ar    1  LIG1       -0.0037
     52 C          -5.7831   17.2989    0.0298 C.ar    1  LIG1        0.1451
     53 C          -6.9013   16.4453    0.0085 C.ar    1  LIG1        0.1334
     54 N          -6.8105   15.1012   -0.0125 N.ar    1  LIG1       -0.2072
     55 H          -3.6114   17.3624    0.0444 H       1  LIG1        0.0663
     56 O          -5.5197   13.2686   -0.0334 O.3     1  LIG1       -0.4919
     57 H          -4.6022   12.9860   -0.0385 H       1  LIG1        0.2937
     58 O          -5.9416   18.5891    0.0495 O.3     1  LIG1       -0.5045
     59 H          -6.8788   18.7968    0.0544 H       1  LIG1        0.2922
     60 C          -8.1080   16.9291    0.0083 C.ar    1  LIG1        0.0880
     61 C          -8.5416   18.2174    0.0078 C.ar    1  LIG1        0.0966
     62 C          -9.9733   18.1868    0.0089 C.ar    1  LIG1        0.0980
     63 C         -10.3516   16.8811    0.0082 C.ar    1  LIG1        0.1028
     64 N          -9.2127   16.1077    0.0083 N.ar    1  LIG1       -0.3484
     65 H          -9.1914   15.1139    0.0078 H       1  LIG1        0.1661
     66 N          -7.1301   20.2158    0.0080 N.1     1  LIG1       -0.1908
     67 C          -7.7916   19.2793    0.0079 C.1     1  LIG1        0.1027
     68 N         -11.4690   20.1230    0.0107 N.1     1  LIG1       -0.1908
     69 C         -10.7680   19.2156    0.0098 C.1     1  LIG1        0.1027
     70 C         -11.5364   16.3461    0.0086 C.ar    1  LIG1        0.1722
     71 C         -12.8307   16.8230    0.0237 C.ar    1  LIG1        0.1142
     72 C         -13.6997   15.6647    0.0135 C.ar    1  LIG1        0.1849
     73 C         -12.8784   14.5563   -0.0073 C.ar    1  LIG1        0.2146
     74 O         -11.5399   14.9506   -0.0108 O.2     1  LIG1       -0.4451
     75 C         -13.2217   18.0627    0.0435 C.1     1  LIG1       -0.0621
     76 C         -13.5830   19.2081    0.0618 C.1     1  LIG1       -0.1137
     77 H         -13.9048   20.2284    0.0781 H       1  LIG1        0.1232
     78 O         -14.9994   15.6926    0.0224 O.3     1  LIG1       -0.4901
     79 C         -15.4477   17.0505    0.0256 C.3     1  LIG1        0.0790
     80 H         -16.5175   17.0729    0.0328 H       1  LIG1        0.0660
     81 H         -15.0747   17.5472    0.8969 H       1  LIG1        0.0660
     82 H         -15.0865   17.5474   -0.8504 H       1  LIG1        0.0660
     83 C         -13.0599   13.2692   -0.0239 C.ar    1  LIG1        0.1944
     84 C         -14.1551   12.4304   -0.0217 C.ar    1  LIG1        0.1419
     85 C         -13.6410   11.0769   -0.0485 C.ar    1  LIG1        0.1729
     86 C         -12.2651   11.1785   -0.0655 C.ar    1  LIG1        0.1354
     87 O         -11.8826   12.5202   -0.0509 O.2     1  LIG1       -0.4546
     88 H         -11.2745   10.3370   -0.0912 H       1  LIG1        0.1068
     89 N         -16.5201   13.0557    0.0194 N.1     1  LIG1       -0.1906
     90 C         -15.4117   12.7626    0.0001 C.1     1  LIG1        0.1068
     91 O         -14.3595    9.9935   -0.0549 O.3     1  LIG1       -0.5028
     92 H         -13.7825    9.2263   -0.0565 H       1  LIG1        0.2923
@<TRIPOS>BOND
     1    35    33    1
     2    45    43    1
     3    82    79    1
     4    21    30    1
     5    20    19    1
     6    88    86    1
     7    86    87   ar
     8    86    85   ar
     9    92    91    1
    10    91    85    1
    11    87    83   ar
    12    85    84   ar
    13    33    28    1
    14    33    36    1
    15    33    34    1
    16    57    56    1
    17    29    27    1
    18    56    49    1
    19    83    84   ar
    20    83    73    1
    21    84    90    1
    22    27    28   ar
    23    27    24   ar
    24    28    25   ar
    25    49    54   ar
    26    49    50   ar
    27    54    53   ar
    28    74    73   ar
    29    74    70   ar
    30    73    72   ar
    31    16    12    1
    32     5     4   ar
    33     5     1   ar
    34    11     4    1
    35    11    10   ar
    36    11    12   ar
    37     4     3   ar
    38    17    18    3
    39     1     2   ar
    40     1     6    1
    41     2     3   ar
    42     2     7    1
    43     3     9    1
    44     9     8    3
    45    18    10    1
    46    10    15   ar
    47    12    13   ar
    48    90    89    3
    49    14    15   ar
    50    14    13   ar
    51    14    24    1
    52    19    13    1
    53    19    31    1
    54    24    22   ar
    55    25    37    1
    56    25    23   ar
    57    42    41    1
    58    37    38   ar
    59    37    41   ar
    60    43    38    1
    61    43    46    1
    62    43    44    1
    63    38    39   ar
    64    41    40   ar
    65    40    39   ar
    66    40    50    1
    67    39    48    1
    68    50    51   ar
    69    61    67    1
    70    61    60   ar
    71    61    62   ar
    72    65    64    1
    73    67    66    3
    74    63    64   ar
    75    63    70    1
    76    63    62   ar
    77    60    64   ar
    78    60    53    1
    79    53    52   ar
    80    70    71   ar
    81    62    69    1
    82    48    47    3
    83    69    68    3
    84    72    78    1
    85    72    71   ar
    86    78    79    1
    87    22    23   ar
    88    22    30    1
    89    23    26    1
    90    71    75    1
    91    79    80    1
    92    79    81    1
    93    51    52   ar
    94    51    55    1
    95    52    58    1
    96    30    31    1
    97    75    76    3
    98    58    59    1
    99    31    32    1
   100    76    77    1
