@<TRIPOS>MOLECULE
mol_data/noopt/geoms/mol2/12ad13fi13ih-6ei.out
 49 52 0 0 0
SMALL
GASTEIGER

@<TRIPOS>ATOM
      1 C           0.1763    1.8460    0.0000 C.ar    1  LIG1        0.0939
      2 C           1.5558    1.8460    0.0000 C.ar    1  LIG1       -0.0058
      3 C           1.9706    3.2334    0.0000 C.ar    1  LIG1        0.0989
      4 C           0.8165    3.9895   -0.0001 C.ar    1  LIG1        0.1717
      5 O          -0.3030    3.1567   -0.0002 O.2     1  LIG1       -0.4600
      6 H          -0.7504    0.9343    0.0000 H       1  LIG1        0.1030
      7 H           2.3515    0.8179    0.0001 H       1  LIG1        0.0662
      8 N           4.2839    4.0300    0.0000 N.1     1  LIG1       -0.1907
      9 C           3.1998    3.6567    0.0000 C.1     1  LIG1        0.1030
     10 C           0.5416    5.2601   -0.0001 C.ar    1  LIG1        0.1261
     11 C           1.3660    6.3408    0.0161 C.ar    1  LIG1        0.1486
     12 C           0.5390    7.5098    0.0084 C.ar    1  LIG1        0.0184
     13 C          -0.7545    7.0921   -0.0139 C.ar    1  LIG1        0.0702
     14 N          -0.7574    5.7154   -0.0188 N.ar    1  LIG1       -0.3474
     15 H          -1.5687    5.1413   -0.0340 H       1  LIG1        0.1662
     16 O           2.6657    6.3141    0.0365 O.3     1  LIG1       -0.5043
     17 H           3.0046    7.2122    0.0416 H       1  LIG1        0.2922
     18 C           0.9463    8.7447    0.0202 C.3     1  LIG1       -0.0342
     19 H           0.2269    9.3527    0.5278 H       1  LIG1        0.0279
     20 H           1.0608    9.0920   -0.9854 H       1  LIG1        0.0279
     21 H           1.8863    8.8054    0.5277 H       1  LIG1        0.0279
     22 C          -1.8611    7.7741   -0.0284 C.ar    1  LIG1        0.0684
     23 C          -2.0693    9.1175   -0.0220 C.ar    1  LIG1       -0.0025
     24 C          -3.4851    9.3309   -0.0444 C.ar    1  LIG1        0.0539
     25 C          -4.0798    8.1086   -0.0653 C.ar    1  LIG1        0.0708
     26 N          -3.0892    7.1527   -0.0551 N.ar    1  LIG1       -0.3513
     27 H          -3.2372    6.1698   -0.0660 H       1  LIG1        0.1660
     28 C          -1.1496   10.0364    0.0017 C.3     1  LIG1       -0.0359
     29 H          -1.5213   10.8999    0.5126 H       1  LIG1        0.0279
     30 H          -0.8843   10.3015   -1.0004 H       1  LIG1        0.0279
     31 H          -0.2863    9.6638    0.5125 H       1  LIG1        0.0279
     32 N          -4.0933   10.4799   -0.0452 N.pl3   1  LIG1       -0.3561
     33 H          -3.5274   11.1562   -0.5168 H       1  LIG1        0.1424
     34 H          -4.9707   10.3923   -0.5169 H       1  LIG1        0.1424
     35 C          -5.7225    6.4298   -0.1031 C.ar    1  LIG1        0.1223
     36 C          -5.3382    7.7831   -0.0899 C.ar    1  LIG1        0.0342
     37 C          -6.3358    8.7596   -0.1033 C.ar    1  LIG1       -0.0456
     38 C          -7.6716    8.3552   -0.1295 C.ar    1  LIG1       -0.0316
     39 C          -7.9560    6.9774   -0.1413 C.ar    1  LIG1        0.0319
     40 N          -7.0061    6.0219   -0.1284 N.ar    1  LIG1       -0.2458
     41 H          -6.0739    9.8271   -0.0946 H       1  LIG1        0.0628
     42 H          -9.1840    6.5515   -0.1656 H       1  LIG1        0.0832
     43 C          -4.8302    5.4843   -0.0913 C.1     1  LIG1       -0.0491
     44 C          -4.0058    4.6108   -0.0804 C.1     1  LIG1       -0.1124
     45 H          -3.2715    3.8326   -0.0707 H       1  LIG1        0.1232
     46 C          -8.6373    9.2259   -0.1431 C.3     1  LIG1       -0.0383
     47 H          -9.4911    8.8193    0.3576 H       1  LIG1        0.0278
     48 H          -8.8945    9.4576   -1.1556 H       1  LIG1        0.0278
     49 H          -8.3211   10.1171    0.3575 H       1  LIG1        0.0278
@<TRIPOS>BOND
     1    48    46    1
     2    30    28    1
     3    20    18    1
     4    34    32    1
     5    33    32    1
     6    42    39    1
     7    46    38    1
     8    46    49    1
     9    46    47    1
    10    39    38   ar
    11    39    40   ar
    12    38    37   ar
    13    40    35   ar
    14    37    41    1
    15    37    36   ar
    16    35    43    1
    17    35    36   ar
    18    43    44    3
    19    36    25    1
    20    44    45    1
    21    27    26    1
    22    25    26   ar
    23    25    24   ar
    24    26    22   ar
    25    32    24    1
    26    24    23   ar
    27    15    14    1
    28    22    23   ar
    29    22    13    1
    30    23    28    1
    31    14    13   ar
    32    14    10   ar
    33    13    12   ar
    34     5     4   ar
    35     5     1   ar
    36    10     4    1
    37    10    11   ar
    38     4     3   ar
    39     1     2   ar
    40     1     6    1
    41     2     3   ar
    42     2     7    1
    43     3     9    1
    44     9     8    3
    45    28    31    1
    46    28    29    1
    47    12    11   ar
    48    12    18    1
    49    11    16    1
    50    18    21    1
    51    18    19    1
    52    16    17    1
