@<TRIPOS>MOLECULE
mol_data/noopt/geoms/mol2/12ad4if-4if-12ee-.out
 49 52 0 0 0
SMALL
GASTEIGER

@<TRIPOS>ATOM
      1 C           0.1763    1.8460    0.0000 C.ar    1  LIG1        0.0939
      2 C           1.5558    1.8460    0.0000 C.ar    1  LIG1       -0.0058
      3 C           1.9706    3.2334    0.0000 C.ar    1  LIG1        0.0973
      4 C           0.8165    3.9895   -0.0001 C.ar    1  LIG1        0.1524
      5 O          -0.3030    3.1567   -0.0002 O.2     1  LIG1       -0.4616
      6 H          -0.7504    0.9343    0.0000 H       1  LIG1        0.1030
      7 H           2.3515    0.8179    0.0001 H       1  LIG1        0.0662
      8 N           4.2839    4.0300    0.0000 N.1     1  LIG1       -0.1907
      9 C           3.1998    3.6567    0.0000 C.1     1  LIG1        0.1030
     10 C           1.5877    6.2051    0.0220 C.ar    1  LIG1       -0.0390
     11 C           1.2377    7.5692    0.0226 C.ar    1  LIG1       -0.0469
     12 C           0.5416    5.2600   -0.0001 C.ar    1  LIG1        0.0249
     13 C          -0.0943    7.9766    0.0015 C.ar    1  LIG1        0.0242
     14 H           2.0291    8.3151    0.0396 H       1  LIG1        0.0628
     15 C          -0.7883    5.6663   -0.0212 C.ar    1  LIG1       -0.0086
     16 C          -1.1157    7.0262   -0.0206 C.ar    1  LIG1        0.1252
     17 H          -1.5769    4.9183   -0.0379 H       1  LIG1        0.0661
     18 C           2.8482    5.8865    0.0420 C.3     1  LIG1       -0.0390
     19 H           3.4005    6.6480    0.5518 H       1  LIG1        0.0278
     20 H           3.2090    5.7953   -0.9612 H       1  LIG1        0.0278
     21 H           2.9723    4.9539    0.5518 H       1  LIG1        0.0278
     22 O          -2.3607    7.4000   -0.0402 O.3     1  LIG1       -0.5061
     23 H          -2.9278    6.6254   -0.0450 H       1  LIG1        0.2922
     24 C           0.6553   10.1996    0.0252 C.ar    1  LIG1       -0.0417
     25 C           0.2920   11.5602    0.0270 C.ar    1  LIG1       -0.0440
     26 C          -0.3815    9.2445    0.0026 C.ar    1  LIG1       -0.0080
     27 C          -1.0438   11.9547    0.0065 C.ar    1  LIG1        0.0601
     28 H           1.0763   12.3138    0.0445 H       1  LIG1        0.0629
     29 C          -1.7153    9.6378   -0.0179 C.ar    1  LIG1       -0.0114
     30 C          -2.0560   10.9944   -0.0162 C.ar    1  LIG1        0.1281
     31 H          -2.4966    8.8822   -0.0351 H       1  LIG1        0.0660
     32 C           1.9188    9.8932    0.0448 C.3     1  LIG1       -0.0391
     33 H           2.4639   10.6600    0.5545 H       1  LIG1        0.0278
     34 H           2.2802    9.8057   -0.9586 H       1  LIG1        0.0278
     35 H           2.0522    8.9619    0.5544 H       1  LIG1        0.0278
     36 O          -3.3045   11.3561   -0.0353 O.3     1  LIG1       -0.5060
     37 H          -3.8641   10.5760   -0.0400 H       1  LIG1        0.2922
     38 C          -1.3434   13.2197    0.0086 C.ar    1  LIG1        0.1548
     39 C          -0.6285   14.3996    0.0103 C.ar    1  LIG1        0.0858
     40 C          -1.6002   15.4733    0.0124 C.ar    1  LIG1        0.0783
     41 C          -2.8449   14.8780    0.0118 C.ar    1  LIG1        0.1092
     42 O          -2.7127   13.4890    0.0094 O.2     1  LIG1       -0.4603
     43 H          -4.0740   15.3013    0.0129 H       1  LIG1        0.1042
     44 C           0.6631   14.5473    0.0101 C.1     1  LIG1       -0.0646
     45 C           1.8565   14.6839    0.0100 C.1     1  LIG1       -0.1138
     46 H           2.9195   14.8055    0.0098 H       1  LIG1        0.1232
     47 C          -1.3252   16.7439    0.0143 C.1     1  LIG1       -0.0653
     48 C          -1.0712   17.9179    0.0161 C.1     1  LIG1       -0.1138
     49 H          -0.8449   18.9637    0.0177 H       1  LIG1        0.1232
@<TRIPOS>BOND
     1    20    18    1
     2    34    32    1
     3    23    22    1
     4    22    16    1
     5    37    36    1
     6    17    15    1
     7    36    30    1
     8    31    29    1
     9    15    16   ar
    10    15    12   ar
    11    16    13   ar
    12    29    30   ar
    13    29    26   ar
    14    30    27   ar
    15     5     4   ar
    16     5     1   ar
    17    12     4    1
    18    12    10   ar
    19     4     3   ar
    20     8     9    3
    21     6     1    1
    22     9     3    1
    23     1     2   ar
    24     3     2   ar
    25     2     7    1
    26    13    26    1
    27    13    11   ar
    28    26    24   ar
    29    27    38    1
    30    27    25   ar
    31    38    42   ar
    32    38    39   ar
    33    42    41   ar
    34    46    45    1
    35    45    44    3
    36    44    39    1
    37    39    40   ar
    38    41    40   ar
    39    41    43    1
    40    40    47    1
    41    47    48    3
    42    48    49    1
    43    10    11   ar
    44    10    18    1
    45    11    14    1
    46    24    25   ar
    47    24    32    1
    48    25    28    1
    49    18    21    1
    50    18    19    1
    51    32    35    1
    52    32    33    1
