@<TRIPOS>MOLECULE
mol_data/noopt/geoms/mol2/12ae13ei(130)13fh(350)12de(240).out
 45 48 0 0 0
SMALL
GASTEIGER

@<TRIPOS>ATOM
      1 C           0.1763    1.8460    0.0000 C.ar    1  LIG1        0.0939
      2 C           1.5558    1.8460    0.0000 C.ar    1  LIG1       -0.0078
      3 C           1.9706    3.2334    0.0000 C.ar    1  LIG1        0.0718
      4 C           0.8165    3.9895   -0.0001 C.ar    1  LIG1        0.1673
      5 O          -0.3030    3.1567   -0.0002 O.2     1  LIG1       -0.4602
      6 H          -0.7504    0.9343    0.0000 H       1  LIG1        0.1030
      7 H           2.3515    0.8179    0.0001 H       1  LIG1        0.0661
      8 C           3.1998    3.6567    0.0000 C.1     1  LIG1       -0.0658
      9 C           4.3355    4.0478    0.0000 C.1     1  LIG1       -0.1138
     10 H           5.3472    4.3962    0.0000 H       1  LIG1        0.1232
     11 C           0.5416    5.2601   -0.0001 C.ar    1  LIG1        0.0996
     12 C          -0.3258    5.9748    0.7646 C.ar    1  LIG1        0.0565
     13 C          -0.2358    7.3422    0.3490 C.ar    1  LIG1       -0.0076
     14 C           0.6839    7.4033   -0.6502 C.ar    1  LIG1        0.0712
     15 N           1.1621    6.1307   -0.8674 N.ar    1  LIG1       -0.3493
     16 H           1.8470    5.8803   -1.5428 H       1  LIG1        0.1661
     17 C          -1.0951    5.5004    1.6991 C.1     1  LIG1       -0.0672
     18 C          -1.8058    5.0621    2.5625 C.1     1  LIG1       -0.1138
     19 H          -2.4390    4.6717    3.3317 H       1  LIG1        0.1232
     20 C          -0.9078    8.3435    0.8354 C.3     1  LIG1       -0.0365
     21 H          -1.7124    7.9747    1.4366 H       1  LIG1        0.0279
     22 H          -1.3025    8.9315    0.0332 H       1  LIG1        0.0279
     23 H          -0.2615    8.9483    1.4366 H       1  LIG1        0.0279
     24 C           1.1105    8.4170   -1.3433 C.ar    1  LIG1        0.1076
     25 C           2.3066    8.6272   -1.9540 C.ar    1  LIG1        0.1650
     26 C           2.2473    9.9141   -2.5793 C.ar    1  LIG1        0.0960
     27 C           1.0168   10.4330   -2.3247 C.ar    1  LIG1        0.1085
     28 N           0.3177    9.5199   -1.5679 N.ar    1  LIG1       -0.3462
     29 H          -0.6120    9.6379   -1.2368 H       1  LIG1        0.1662
     30 O           3.3167    7.8089   -1.9648 O.3     1  LIG1       -0.5030
     31 H           4.1354    8.3104   -1.9674 H       1  LIG1        0.2923
     32 N           3.1932   10.4842   -3.2651 N.pl3   1  LIG1       -0.3534
     33 H           3.6442    9.8027   -3.8414 H       1  LIG1        0.1425
     34 H           2.8013   11.2013   -3.8414 H       1  LIG1        0.1425
     35 C           0.4906   11.5682   -2.6775 C.ar    1  LIG1        0.1713
     36 C          -0.2984   12.0041   -3.7218 C.ar    1  LIG1        0.1142
     37 C          -0.5299   13.4170   -3.5050 C.ar    1  LIG1        0.0804
     38 C           0.1331   13.7508   -2.3420 C.ar    1  LIG1        0.1093
     39 O           0.7699   12.6276   -1.8131 O.2     1  LIG1       -0.4588
     40 H           0.2955   14.8379   -1.6478 H       1  LIG1        0.1042
     41 N          -1.1625   10.6897   -5.5957 N.1     1  LIG1       -0.1907
     42 C          -0.7575   11.3057   -4.7175 C.1     1  LIG1        0.1043
     43 C          -1.2311   14.1965   -4.2735 C.1     1  LIG1       -0.0652
     44 C          -1.8791   14.9167   -4.9837 C.1     1  LIG1       -0.1138
     45 H          -2.4562   15.5583   -5.6163 H       1  LIG1        0.1232
@<TRIPOS>BOND
     1    45    44    1
     2    41    42    3
     3    44    43    3
     4    42    36    1
     5    43    37    1
     6    34    32    1
     7    33    32    1
     8    36    37   ar
     9    36    35   ar
    10    37    38   ar
    11    32    26    1
    12    35    27    1
    13    35    39   ar
    14    26    27   ar
    15    26    25   ar
    16    38    39   ar
    17    38    40    1
    18    27    28   ar
    19    31    30    1
    20    30    25    1
    21    25    24   ar
    22    28    24   ar
    23    28    29    1
    24    16    15    1
    25    24    14    1
    26    15    14   ar
    27    15    11   ar
    28    14    13   ar
    29     5     4   ar
    30     5     1   ar
    31    11     4    1
    32    11    12   ar
    33     4     3   ar
    34     1     6    1
    35     1     2   ar
    36    10     9    1
    37     9     8    3
    38     8     3    1
    39     3     2   ar
    40     2     7    1
    41    22    20    1
    42    13    12   ar
    43    13    20    1
    44    12    17    1
    45    20    23    1
    46    20    21    1
    47    17    18    3
    48    18    19    1
