@<TRIPOS>MOLECULE
mol_data/noopt/geoms/mol2/12ae13dh6ed6lf13he6fh4fd6il.out
 100 105 0 0 0
SMALL
GASTEIGER

@<TRIPOS>ATOM
      1 C           0.1763    1.8460    0.0000 C.ar    1  LIG1        0.0939
      2 C           1.5558    1.8460    0.0000 C.ar    1  LIG1       -0.0078
      3 C           1.9706    3.2334    0.0000 C.ar    1  LIG1        0.0718
      4 C           0.8165    3.9895   -0.0001 C.ar    1  LIG1        0.1675
      5 O          -0.3030    3.1567   -0.0002 O.2     1  LIG1       -0.4602
      6 H          -0.7504    0.9343    0.0000 H       1  LIG1        0.1030
      7 H           2.3515    0.8179    0.0001 H       1  LIG1        0.0661
      8 C           3.1998    3.6567    0.0000 C.1     1  LIG1       -0.0658
      9 C           4.3355    4.0478    0.0000 C.1     1  LIG1       -0.1138
     10 H           5.3472    4.3962    0.0000 H       1  LIG1        0.1232
     11 C           0.5416    5.2601   -0.0001 C.ar    1  LIG1        0.1032
     12 C           1.3660    6.3408    0.0161 C.ar    1  LIG1        0.1012
     13 C           0.5390    7.5098    0.0084 C.ar    1  LIG1        0.0686
     14 C          -0.7545    7.0921   -0.0139 C.ar    1  LIG1        0.0719
     15 N          -0.7574    5.7154   -0.0188 N.ar    1  LIG1       -0.3491
     16 H          -1.5687    5.1413   -0.0340 H       1  LIG1        0.1661
     17 N           3.8118    6.2904    0.0545 N.1     1  LIG1       -0.1907
     18 C           2.6656    6.3141    0.0365 C.1     1  LIG1        0.1033
     19 N           0.9462    8.7444    0.0202 N.pl3   1  LIG1       -0.3553
     20 H           1.8273    8.8092   -0.4482 H       1  LIG1        0.1424
     21 H           0.2765    9.3207   -0.4483 H       1  LIG1        0.1424
     22 C          -3.1034    7.1138   -0.0362 C.ar    1  LIG1        0.1230
     23 C          -1.8611    7.7741   -0.0284 C.ar    1  LIG1        0.0352
     24 C          -1.8480    9.1701   -0.0363 C.ar    1  LIG1       -0.0304
     25 C          -3.0652    9.8534   -0.0518 C.ar    1  LIG1        0.0785
     26 C          -4.2559    9.1041   -0.0587 C.ar    1  LIG1        0.0948
     27 N          -4.2869    7.7571   -0.0511 N.ar    1  LIG1       -0.2363
     28 H          -0.8967    9.7207   -0.0316 H       1  LIG1        0.0638
     29 C          -3.1670    5.8154   -0.0293 C.1     1  LIG1       -0.0491
     30 C          -3.2259    4.6156   -0.0228 C.1     1  LIG1       -0.1124
     31 H          -3.2783    3.5469   -0.0171 H       1  LIG1        0.1232
     32 N          -3.1427   12.2987   -0.0669 N.1     1  LIG1       -0.1908
     33 C          -3.1064   11.1527   -0.0598 C.1     1  LIG1        0.1013
     34 C          -6.5989    8.9365   -0.0806 C.ar    1  LIG1        0.2246
     35 C          -5.4139    9.6948   -0.0730 C.ar    1  LIG1        0.0637
     36 C          -5.5133   11.0873   -0.0807 C.ar    1  LIG1       -0.0375
     37 C          -6.7816   11.6703   -0.0959 C.ar    1  LIG1        0.0126
     38 C          -7.9081   10.8275   -0.1028 C.ar    1  LIG1        0.1005
     39 N          -7.8305    9.4824   -0.0953 N.ar    1  LIG1       -0.2102
     40 H          -4.6094   11.7127   -0.0762 H       1  LIG1        0.0632
     41 O          -6.5578    7.6371   -0.0738 O.3     1  LIG1       -0.4792
     42 C          -7.8900    7.1174   -0.0714 C.3     1  LIG1        0.0804
     43 H          -7.8557    6.0480   -0.0659 H       1  LIG1        0.0660
     44 H          -8.4058    7.4622    0.8005 H       1  LIG1        0.0660
     45 H          -8.4055    7.4533   -0.9468 H       1  LIG1        0.0660
     46 O          -6.9273   12.9621   -0.1038 O.3     2  HOH2       -0.2528
     47 H          -7.8625   13.1791   -0.1058 H       0  HOH0        0.2528
     48 C          -9.1099   11.3230   -0.1168 C.ar    1  LIG1        0.0883
     49 C          -9.5309   12.6155   -0.1267 C.ar    1  LIG1        0.0679
     50 C         -10.9627   12.5988   -0.1396 C.ar    1  LIG1        0.0713
     51 C         -11.3537   11.2968   -0.1388 C.ar    1  LIG1        0.0695
     52 N         -10.2225   10.5123   -0.1244 N.ar    1  LIG1       -0.3503
     53 H         -10.2110    9.5184   -0.1207 H       1  LIG1        0.1660
     54 N          -8.7706   13.6700   -0.1233 N.pl3   1  LIG1       -0.3553
     55 H          -7.9127   13.4638   -0.5939 H       1  LIG1        0.1424
     56 H          -9.2372   14.4188   -0.5939 H       1  LIG1        0.1424
     57 C         -11.7474   13.6352   -0.1505 C.1     1  LIG1       -0.0657
     58 C         -12.4724   14.5929   -0.1606 C.1     1  LIG1       -0.1138
     59 H         -13.1182   15.4460   -0.1696 H       1  LIG1        0.1232
     60 C         -12.7058    9.3759   -0.1528 C.ar    1  LIG1        0.2224
     61 C         -12.5437   10.7734   -0.1479 C.ar    1  LIG1        0.0627
     62 C         -13.6852   11.5770   -0.1528 C.ar    1  LIG1       -0.0230
     63 C         -14.9390   10.9633   -0.1626 C.ar    1  LIG1        0.0711
     64 C         -14.9986    9.5576   -0.1670 C.ar    1  LIG1        0.0976
     65 N         -13.9075    8.7671   -0.1621 N.ar    1  LIG1       -0.2105
     66 H         -13.5981   12.6728   -0.1503 H       1  LIG1        0.0645
     67 O         -11.6732    8.5860   -0.1484 O.3     1  LIG1       -0.4919
     68 H         -10.8689    9.1100   -0.1473 H       1  LIG1        0.2937
     69 N         -16.0318   11.6674   -0.1676 N.pl3   1  LIG1       -0.2644
     70 H         -15.8683   12.5333   -0.6404 H       1  LIG1        0.1700
     71 H         -16.7527   11.1606   -0.6404 H       0  HOH0        0.2052
     72 C         -17.3413    9.6821   -0.1800 C.ar    1  LIG1       -0.0074
     73 C         -18.5541    8.9663   -0.1881 C.ar    1  LIG1       -0.0450
     74 C         -16.1424    8.9401   -0.1759 C.ar    1  LIG1        0.0107
     75 C         -18.5748    7.5734   -0.1927 C.ar    1  LIG1       -0.0068
     76 H         -19.4909    9.5192   -0.1912 H       1  LIG1        0.0630
     77 C         -16.1625    7.5495   -0.1805 C.ar    1  LIG1       -0.0427
     78 C         -17.3775    6.8566   -0.1890 C.ar    1  LIG1        0.0032
     79 H         -15.2246    7.0001   -0.1771 H       1  LIG1        0.0631
     80 O         -17.3861   10.9813   -0.1763 O.3     3  HOH3       -0.4105
     81 H         -18.3016   11.2704   -0.1754 H       0  HOH0        0.2052
     82 N         -17.4011    4.4102   -0.1966 N.2     1  LIG1       -0.1571
     83 C         -17.3901    5.5567   -0.1930 C.2     1  LIG1        0.0576
     84 C         -19.7480    5.5383   -0.2043 C.ar    1  LIG1        0.0496
     85 C         -19.7126    6.9448   -0.2003 C.ar    1  LIG1        0.0075
     86 C         -20.9221    7.6422   -0.2044 C.ar    1  LIG1       -0.0090
     87 C         -22.1153    6.9179   -0.2125 C.ar    1  LIG1        0.1387
     88 C         -22.0479    5.5125   -0.2162 C.ar    1  LIG1        0.0695
     89 N         -20.8900    4.8237   -0.2121 N.ar    1  LIG1       -0.2556
     90 H         -20.9341    8.7413   -0.2025 H       1  LIG1        0.0661
     91 H         -23.1314    4.7943   -0.2236 H       1  LIG1        0.0867
     92 C         -18.6482    4.8447   -0.2007 C.3     1  LIG1       -0.0044
     93 H         -17.8817    5.3941    0.3047 H       1  LIG1        0.0854
     94 H         -18.3441    4.6529   -1.2085 H       1  LIG1        0.0332
     95 H         -18.8138    3.9162    0.3047 H       1  LIG1        0.0332
     96 O         -23.2673    7.5205   -0.2167 O.3     1  LIG1       -0.4936
     97 C         -23.0653    8.9362   -0.2183 C.3     1  LIG1        0.0789
     98 H         -24.0136    9.4317   -0.2220 H       1  LIG1        0.0660
     99 H         -22.5183    9.2194    0.6566 H       1  LIG1        0.0660
    100 H         -22.5130    9.2167   -1.0907 H       1  LIG1        0.0660
@<TRIPOS>BOND
     1    94    92    1
     2   100    97    1
     3    45    42    1
     4    71    80    1
     5    70    69    1
     6    56    54    1
     7    55    54    1
     8    21    19    1
     9    20    19    1
    10    91    88    1
    11    98    97    1
    12    97    96    1
    13    97    99    1
    14    96    87    1
    15    88    87   ar
    16    88    89   ar
    17    87    86   ar
    18    89    84   ar
    19    86    90    1
    20    86    85   ar
    21    84    92    1
    22    84    85   ar
    23    92    95    1
    24    85    75    1
    25    82    83    2
    26    83    78    1
    27    83    93    1
    28    75    78   ar
    29    75    73   ar
    30    76    73    1
    31    78    77   ar
    32    73    72   ar
    33    77    79    1
    34    77    74   ar
    35    72    74   ar
    36    80    81    1
    37    74    64    1
    38    59    58    1
    39    69    63    1
    40    64    63   ar
    41    64    65   ar
    42    63    62   ar
    43    65    60   ar
    44    58    57    3
    45    62    66    1
    46    62    61   ar
    47    60    67    1
    48    60    61   ar
    49    57    50    1
    50    67    68    1
    51    61    51    1
    52    50    51   ar
    53    50    49   ar
    54    51    52   ar
    55    49    54    1
    56    49    48   ar
    57    52    53    1
    58    52    48   ar
    59    48    38    1
    60    47    46    1
    61    38    37   ar
    62    38    39   ar
    63    37    36   ar
    64    39    34   ar
    65    36    40    1
    66    36    35   ar
    67    34    41    1
    68    34    35   ar
    69    41    42    1
    70    35    26    1
    71    42    43    1
    72    42    44    1
    73    32    33    3
    74    33    25    1
    75    26    25   ar
    76    26    27   ar
    77    25    24   ar
    78    27    22   ar
    79    24    28    1
    80    24    23   ar
    81    22    29    1
    82    22    23   ar
    83    16    15    1
    84    29    30    3
    85    23    14    1
    86    30    31    1
    87    15    14   ar
    88    15    11   ar
    89    14    13   ar
    90     5     4   ar
    91     5     1   ar
    92    11     4    1
    93    11    12   ar
    94     4     3   ar
    95     6     1    1
    96     3     8    1
    97     3     2   ar
    98     8     9    3
    99     9    10    1
   100     2     1   ar
   101     2     7    1
   102    13    12   ar
   103    13    19    1
   104    12    18    1
   105    18    17    3
