@<TRIPOS>MOLECULE
mol_data/noopt/geoms/mol2/12ae12ae-12ae-12ae-.out
 38 41 0 0 0
SMALL
GASTEIGER

@<TRIPOS>ATOM
      1 C           0.1763    1.8460    0.0000 C.ar    1  LIG1        0.0939
      2 C           1.5558    1.8460    0.0000 C.ar    1  LIG1       -0.0077
      3 C           1.9706    3.2334    0.0000 C.ar    1  LIG1        0.0734
      4 C           0.8165    3.9895   -0.0001 C.ar    1  LIG1        0.1850
      5 O          -0.3030    3.1567   -0.0002 O.2     1  LIG1       -0.4586
      6 H          -0.7504    0.9343    0.0000 H       1  LIG1        0.1030
      7 H           2.3515    0.8179    0.0001 H       1  LIG1        0.0661
      8 C           3.1998    3.6567    0.0000 C.1     1  LIG1       -0.0658
      9 C           4.3355    4.0478    0.0000 C.1     1  LIG1       -0.1138
     10 H           5.3472    4.3962    0.0000 H       1  LIG1        0.1232
     11 C           0.5416    5.2601   -0.0001 C.ar    1  LIG1        0.1731
     12 C          -0.6119    6.0167   -0.0001 C.ar    1  LIG1        0.0035
     13 C          -0.1979    7.4043   -0.0001 C.ar    1  LIG1        0.0741
     14 C           1.1818    7.4036   -0.0002 C.ar    1  LIG1        0.1860
     15 O           1.6612    6.0932   -0.0003 O.2     1  LIG1       -0.4473
     16 H          -1.8411    5.5934   -0.0000 H       1  LIG1        0.0669
     17 C          -0.9936    8.4323   -0.0001 C.1     1  LIG1       -0.0657
     18 C          -1.7288    9.3823   -0.0001 C.1     1  LIG1       -0.1138
     19 H          -2.3837   10.2284   -0.0001 H       1  LIG1        0.1232
     20 C           2.1085    8.3153   -0.0002 C.ar    1  LIG1        0.1732
     21 C           2.1310    9.6946   -0.0002 C.ar    1  LIG1        0.0035
     22 C           3.5250   10.0867   -0.0001 C.ar    1  LIG1        0.0741
     23 C           4.2622    8.9204   -0.0002 C.ar    1  LIG1        0.1860
     24 O           3.4112    7.8147   -0.0003 O.2     1  LIG1       -0.4473
     25 H           1.1161   10.5069   -0.0001 H       1  LIG1        0.0669
     26 C           3.9683   11.3088   -0.0001 C.1     1  LIG1       -0.0657
     27 C           4.3779   12.4380   -0.0001 C.1     1  LIG1       -0.1138
     28 H           4.7428   13.4439   -0.0001 H       1  LIG1        0.1232
     29 C           5.5281    8.6248   -0.0002 C.ar    1  LIG1        0.1721
     30 C           6.7057    9.3433   -0.0002 C.ar    1  LIG1        0.0027
     31 C           7.7825    8.3750   -0.0001 C.ar    1  LIG1        0.0630
     32 C           7.1911    7.1285   -0.0002 C.ar    1  LIG1        0.1081
     33 O           5.8017    7.2563   -0.0003 O.2     1  LIG1       -0.4585
     34 H           7.6182    5.9007   -0.0001 H       1  LIG1        0.1042
     35 H           6.8495   10.6354   -0.0001 H       1  LIG1        0.0669
     36 C           9.0522    8.6539   -0.0001 C.1     1  LIG1       -0.0665
     37 C          10.2254    8.9116   -0.0001 C.1     1  LIG1       -0.1138
     38 H          11.2705    9.1411   -0.0000 H       1  LIG1        0.1232
@<TRIPOS>BOND
     1    24    23   ar
     2    24    20   ar
     3    33    32   ar
     4    33    29   ar
     5    15    14   ar
     6    15    11   ar
     7     5     4   ar
     8     5     1   ar
     9    23    29    1
    10    23    22   ar
    11    32    34    1
    12    32    31   ar
    13    14    20    1
    14    14    13   ar
    15    29    30   ar
    16    21    20   ar
    17    21    22   ar
    18    21    25    1
    19    30    31   ar
    20    30    35    1
    21    19    18    1
    22    18    17    3
    23    12    13   ar
    24    12    11   ar
    25    12    16    1
    26    22    26    1
    27    17    13    1
    28    26    27    3
    29    31    36    1
    30    27    28    1
    31     4    11    1
    32     4     3   ar
    33    36    37    3
    34    37    38    1
    35    10     9    1
    36     9     8    3
    37     8     3    1
    38     6     1    1
    39     3     2   ar
    40     2     1   ar
    41     2     7    1
