@<TRIPOS>MOLECULE
mol_data/noopt/geoms/mol2/12ae12ae12ae.out
 29 31 0 0 0
SMALL
GASTEIGER

@<TRIPOS>ATOM
      1 C           0.1763    1.8460    0.0000 C.ar    1  LIG1        0.0939
      2 C           1.5558    1.8460    0.0000 C.ar    1  LIG1       -0.0077
      3 C           1.9706    3.2334    0.0000 C.ar    1  LIG1        0.0734
      4 C           0.8165    3.9895   -0.0001 C.ar    1  LIG1        0.1850
      5 O          -0.3030    3.1567   -0.0002 O.2     1  LIG1       -0.4586
      6 H          -0.7504    0.9343    0.0000 H       1  LIG1        0.1030
      7 H           2.3515    0.8179    0.0001 H       1  LIG1        0.0661
      8 C           3.1998    3.6567    0.0000 C.1     1  LIG1       -0.0658
      9 C           4.3355    4.0478    0.0000 C.1     1  LIG1       -0.1138
     10 H           5.3472    4.3962    0.0000 H       1  LIG1        0.1232
     11 C           0.5416    5.2601   -0.0001 C.ar    1  LIG1        0.1731
     12 C           1.2792    6.4258   -0.0001 C.ar    1  LIG1        0.0035
     13 C           0.3286    7.5182   -0.0001 C.ar    1  LIG1        0.0741
     14 C          -0.9274    6.9472   -0.0002 C.ar    1  LIG1        0.1860
     15 O          -0.8223    5.5559   -0.0003 O.2     1  LIG1       -0.4473
     16 H           2.5734    6.5485   -0.0000 H       1  LIG1        0.0669
     17 C           0.6282    8.7832   -0.0001 C.1     1  LIG1       -0.0657
     18 C           0.9050    9.9521   -0.0001 C.1     1  LIG1       -0.1138
     19 H           1.1515   10.9933   -0.0001 H       1  LIG1        0.1232
     20 C          -2.1481    7.3943   -0.0002 C.ar    1  LIG1        0.1721
     21 C          -2.7387    8.6410   -0.0002 C.ar    1  LIG1        0.0027
     22 C          -4.1701    8.4218   -0.0002 C.ar    1  LIG1        0.0630
     23 C          -4.3593    7.0551   -0.0003 C.ar    1  LIG1        0.1081
     24 O          -3.1273    6.4000   -0.0004 O.2     1  LIG1       -0.4585
     25 H          -5.3898    6.2627   -0.0003 H       1  LIG1        0.1042
     26 H          -2.1504    9.8002   -0.0001 H       1  LIG1        0.0669
     27 C          -5.0789    9.3514   -0.0002 C.1     1  LIG1       -0.0665
     28 C          -5.9187   10.2103   -0.0002 C.1     1  LIG1       -0.1138
     29 H          -6.6667   10.9754   -0.0002 H       1  LIG1        0.1232
@<TRIPOS>BOND
     1    24    23   ar
     2    24    20   ar
     3    25    23    1
     4    23    22   ar
     5    15    14   ar
     6    15    11   ar
     7    29    28    1
     8    28    27    3
     9    27    22    1
    10    22    21   ar
    11    21    20   ar
    12    21    26    1
    13    20    14    1
    14    14    13   ar
    15     5     4   ar
    16     5     1   ar
    17    13    12   ar
    18    13    17    1
    19    11    12   ar
    20    11     4    1
    21    12    16    1
    22    17    18    3
    23    18    19    1
    24     4     3   ar
    25     1     2   ar
    26     1     6    1
    27     2     3   ar
    28     2     7    1
    29     3     8    1
    30     8     9    3
    31     9    10    1
