@<TRIPOS>MOLECULE
mol_data/noopt/geoms/mol2/12ae12ae12ae-12ae-.out
 38 41 0 0 0
SMALL
GASTEIGER

@<TRIPOS>ATOM
      1 C           0.1763    1.8460    0.0000 C.ar    1  LIG1        0.0939
      2 C           1.5558    1.8460    0.0000 C.ar    1  LIG1       -0.0077
      3 C           1.9706    3.2334    0.0000 C.ar    1  LIG1        0.0734
      4 C           0.8165    3.9895   -0.0001 C.ar    1  LIG1        0.1850
      5 O          -0.3030    3.1567   -0.0002 O.2     1  LIG1       -0.4586
      6 H          -0.7504    0.9343    0.0000 H       1  LIG1        0.1030
      7 H           2.3515    0.8179    0.0001 H       1  LIG1        0.0661
      8 C           3.1998    3.6567    0.0000 C.1     1  LIG1       -0.0658
      9 C           4.3355    4.0478    0.0000 C.1     1  LIG1       -0.1138
     10 H           5.3472    4.3962    0.0000 H       1  LIG1        0.1232
     11 C           0.5416    5.2601   -0.0001 C.ar    1  LIG1        0.1731
     12 C           1.2792    6.4258   -0.0001 C.ar    1  LIG1        0.0035
     13 C           0.3286    7.5182   -0.0001 C.ar    1  LIG1        0.0741
     14 C          -0.9274    6.9472   -0.0002 C.ar    1  LIG1        0.1860
     15 O          -0.8223    5.5559   -0.0003 O.2     1  LIG1       -0.4473
     16 H           2.5734    6.5485   -0.0000 H       1  LIG1        0.0669
     17 C           0.6282    8.7832   -0.0001 C.1     1  LIG1       -0.0657
     18 C           0.9050    9.9521   -0.0001 C.1     1  LIG1       -0.1138
     19 H           1.1515   10.9933   -0.0001 H       1  LIG1        0.1232
     20 C          -2.1481    7.3943   -0.0002 C.ar    1  LIG1        0.1732
     21 C          -3.4042    6.8241   -0.0002 C.ar    1  LIG1        0.0035
     22 C          -4.3554    7.9160   -0.0002 C.ar    1  LIG1        0.0741
     23 C          -3.6171    9.0815   -0.0003 C.ar    1  LIG1        0.1860
     24 O          -2.2534    8.7859   -0.0004 O.2     1  LIG1       -0.4473
     25 H          -3.7038    5.5591   -0.0001 H       1  LIG1        0.0669
     26 C          -5.6496    7.7933   -0.0002 C.1     1  LIG1       -0.0657
     27 C          -6.8455    7.6800   -0.0002 C.1     1  LIG1       -0.1138
     28 H          -7.9107    7.5790   -0.0002 H       1  LIG1        0.1232
     29 C          -3.8920   10.3521   -0.0003 C.ar    1  LIG1        0.1721
     30 C          -5.0455   11.1087   -0.0003 C.ar    1  LIG1        0.0027
     31 C          -4.6315   12.4963   -0.0002 C.ar    1  LIG1        0.0630
     32 C          -3.2517   12.4956   -0.0003 C.ar    1  LIG1        0.1081
     33 O          -2.7723   11.1852   -0.0004 O.2     1  LIG1       -0.4585
     34 H          -2.3250   13.4073   -0.0003 H       1  LIG1        0.1042
     35 H          -6.2747   10.6854   -0.0002 H       1  LIG1        0.0669
     36 C          -5.4271   13.5243   -0.0002 C.1     1  LIG1       -0.0665
     37 C          -6.1623   14.4743   -0.0002 C.1     1  LIG1       -0.1138
     38 H          -6.8172   15.3204   -0.0002 H       1  LIG1        0.1232
@<TRIPOS>BOND
     1    33    32   ar
     2    33    29   ar
     3    24    23   ar
     4    24    20   ar
     5    15    14   ar
     6    15    11   ar
     7    32    34    1
     8    32    31   ar
     9    23    29    1
    10    23    22   ar
    11    30    29   ar
    12    30    31   ar
    13    30    35    1
    14    28    27    1
    15    27    26    3
    16    21    22   ar
    17    21    20   ar
    18    21    25    1
    19    31    36    1
    20    26    22    1
    21    36    37    3
    22    37    38    1
    23    20    14    1
    24    14    13   ar
    25     5     4   ar
    26     5     1   ar
    27    18    17    3
    28    18    19    1
    29    17    13    1
    30    13    12   ar
    31    12    11   ar
    32    12    16    1
    33    11     4    1
    34     4     3   ar
    35     1     2   ar
    36     1     6    1
    37     2     3   ar
    38     2     7    1
    39     3     8    1
    40     8     9    3
    41     9    10    1
