@<TRIPOS>MOLECULE
mol_data/noopt/geoms/mol2/12ae6fi12da-12da.out
 40 42 0 0 0
SMALL
GASTEIGER

@<TRIPOS>ATOM
      1 C           0.1763    1.8460    0.0000 C.2     1  LIG1       -0.0604
      2 C           1.5558    1.8460    0.0000 C.2     1  LIG1       -0.0426
      3 C           1.9706    3.2334    0.0000 C.2     1  LIG1        0.0720
      4 C           0.8165    3.9895   -0.0001 C.2     1  LIG1        0.2064
      5 O          -0.3030    3.1567   -0.0002 O.2     1  LIG1       -0.2858
      6 H          -0.7504    0.9343    0.0000 H       1  LIG1        0.0618
      7 H           2.3515    0.8179    0.0001 H       1  LIG1        0.0631
      8 C           3.1998    3.6567    0.0000 C.1     1  LIG1       -0.0658
      9 C           4.3355    4.0478    0.0000 C.1     1  LIG1       -0.1138
     10 H           5.3472    4.3962    0.0000 H       1  LIG1        0.1232
     11 C          -0.7953    5.6985    0.0001 C.ar    1  LIG1        0.2241
     12 C           0.5416    5.2601   -0.0001 C.ar    1  LIG1        0.0844
     13 C           1.5573    6.2179    0.0001 C.ar    1  LIG1       -0.0407
     14 C           1.2067    7.5691    0.0002 C.ar    1  LIG1       -0.0205
     15 C          -0.1587    7.9086    0.0001 C.ar    1  LIG1        0.1140
     16 N          -1.1514    6.9977    0.0002 N.ar    1  LIG1       -0.2090
     17 H           2.6135    5.9134   -0.0011 H       1  LIG1        0.0630
     18 O          -1.7757    4.8447    0.0000 O.3     1  LIG1       -0.4919
     19 H          -1.4230    3.9518    0.0000 H       1  LIG1        0.2938
     20 C           2.1153    8.4993    0.0002 C.3     1  LIG1       -0.0376
     21 H           1.7396    9.3649    0.5046 H       1  LIG1        0.0278
     22 H           2.3645    8.7545   -1.0087 H       1  LIG1        0.0278
     23 H           2.9895    8.1439    0.5045 H       1  LIG1        0.0278
     24 C          -0.5350    9.1529    0.0003 C.ar    1  LIG1        0.1716
     25 C           0.1063   10.3743    0.0005 C.ar    1  LIG1        0.0996
     26 C          -0.9292   11.3865    0.0007 C.ar    1  LIG1        0.0054
     27 C          -2.1351   10.7163    0.0005 C.ar    1  LIG1        0.1732
     28 O          -1.9183    9.3379    0.0002 O.2     1  LIG1       -0.4488
     29 N           2.5155   10.8006    0.0006 N.1     1  LIG1       -0.1907
     30 C           1.3865   10.6008    0.0006 C.1     1  LIG1        0.1030
     31 H          -0.7325   12.6716    0.0009 H       1  LIG1        0.0670
     32 C          -3.3879   11.0636    0.0006 C.ar    1  LIG1        0.1870
     33 C          -4.0770   12.2586    0.0007 C.ar    1  LIG1        0.1004
     34 C          -5.4861   11.9249    0.0008 C.ar    1  LIG1       -0.0057
     35 C          -5.5645   10.5474    0.0007 C.ar    1  LIG1        0.0940
     36 O          -4.2839    9.9936    0.0005 O.2     1  LIG1       -0.4585
     37 H          -6.5279    9.6745    0.0008 H       1  LIG1        0.1030
     38 N          -3.1490   14.5224    0.0009 N.1     1  LIG1       -0.1907
     39 C          -3.5839   13.4615    0.0008 C.1     1  LIG1        0.1031
     40 H          -6.4668   12.7782    0.0009 H       1  LIG1        0.0662
@<TRIPOS>BOND
     1    22    20    1
     2    17    13    1
     3     5     4    1
     4    12     4    1
     5    12    11   ar
     6    12    13   ar
     7     4     3    2
     8     2     1    2
     9     2     3    1
    10     2     7    1
    11     1     6    1
    12     3     8    1
    13    10     9    1
    14     9     8    3
    15    19    18    1
    16    18    11    1
    17    11    16   ar
    18    13    14   ar
    19    15    16   ar
    20    15    14   ar
    21    15    24    1
    22    20    14    1
    23    20    23    1
    24    20    21    1
    25    28    24   ar
    26    28    27   ar
    27    24    25   ar
    28    25    30    1
    29    25    26   ar
    30    36    32   ar
    31    36    35   ar
    32    27    32    1
    33    27    26   ar
    34    30    29    3
    35    32    33   ar
    36    26    31    1
    37    35    37    1
    38    35    34   ar
    39    33    39    1
    40    33    34   ar
    41    39    38    3
    42    34    40    1
