@<TRIPOS>MOLECULE
mol_data/noopt/geoms/mol2/12ae12ae12ae12ae.out
 38 41 0 0 0
SMALL
GASTEIGER

@<TRIPOS>ATOM
      1 C           0.1763    1.8460    0.0000 C.ar    1  LIG1        0.0939
      2 C           1.5558    1.8460    0.0000 C.ar    1  LIG1       -0.0077
      3 C           1.9706    3.2334    0.0000 C.ar    1  LIG1        0.0734
      4 C           0.8165    3.9895   -0.0001 C.ar    1  LIG1        0.1850
      5 O          -0.3030    3.1567   -0.0002 O.2     1  LIG1       -0.4586
      6 H          -0.7504    0.9343    0.0000 H       1  LIG1        0.1030
      7 H           2.3515    0.8179    0.0001 H       1  LIG1        0.0661
      8 C           3.1998    3.6567    0.0000 C.1     1  LIG1       -0.0658
      9 C           4.3355    4.0478    0.0000 C.1     1  LIG1       -0.1138
     10 H           5.3472    4.3962    0.0000 H       1  LIG1        0.1232
     11 C           0.5416    5.2601   -0.0001 C.ar    1  LIG1        0.1731
     12 C           1.2792    6.4258   -0.0001 C.ar    1  LIG1        0.0035
     13 C           0.3286    7.5182   -0.0001 C.ar    1  LIG1        0.0741
     14 C          -0.9274    6.9472   -0.0002 C.ar    1  LIG1        0.1860
     15 O          -0.8223    5.5559   -0.0003 O.2     1  LIG1       -0.4473
     16 H           2.5734    6.5485   -0.0000 H       1  LIG1        0.0669
     17 C           0.6282    8.7832   -0.0001 C.1     1  LIG1       -0.0657
     18 C           0.9050    9.9521   -0.0001 C.1     1  LIG1       -0.1138
     19 H           1.1515   10.9933   -0.0001 H       1  LIG1        0.1232
     20 C          -2.1481    7.3943   -0.0002 C.ar    1  LIG1        0.1732
     21 C          -2.7387    8.6410   -0.0002 C.ar    1  LIG1        0.0035
     22 C          -4.1701    8.4218   -0.0002 C.ar    1  LIG1        0.0741
     23 C          -4.3593    7.0551   -0.0003 C.ar    1  LIG1        0.1860
     24 O          -3.1273    6.4000   -0.0004 O.2     1  LIG1       -0.4473
     25 H          -2.1504    9.8002   -0.0001 H       1  LIG1        0.0669
     26 C          -5.0789    9.3514   -0.0002 C.1     1  LIG1       -0.0657
     27 C          -5.9187   10.2103   -0.0002 C.1     1  LIG1       -0.1138
     28 H          -6.6667   10.9754   -0.0002 H       1  LIG1        0.1232
     29 C          -5.3898    6.2627   -0.0003 C.ar    1  LIG1        0.1721
     30 C          -6.7591    6.4302   -0.0003 C.ar    1  LIG1        0.0027
     31 C          -7.3393    5.1034   -0.0003 C.ar    1  LIG1        0.0630
     32 C          -6.2855    4.2128   -0.0004 C.ar    1  LIG1        0.1081
     33 O          -5.0732    4.9035   -0.0005 O.2     1  LIG1       -0.4585
     34 H          -6.1669    2.9182   -0.0004 H       1  LIG1        0.1042
     35 H          -7.4241    7.5472   -0.0002 H       1  LIG1        0.0669
     36 C          -8.6107    4.8325   -0.0003 C.1     1  LIG1       -0.0665
     37 C          -9.7856    4.5821   -0.0003 C.1     1  LIG1       -0.1138
     38 H         -10.8321    4.3591   -0.0003 H       1  LIG1        0.1232
@<TRIPOS>BOND
     1    33    32   ar
     2    33    29   ar
     3    34    32    1
     4    32    31   ar
     5    24    23   ar
     6    24    20   ar
     7    38    37    1
     8    37    36    3
     9    36    31    1
    10    31    30   ar
    11    30    29   ar
    12    30    35    1
    13    29    23    1
    14    23    22   ar
    15    15    14   ar
    16    15    11   ar
    17    21    20   ar
    18    21    22   ar
    19    21    25    1
    20    20    14    1
    21    22    26    1
    22    26    27    3
    23    27    28    1
    24    14    13   ar
    25     5     4   ar
    26     5     1   ar
    27    19    18    1
    28    18    17    3
    29    17    13    1
    30    13    12   ar
    31    12    11   ar
    32    12    16    1
    33    11     4    1
    34     4     3   ar
    35     2     1   ar
    36     2     3   ar
    37     2     7    1
    38     1     6    1
    39     3     8    1
    40     8     9    3
    41     9    10    1
