@<TRIPOS>MOLECULE
mol_data/noopt/geoms/mol2/12ae12ae.out
 20 21 0 0 0
SMALL
GASTEIGER

@<TRIPOS>ATOM
      1 C           0.1763    1.8460    0.0000 C.ar    1  LIG1        0.0939
      2 C           1.5558    1.8460    0.0000 C.ar    1  LIG1       -0.0077
      3 C           1.9706    3.2334    0.0000 C.ar    1  LIG1        0.0734
      4 C           0.8165    3.9895   -0.0001 C.ar    1  LIG1        0.1850
      5 O          -0.3030    3.1567   -0.0002 O.2     1  LIG1       -0.4586
      6 H          -0.7504    0.9343    0.0000 H       1  LIG1        0.1030
      7 H           2.3515    0.8179    0.0001 H       1  LIG1        0.0661
      8 C           3.1998    3.6567    0.0000 C.1     1  LIG1       -0.0658
      9 C           4.3355    4.0478    0.0000 C.1     1  LIG1       -0.1138
     10 H           5.3472    4.3962    0.0000 H       1  LIG1        0.1232
     11 C           0.5416    5.2601   -0.0001 C.ar    1  LIG1        0.1721
     12 C           1.2792    6.4258   -0.0001 C.ar    1  LIG1        0.0027
     13 C           0.3286    7.5182   -0.0001 C.ar    1  LIG1        0.0630
     14 C          -0.9274    6.9472   -0.0002 C.ar    1  LIG1        0.1081
     15 O          -0.8223    5.5559   -0.0003 O.2     1  LIG1       -0.4585
     16 H          -2.1481    7.3943   -0.0002 H       1  LIG1        0.1042
     17 H           2.5734    6.5485   -0.0000 H       1  LIG1        0.0669
     18 C           0.6282    8.7832   -0.0001 C.1     1  LIG1       -0.0665
     19 C           0.9050    9.9521   -0.0001 C.1     1  LIG1       -0.1138
     20 H           1.1515   10.9933   -0.0001 H       1  LIG1        0.1232
@<TRIPOS>BOND
     1    15    14   ar
     2    15    11   ar
     3     5     4   ar
     4     5     1   ar
     5    16    14    1
     6    14    13   ar
     7    11    12   ar
     8    11     4    1
     9    20    19    1
    10    19    18    3
    11    18    13    1
    12    13    12   ar
    13    12    17    1
    14     4     3   ar
    15     1     6    1
    16     1     2   ar
    17    10     9    1
    18     9     8    3
    19     8     3    1
    20     3     2   ar
    21     2     7    1
