@<TRIPOS>MOLECULE
mol_data/noopt/geoms/mol2/12ae4ad-12eh12fi.out
 44 47 0 0 0
SMALL
GASTEIGER

@<TRIPOS>ATOM
      1 C           0.1763    1.8460    0.0000 C.ar    1  LIG1        0.0938
      2 C           1.5558    1.8460    0.0000 C.ar    1  LIG1       -0.0078
      3 C           1.9706    3.2334    0.0000 C.ar    1  LIG1        0.0703
      4 C           0.8165    3.9895   -0.0001 C.ar    1  LIG1        0.1501
      5 O          -0.3030    3.1567   -0.0002 O.2     1  LIG1       -0.4617
      6 H          -0.7504    0.9343    0.0000 H       1  LIG1        0.1030
      7 H           2.3515    0.8179    0.0001 H       1  LIG1        0.0661
      8 C           3.1998    3.6567    0.0000 C.1     1  LIG1       -0.0659
      9 C           4.3355    4.0478    0.0000 C.1     1  LIG1       -0.1138
     10 H           5.3472    4.3962    0.0000 H       1  LIG1        0.1232
     11 C           1.5877    6.2051    0.0220 C.ar    1  LIG1       -0.0503
     12 C           1.2377    7.5692    0.0226 C.ar    1  LIG1       -0.0491
     13 C           0.5416    5.2600   -0.0001 C.ar    1  LIG1        0.0197
     14 C          -0.0943    7.9766    0.0015 C.ar    1  LIG1        0.0359
     15 H           2.0291    8.3151    0.0396 H       1  LIG1        0.0625
     16 C          -0.7883    5.6663   -0.0212 C.ar    1  LIG1       -0.0330
     17 C          -1.1157    7.0262   -0.0206 C.ar    1  LIG1        0.0631
     18 H          -1.5769    4.9183   -0.0379 H       1  LIG1        0.0638
     19 H           2.8479    5.8865    0.0420 H       1  LIG1        0.0625
     20 N          -3.4587    7.7296   -0.0575 N.1     1  LIG1       -0.1908
     21 C          -2.3607    7.3999   -0.0402 C.1     1  LIG1        0.0999
     22 C          -0.3815    9.2445    0.0026 C.ar    1  LIG1        0.1542
     23 C           0.3446   10.4173    0.0182 C.ar    1  LIG1        0.0918
     24 C          -0.6165   11.5004    0.0086 C.ar    1  LIG1        0.0904
     25 C          -1.8668   10.9173   -0.0124 C.ar    1  LIG1        0.1959
     26 O          -1.7481    9.5271   -0.0166 O.2     1  LIG1       -0.4484
     27 C           1.6374   10.5525    0.0379 C.1     1  LIG1       -0.0640
     28 C           2.8320   10.6774    0.0561 C.1     1  LIG1       -0.1137
     29 H           3.8961   10.7886    0.0723 H       1  LIG1        0.1232
     30 N          -0.3293   12.7683    0.0181 N.pl3   1  LIG1       -0.3540
     31 H           0.5415   12.9163   -0.4509 H       1  LIG1        0.1425
     32 H          -1.0512   13.2771   -0.4509 H       1  LIG1        0.1425
     33 C          -3.0916   11.3526   -0.0286 C.ar    1  LIG1        0.2129
     34 C          -3.6942   12.5935   -0.0409 C.ar    1  LIG1        0.1687
     35 C          -5.1233   12.3604   -0.0567 C.ar    1  LIG1        0.0295
     36 C          -5.2993   10.9920   -0.0532 C.ar    1  LIG1        0.0993
     37 O          -4.0612   10.3488   -0.0360 O.2     1  LIG1       -0.4557
     38 H          -6.3221   10.1896   -0.0618 H       1  LIG1        0.1033
     39 O          -3.1170   13.7584   -0.0389 O.3     1  LIG1       -0.5030
     40 H          -3.7856   14.4472   -0.0384 H       1  LIG1        0.2923
     41 C          -6.0412   13.2814   -0.0714 C.3     1  LIG1       -0.0332
     42 H          -6.9157   12.9213    0.4290 H       1  LIG1        0.0280
     43 H          -6.2850   13.5259   -1.0842 H       1  LIG1        0.0280
     44 H          -5.6781   14.1547    0.4290 H       1  LIG1        0.0280
@<TRIPOS>BOND
     1    43    41    1
     2    32    30    1
     3    31    30    1
     4    41    35    1
     5    41    44    1
     6    41    42    1
     7    38    36    1
     8    20    21    3
     9    35    36   ar
    10    35    34   ar
    11    36    37   ar
    12    34    39    1
    13    34    33   ar
    14    21    17    1
    15    39    40    1
    16    18    16    1
    17    37    33   ar
    18    33    25    1
    19    16    17   ar
    20    16    13   ar
    21    17    14   ar
    22    26    25   ar
    23    26    22   ar
    24    25    24   ar
    25     5     4   ar
    26     5     1   ar
    27    13     4    1
    28    13    11   ar
    29     4     3   ar
    30     2     3   ar
    31     2     1   ar
    32     2     7    1
    33     3     8    1
    34     6     1    1
    35     8     9    3
    36     9    10    1
    37    14    22    1
    38    14    12   ar
    39    22    23   ar
    40    24    30    1
    41    24    23   ar
    42    23    27    1
    43    11    12   ar
    44    11    19    1
    45    12    15    1
    46    27    28    3
    47    28    29    1
