@<TRIPOS>MOLECULE
mol_data/noopt/geoms/mol2/12ae12ae-12ae12ae.out
 38 41 0 0 0
SMALL
GASTEIGER

@<TRIPOS>ATOM
      1 C           0.1763    1.8460    0.0000 C.ar    1  LIG1        0.0939
      2 C           1.5558    1.8460    0.0000 C.ar    1  LIG1       -0.0077
      3 C           1.9706    3.2334    0.0000 C.ar    1  LIG1        0.0734
      4 C           0.8165    3.9895   -0.0001 C.ar    1  LIG1        0.1850
      5 O          -0.3030    3.1567   -0.0002 O.2     1  LIG1       -0.4586
      6 H          -0.7504    0.9343    0.0000 H       1  LIG1        0.1030
      7 H           2.3515    0.8179    0.0001 H       1  LIG1        0.0661
      8 C           3.1998    3.6567    0.0000 C.1     1  LIG1       -0.0658
      9 C           4.3355    4.0478    0.0000 C.1     1  LIG1       -0.1138
     10 H           5.3472    4.3962    0.0000 H       1  LIG1        0.1232
     11 C           0.5416    5.2601   -0.0001 C.ar    1  LIG1        0.1731
     12 C          -0.6119    6.0167   -0.0001 C.ar    1  LIG1        0.0035
     13 C          -0.1979    7.4043   -0.0001 C.ar    1  LIG1        0.0741
     14 C           1.1818    7.4036   -0.0002 C.ar    1  LIG1        0.1860
     15 O           1.6612    6.0932   -0.0003 O.2     1  LIG1       -0.4473
     16 H          -1.8411    5.5934   -0.0000 H       1  LIG1        0.0669
     17 C          -0.9936    8.4323   -0.0001 C.1     1  LIG1       -0.0657
     18 C          -1.7288    9.3823   -0.0001 C.1     1  LIG1       -0.1138
     19 H          -2.3837   10.2284   -0.0001 H       1  LIG1        0.1232
     20 C           2.1085    8.3153   -0.0002 C.ar    1  LIG1        0.1732
     21 C           3.4880    8.3153   -0.0001 C.ar    1  LIG1        0.0035
     22 C           3.9028    9.7027   -0.0001 C.ar    1  LIG1        0.0741
     23 C           2.7487   10.4588   -0.0002 C.ar    1  LIG1        0.1860
     24 O           1.6292    9.6260   -0.0003 O.2     1  LIG1       -0.4473
     25 H           4.2837    7.2872   -0.0000 H       1  LIG1        0.0669
     26 C           5.1320   10.1260   -0.0001 C.1     1  LIG1       -0.0657
     27 C           6.2677   10.5171   -0.0001 C.1     1  LIG1       -0.1138
     28 H           7.2794   10.8655   -0.0001 H       1  LIG1        0.1232
     29 C           2.4738   11.7294   -0.0002 C.ar    1  LIG1        0.1721
     30 C           3.2115   12.8951   -0.0002 C.ar    1  LIG1        0.0027
     31 C           2.2609   13.9875   -0.0002 C.ar    1  LIG1        0.0630
     32 C           1.0048   13.4165   -0.0003 C.ar    1  LIG1        0.1081
     33 O           1.1100   12.0252   -0.0004 O.2     1  LIG1       -0.4585
     34 H          -0.2159   13.8636   -0.0003 H       1  LIG1        0.1042
     35 H           4.5057   13.0177   -0.0001 H       1  LIG1        0.0669
     36 C           2.5604   15.2525   -0.0002 C.1     1  LIG1       -0.0665
     37 C           2.8372   16.4214   -0.0002 C.1     1  LIG1       -0.1138
     38 H           3.0838   17.4626   -0.0002 H       1  LIG1        0.1232
@<TRIPOS>BOND
     1    33    32   ar
     2    33    29   ar
     3    24    23   ar
     4    24    20   ar
     5    32    34    1
     6    32    31   ar
     7    15    14   ar
     8    15    11   ar
     9    23    29    1
    10    23    22   ar
    11    29    30   ar
    12     5     4   ar
    13     5     1   ar
    14    30    31   ar
    15    30    35    1
    16    31    36    1
    17    14    20    1
    18    14    13   ar
    19    36    37    3
    20    37    38    1
    21    20    21   ar
    22    19    18    1
    23    21    22   ar
    24    21    25    1
    25    18    17    3
    26    12    13   ar
    27    12    11   ar
    28    12    16    1
    29    17    13    1
    30    22    26    1
    31     4    11    1
    32     4     3   ar
    33    26    27    3
    34    27    28    1
    35    10     9    1
    36     9     8    3
    37     8     3    1
    38     6     1    1
    39     1     2   ar
    40     3     2   ar
    41     2     7    1
