@<TRIPOS>MOLECULE
mol_data/noopt/geoms/mol2/12ae13ld-6ae-12dh.out
 45 49 0 0 0
SMALL
GASTEIGER

@<TRIPOS>ATOM
      1 C           0.1763    1.8460    0.0000 C.2     1  LIG1        0.0876
      2 C           1.5558    1.8460    0.0000 C.2     1  LIG1       -0.0122
      3 C           1.9706    3.2334    0.0000 C.2     1  LIG1        0.0507
      4 C           0.8165    3.9895   -0.0001 C.3     1  LIG1        0.2341
      5 O          -0.3030    3.1567   -0.0002 O.2     1  LIG1       -0.4768
      6 H          -0.7504    0.9343    0.0000 H       1  LIG1        0.1024
      7 H           2.3515    0.8179    0.0001 H       1  LIG1        0.0658
      8 C           3.1998    3.6567    0.0000 C.1     1  LIG1       -0.1194
      9 C           4.3355    4.0478    0.0000 C.2     1  LIG1       -0.0558
     10 H           5.3472    4.3962    0.0000 H       1  LIG1        0.0622
     11 C           0.5416    5.2601   -0.0001 C.ar    1  LIG1        0.1138
     12 C           1.3662    6.3409   -0.0005 C.ar    1  LIG1        0.1635
     13 C           0.5391    7.5098    0.0008 C.ar    1  LIG1        0.1187
     14 C          -0.7546    7.0920    0.0002 C.ar    1  LIG1        0.0662
     15 N          -0.7576    5.7154    0.0001 N.ar    1  LIG1       -0.3506
     16 H          -1.5690    5.1412   -0.0005 H       1  LIG1        0.1659
     17 O           2.6659    6.3141   -0.0004 O.3     1  LIG1       -0.4854
     18 C           3.1154    4.9566   -0.0004 C.3     1  LIG1        0.1236
     19 H           4.1852    4.9350   -0.0005 H       1  LIG1        0.0622
     20 H           2.7487    4.4594    0.8733 H       1  LIG1        0.0731
     21 H           2.7486    4.4594   -0.8740 H       1  LIG1        0.0731
     22 N           1.3056    9.8333    0.0030 N.1     1  LIG1       -0.1907
     23 C           0.9463    8.7444    0.0020 C.1     1  LIG1        0.1050
     24 C          -3.1035    7.1138   -0.0200 C.3     1  LIG1        0.1049
     25 C          -1.8613    7.7741    0.0007 C.2     1  LIG1        0.0051
     26 C          -1.8484    9.1699    0.0221 C.2     1  LIG1       -0.0374
     27 C          -3.0657    9.8532    0.0218 C.2     1  LIG1        0.0472
     28 C          -4.2564    9.1040   -0.0000 C.2     1  LIG1        0.1165
     29 N          -4.2871    7.7571   -0.0206 N.2     1  LIG1       -0.2685
     30 H          -0.8972    9.7205    0.0376 H       1  LIG1        0.0634
     31 H          -3.1670    5.8156   -0.0401 H       1  LIG1        0.0620
     32 C          -3.1071   11.1524    0.0409 C.1     1  LIG1       -0.0931
     33 C          -3.1453   12.3529    0.0587 C.2     1  LIG1        0.0551
     34 H          -3.1794   13.4222    0.0744 H       1  LIG1        0.0888
     35 C          -5.4144    9.6946   -0.0011 C.ar    1  LIG1        0.1609
     36 C          -5.8508   11.0033   -0.0019 C.ar    1  LIG1        0.0507
     37 C          -7.2982   10.9578   -0.0030 C.ar    1  LIG1        0.0690
     38 C          -7.6503    9.6238   -0.0029 C.ar    1  LIG1        0.1136
     39 O          -6.5061    8.8253   -0.0018 O.2     1  LIG1       -0.4591
     40 H          -8.7687    8.9611   -0.0034 H       1  LIG1        0.1049
     41 N          -4.4892   13.0359   -0.0015 N.pl3   1  LIG1       -0.2334
     42 C          -5.1273   12.0833   -0.0017 C.3     1  LIG1        0.1429
     43 N          -8.0886   11.9900   -0.0040 N.pl3   1  LIG1       -0.3552
     44 H          -7.6428   12.7508   -0.4756 H       1  LIG1        0.1424
     45 H          -8.9393   11.7579   -0.4757 H       1  LIG1        0.1424
@<TRIPOS>BOND
     1    21    18    1
     2    45    43    1
     3    44    43    1
     4    31    24    1
     5    29    24    1
     6    29    28    2
     7    24    25    1
     8    43    37    1
     9    40    38    1
    10    37    38   ar
    11    37    36   ar
    12    38    39   ar
    13    36    42    1
    14    36    35   ar
    15    39    35   ar
    16    42    41    1
    17    41    33    1
    18    35    28    1
    19    19     9    1
    20    16    15    1
    21    12    17    1
    22    12    11   ar
    23    12    13   ar
    24    18    17    1
    25    18    20    1
    26     5     4    1
    27     5     1    1
    28    11     4    1
    29    11    15   ar
    30     4     3    1
    31    28    27    1
    32     1     2    2
    33     1     6    1
    34     2     3    1
    35     2     7    1
    36     3     8    2
    37     8     9    2
    38     9    10    1
    39    15    14   ar
    40    14    25    1
    41    14    13   ar
    42    25    26    2
    43    13    23    1
    44    23    22    3
    45    27    26    1
    46    27    32    2
    47    26    30    1
    48    32    33    2
    49    33    34    1
