@<TRIPOS>MOLECULE
mol_data/noopt/geoms/mol2/12ae12ae-12ae.out
 29 31 0 0 0
SMALL
GASTEIGER

@<TRIPOS>ATOM
      1 C           0.1763    1.8460    0.0000 C.ar    1  LIG1        0.0939
      2 C           1.5558    1.8460    0.0000 C.ar    1  LIG1       -0.0077
      3 C           1.9706    3.2334    0.0000 C.ar    1  LIG1        0.0734
      4 C           0.8165    3.9895   -0.0001 C.ar    1  LIG1        0.1850
      5 O          -0.3030    3.1567   -0.0002 O.2     1  LIG1       -0.4586
      6 H          -0.7504    0.9343    0.0000 H       1  LIG1        0.1030
      7 H           2.3515    0.8179    0.0001 H       1  LIG1        0.0661
      8 C           3.1998    3.6567    0.0000 C.1     1  LIG1       -0.0658
      9 C           4.3355    4.0478    0.0000 C.1     1  LIG1       -0.1138
     10 H           5.3472    4.3962    0.0000 H       1  LIG1        0.1232
     11 C           0.5416    5.2601   -0.0001 C.ar    1  LIG1        0.1731
     12 C          -0.6119    6.0167   -0.0001 C.ar    1  LIG1        0.0035
     13 C          -0.1979    7.4043   -0.0001 C.ar    1  LIG1        0.0741
     14 C           1.1818    7.4036   -0.0002 C.ar    1  LIG1        0.1860
     15 O           1.6612    6.0932   -0.0003 O.2     1  LIG1       -0.4473
     16 H          -1.8411    5.5934   -0.0000 H       1  LIG1        0.0669
     17 C          -0.9936    8.4323   -0.0001 C.1     1  LIG1       -0.0657
     18 C          -1.7288    9.3823   -0.0001 C.1     1  LIG1       -0.1138
     19 H          -2.3837   10.2284   -0.0001 H       1  LIG1        0.1232
     20 C           2.1085    8.3153   -0.0002 C.ar    1  LIG1        0.1721
     21 C           3.4880    8.3153   -0.0001 C.ar    1  LIG1        0.0027
     22 C           3.9028    9.7027   -0.0001 C.ar    1  LIG1        0.0630
     23 C           2.7487   10.4588   -0.0002 C.ar    1  LIG1        0.1081
     24 O           1.6292    9.6260   -0.0003 O.2     1  LIG1       -0.4585
     25 H           2.4738   11.7294   -0.0002 H       1  LIG1        0.1042
     26 H           4.2837    7.2872   -0.0000 H       1  LIG1        0.0669
     27 C           5.1320   10.1260   -0.0001 C.1     1  LIG1       -0.0665
     28 C           6.2677   10.5171   -0.0001 C.1     1  LIG1       -0.1138
     29 H           7.2794   10.8655   -0.0001 H       1  LIG1        0.1232
@<TRIPOS>BOND
     1    24    23   ar
     2    24    20   ar
     3    15    14   ar
     4    15    11   ar
     5    23    25    1
     6    23    22   ar
     7     5     4   ar
     8     5     1   ar
     9    14    20    1
    10    14    13   ar
    11    20    21   ar
    12    19    18    1
    13    21    22   ar
    14    21    26    1
    15    18    17    3
    16    12    13   ar
    17    12    11   ar
    18    12    16    1
    19    17    13    1
    20    22    27    1
    21    11     4    1
    22     4     3   ar
    23    27    28    3
    24    28    29    1
    25    10     9    1
    26     9     8    3
    27     8     3    1
    28     6     1    1
    29     3     2   ar
    30     2     1   ar
    31     2     7    1
