@<TRIPOS>MOLECULE
mol_data/noopt/geoms/mol2/12af12id-13fe4fd-.out
 44 47 0 0 0
SMALL
GASTEIGER

@<TRIPOS>ATOM
      1 C           0.1763    1.8460    0.0000 C.ar    1  LIG1        0.0964
      2 C           1.5558    1.8460    0.0000 C.ar    1  LIG1        0.0185
      3 C           1.9706    3.2334    0.0000 C.ar    1  LIG1        0.1657
      4 C           0.8165    3.9895   -0.0001 C.ar    1  LIG1        0.2110
      5 O          -0.3030    3.1567   -0.0002 O.2     1  LIG1       -0.4560
      6 H          -0.7504    0.9343    0.0000 H       1  LIG1        0.1031
      7 H           2.3515    0.8179    0.0001 H       1  LIG1        0.0686
      8 O           3.1998    3.6567    0.0000 O.3     1  LIG1       -0.5031
      9 H           3.2081    4.6167    0.0000 H       1  LIG1        0.2923
     10 C           0.5416    5.2601   -0.0001 C.ar    1  LIG1        0.1784
     11 C           1.2792    6.4258   -0.0001 C.ar    1  LIG1        0.0166
     12 C           0.3286    7.5182   -0.0001 C.ar    1  LIG1        0.1026
     13 C          -0.9274    6.9472   -0.0002 C.ar    1  LIG1        0.1731
     14 O          -0.8223    5.5559   -0.0003 O.2     1  LIG1       -0.4484
     15 C           2.5738    6.5485    0.0000 C.3     1  LIG1       -0.0348
     16 H           2.8464    7.4519    0.5045 H       1  LIG1        0.0279
     17 H           2.9289    6.5822   -1.0088 H       1  LIG1        0.0279
     18 H           3.0112    5.7123    0.5044 H       1  LIG1        0.0279
     19 N           0.8924    9.8990   -0.0001 N.1     1  LIG1       -0.1907
     20 C           0.6282    8.7832   -0.0001 C.1     1  LIG1        0.1033
     21 C          -2.1481    7.3944   -0.0002 C.ar    1  LIG1        0.1271
     22 C          -2.6205    8.6690   -0.0006 C.ar    1  LIG1        0.1611
     23 C          -4.0506    8.5952    0.0007 C.ar    1  LIG1        0.0921
     24 C          -4.3892    7.2786    0.0001 C.ar    1  LIG1        0.0698
     25 N          -3.2275    6.5399   -0.0000 N.ar    1  LIG1       -0.3477
     26 H          -3.1762    5.5473   -0.0006 H       1  LIG1        0.1661
     27 O          -1.9029    9.7531   -0.0005 O.3     1  LIG1       -0.5034
     28 H          -2.4806   10.5198   -0.0005 H       1  LIG1        0.2923
     29 C          -4.8760    9.5995    0.0019 C.1     1  LIG1       -0.0638
     30 C          -5.6388   10.5274    0.0029 C.1     1  LIG1       -0.1137
     31 H          -6.3182   11.3541    0.0039 H       1  LIG1        0.1232
     32 C          -6.7249    7.4981    0.0230 C.ar    1  LIG1        0.1260
     33 C          -7.9658    6.8322    0.0242 C.ar    1  LIG1       -0.0183
     34 C          -5.5573    6.7081    0.0006 C.ar    1  LIG1        0.0422
     35 C          -8.0432    5.4415    0.0034 C.ar    1  LIG1       -0.0409
     36 H          -8.8793    7.4226    0.0415 H       1  LIG1        0.0655
     37 C          -5.6340    5.3196   -0.0201 C.ar    1  LIG1       -0.0317
     38 C          -6.8762    4.6767   -0.0190 C.ar    1  LIG1        0.0526
     39 H          -4.7193    4.7326   -0.0371 H       1  LIG1        0.0638
     40 H          -9.2058    4.8596    0.0050 H       1  LIG1        0.0631
     41 O          -6.7167    8.7979    0.0428 O.3     1  LIG1       -0.5061
     42 H          -7.6196    9.1240    0.0477 H       1  LIG1        0.2922
     43 N          -6.9995    2.2335   -0.0554 N.1     1  LIG1       -0.1909
     44 C          -6.9418    3.3785   -0.0383 C.1     1  LIG1        0.0992
@<TRIPOS>BOND
     1    17    15    1
     2    43    44    3
     3    44    38    1
     4    39    37    1
     5    37    38   ar
     6    37    34   ar
     7    38    35   ar
     8    26    25    1
     9    22    27    1
    10    22    21   ar
    11    22    23   ar
    12    27    28    1
    13    14    13   ar
    14    14    10   ar
    15    13    21    1
    16    13    12   ar
    17    21    25   ar
    18     5     4   ar
    19     5     1   ar
    20    20    19    3
    21    20    12    1
    22    12    11   ar
    23    11    10   ar
    24    11    15    1
    25    10     4    1
    26     4     3   ar
    27    25    24   ar
    28     1     2   ar
    29     1     6    1
    30     2     3   ar
    31     2     7    1
    32     3     8    1
    33    15    18    1
    34    15    16    1
    35     9     8    1
    36    24    34    1
    37    24    23   ar
    38    34    32   ar
    39    23    29    1
    40    29    30    3
    41    30    31    1
    42    35    40    1
    43    35    33   ar
    44    32    33   ar
    45    32    41    1
    46    33    36    1
    47    41    42    1
