@<TRIPOS>MOLECULE
mol_data/noopt/geoms/mol2/12af6hl(60)4dd(230)6hi(110).out
 51 54 0 0 0
SMALL
GASTEIGER

@<TRIPOS>ATOM
      1 C           0.1763    1.8460    0.0000 C.ar    1  LIG1        0.0962
      2 C           1.5558    1.8460    0.0000 C.ar    1  LIG1        0.0184
      3 C           1.9706    3.2334    0.0000 C.ar    1  LIG1        0.1627
      4 C           0.8165    3.9895   -0.0001 C.ar    1  LIG1        0.1793
      5 O          -0.3030    3.1567   -0.0002 O.2     1  LIG1       -0.4590
      6 H          -0.7504    0.9343    0.0000 H       1  LIG1        0.1031
      7 H           2.3515    0.8179    0.0001 H       1  LIG1        0.0686
      8 O           3.1998    3.6567    0.0000 O.3     1  LIG1       -0.5032
      9 H           3.2081    4.6167    0.0000 H       1  LIG1        0.2923
     10 C          -0.2026    5.8267   -1.0511 C.ar    1  LIG1        0.1279
     11 C           0.5416    5.2601   -0.0001 C.ar    1  LIG1        0.0638
     12 C           0.9734    6.0916    1.0349 C.ar    1  LIG1       -0.0037
     13 C           0.6506    7.4488    0.9857 C.ar    1  LIG1        0.1468
     14 C          -0.0981    7.9217   -0.1077 C.ar    1  LIG1        0.1159
     15 N          -0.5230    7.1336   -1.1145 N.ar    1  LIG1       -0.2280
     16 H           1.5579    5.6850    1.8723 H       1  LIG1        0.0663
     17 N          -0.6268    5.0933   -2.0371 N.pl3   1  LIG1       -0.3426
     18 H          -1.2633    5.6236   -2.5971 H       1  LIG1        0.1437
     19 H           0.1502    4.8059   -2.5971 H       1  LIG1        0.1437
     20 O           1.0294    8.2642    1.9246 O.3     1  LIG1       -0.4929
     21 C           2.3910    7.9957    2.2693 C.3     1  LIG1        0.0789
     22 H           2.7024    8.6671    3.0420 H       1  LIG1        0.0660
     23 H           2.4789    6.9873    2.6163 H       1  LIG1        0.0660
     24 H           3.0105    8.1317    1.4076 H       1  LIG1        0.0660
     25 C          -1.3430    9.5952   -1.1818 C.ar    1  LIG1        0.0617
     26 C          -1.6615   10.9657   -1.2398 C.ar    1  LIG1       -0.0346
     27 C          -0.4235    9.1770   -0.1982 C.ar    1  LIG1        0.0226
     28 C          -1.0913   11.8812   -0.3581 C.ar    1  LIG1        0.0040
     29 H          -2.3686   11.3099   -1.9913 H       1  LIG1        0.0637
     30 C           0.1461   10.0905    0.6822 C.ar    1  LIG1       -0.0332
     31 C          -0.1833   11.4480    0.6089 C.ar    1  LIG1        0.0603
     32 H           0.8526    9.7434    1.4318 H       1  LIG1        0.0637
     33 N          -2.4057    8.0782   -2.7804 N.1     1  LIG1       -0.1908
     34 C          -1.9077    8.7891   -2.0312 C.1     1  LIG1        0.0998
     35 N           0.8249   13.0465    2.1626 N.1     1  LIG1       -0.1908
     36 C           0.3524   12.2973    1.4345 C.1     1  LIG1        0.0998
     37 C          -1.1609   13.8595   -1.6230 C.ar    1  LIG1        0.1239
     38 C          -1.4080   13.1394   -0.4399 C.ar    1  LIG1        0.0232
     39 C          -1.9979   13.8062    0.6355 C.ar    1  LIG1       -0.0464
     40 C          -2.3181   15.1575    0.4944 C.ar    1  LIG1       -0.0316
     41 C          -2.0318   15.7913   -0.7287 C.ar    1  LIG1        0.0326
     42 N          -1.4633   15.1633   -1.7764 N.ar    1  LIG1       -0.2398
     43 H          -2.2052   13.2768    1.5763 H       1  LIG1        0.0628
     44 H          -2.3114   17.0480   -0.9085 H       1  LIG1        0.0833
     45 N          -0.6137   13.2825   -2.6514 N.pl3   1  LIG1       -0.3427
     46 H          -1.3224   12.8432   -3.2035 H       1  LIG1        0.1437
     47 H          -0.1376   13.9669   -3.2035 H       1  LIG1        0.1437
     48 C          -2.8684   15.8230    1.4665 C.3     1  LIG1       -0.0383
     49 H          -3.4523   15.1582    2.0682 H       1  LIG1        0.0278
     50 H          -3.5001   16.5867    1.0632 H       1  LIG1        0.0278
     51 H          -2.1058   16.2718    2.0681 H       1  LIG1        0.0278
@<TRIPOS>BOND
     1    47    45    1
     2    46    45    1
     3    33    34    3
     4    45    37    1
     5    19    17    1
     6    18    17    1
     7    17    10    1
     8    34    25    1
     9    29    26    1
    10    42    37   ar
    11    42    41   ar
    12    37    38   ar
    13    26    25   ar
    14    26    28   ar
    15    25    27   ar
    16    15    10   ar
    17    15    14   ar
    18    10    11   ar
    19    44    41    1
    20    41    40   ar
    21    38    28    1
    22    38    39   ar
    23    28    31   ar
    24    27    14    1
    25    27    30   ar
    26    14    13   ar
    27     5     4   ar
    28     5     1   ar
    29    11     4    1
    30    11    12   ar
    31     4     3   ar
    32     1     2   ar
    33     1     6    1
    34     2     3   ar
    35     2     7    1
    36     3     8    1
    37     8     9    1
    38    40    39   ar
    39    40    48    1
    40    31    30   ar
    41    31    36    1
    42    39    43    1
    43    30    32    1
    44    13    12   ar
    45    13    20    1
    46    12    16    1
    47    50    48    1
    48    24    21    1
    49    36    35    3
    50    48    51    1
    51    48    49    1
    52    20    21    1
    53    21    23    1
    54    21    22    1
