@<TRIPOS>MOLECULE
mol_data/noopt/geoms/mol2/12af12af-.out
 18 19 0 0 0
SMALL
GASTEIGER

@<TRIPOS>ATOM
      1 C           0.1763    1.8460    0.0000 C.ar    1  LIG1        0.0964
      2 C           1.5558    1.8460    0.0000 C.ar    1  LIG1        0.0185
      3 C           1.9706    3.2334    0.0000 C.ar    1  LIG1        0.1657
      4 C           0.8165    3.9895   -0.0001 C.ar    1  LIG1        0.2108
      5 O          -0.3030    3.1567   -0.0002 O.2     1  LIG1       -0.4560
      6 H          -0.7504    0.9343    0.0000 H       1  LIG1        0.1031
      7 H           2.3515    0.8179    0.0001 H       1  LIG1        0.0686
      8 O           3.1998    3.6567    0.0000 O.3     1  LIG1       -0.5031
      9 H           3.2081    4.6167    0.0000 H       1  LIG1        0.2923
     10 C           0.5416    5.2601   -0.0001 C.ar    1  LIG1        0.1769
     11 C          -0.6119    6.0167   -0.0001 C.ar    1  LIG1        0.0290
     12 C          -0.1979    7.4043   -0.0001 C.ar    1  LIG1        0.1551
     13 C           1.1818    7.4036   -0.0002 C.ar    1  LIG1        0.1340
     14 O           1.6612    6.0932   -0.0003 O.2     1  LIG1       -0.4560
     15 H           2.1085    8.3153   -0.0002 H       1  LIG1        0.1068
     16 H          -1.8411    5.5934   -0.0000 H       1  LIG1        0.0693
     17 O          -0.9936    8.4324   -0.0001 O.3     1  LIG1       -0.5036
     18 H          -1.9053    8.1319   -0.0001 H       1  LIG1        0.2923
@<TRIPOS>BOND
     1    14    13   ar
     2    14    10   ar
     3     5     4   ar
     4     5     1   ar
     5    13    15    1
     6    13    12   ar
     7    18    17    1
     8    11    12   ar
     9    11    10   ar
    10    11    16    1
    11    17    12    1
    12    10     4    1
    13     4     3   ar
    14     1     6    1
    15     1     2   ar
    16     9     8    1
    17     8     3    1
    18     3     2   ar
    19     2     7    1
