@<TRIPOS>MOLECULE
mol_data/noopt/geoms/mol2/12af12ad-13ld-12ad-.out
 39 42 0 0 0
SMALL
GASTEIGER

@<TRIPOS>ATOM
      1 C           0.1763    1.8460    0.0000 C.ar    1  LIG1        0.0964
      2 C           1.5558    1.8460    0.0000 C.ar    1  LIG1        0.0185
      3 C           1.9706    3.2334    0.0000 C.ar    1  LIG1        0.1657
      4 C           0.8165    3.9895   -0.0001 C.ar    1  LIG1        0.2107
      5 O          -0.3030    3.1567   -0.0002 O.2     1  LIG1       -0.4560
      6 H          -0.7504    0.9343    0.0000 H       1  LIG1        0.1031
      7 H           2.3515    0.8179    0.0001 H       1  LIG1        0.0686
      8 O           3.1998    3.6567    0.0000 O.3     1  LIG1       -0.5031
      9 H           3.2081    4.6167    0.0000 H       1  LIG1        0.2923
     10 C           0.5416    5.2601   -0.0001 C.ar    1  LIG1        0.1746
     11 C           1.2792    6.4258   -0.0001 C.ar    1  LIG1       -0.0068
     12 C           0.3286    7.5182   -0.0001 C.ar    1  LIG1        0.0263
     13 C          -0.9274    6.9472   -0.0002 C.ar    1  LIG1        0.1607
     14 O          -0.8223    5.5559   -0.0003 O.2     1  LIG1       -0.4497
     15 H           2.5734    6.5485   -0.0000 H       1  LIG1        0.0660
     16 N           0.8924    9.8990   -0.0001 N.3     1  LIG1       -0.2406
     17 C           0.6282    8.7832   -0.0001 C.3     1  LIG1        0.1129
     18 C          -2.1481    7.3944   -0.0002 C.ar    1  LIG1        0.1265
     19 C          -2.6205    8.6689    0.0160 C.ar    1  LIG1        0.1669
     20 C          -4.0506    8.5951    0.0083 C.ar    1  LIG1        0.1223
     21 C          -4.3892    7.2787   -0.0140 C.ar    1  LIG1        0.1039
     22 N          -3.2274    6.5401   -0.0189 N.ar    1  LIG1       -0.3454
     23 H          -3.1761    5.5475   -0.0341 H       1  LIG1        0.1662
     24 O          -1.9030    9.7528    0.0364 O.3     1  LIG1       -0.4851
     25 C          -0.5155    9.4066    0.0439 C.3     1  LIG1        0.1236
     26 H           0.0747   10.2990    0.0605 H       1  LIG1        0.1417
     27 H          -0.2990    8.8196    0.9119 H       1  LIG1        0.0731
     28 H          -0.2840    8.8422   -0.8352 H       1  LIG1        0.0731
     29 N          -5.6042   10.4850    0.0304 N.1     1  LIG1       -0.1907
     30 C          -4.8761    9.5993    0.0201 C.1     1  LIG1        0.1051
     31 C          -5.5573    6.7083   -0.0285 C.ar    1  LIG1        0.1535
     32 C          -6.8654    7.1461   -0.0395 C.ar    1  LIG1        0.0031
     33 C          -7.6990    5.9621   -0.0537 C.ar    1  LIG1        0.0900
     34 C          -6.8445    4.8788   -0.0505 C.ar    1  LIG1        0.1100
     35 O          -5.5187    5.3132   -0.0352 O.2     1  LIG1       -0.4601
     36 H          -6.9871    3.5867   -0.0583 H       1  LIG1        0.1043
     37 H          -7.2936    8.3735   -0.0377 H       1  LIG1        0.0669
     38 N         -10.1454    5.9409   -0.0783 N.1     1  LIG1       -0.1908
     39 C          -8.9989    5.9509   -0.0668 C.1     1  LIG1        0.1023
@<TRIPOS>BOND
     1    28    25    1
     2    38    39    3
     3    39    33    1
     4    36    34    1
     5    33    34   ar
     6    33    32   ar
     7    34    35   ar
     8    32    37    1
     9    32    31   ar
    10    35    31   ar
    11    23    22    1
    12    31    21    1
    13    22    21   ar
    14    22    18   ar
    15    21    20   ar
    16    14    13   ar
    17    14    10   ar
    18    13    18    1
    19    13    12   ar
    20    18    19   ar
    21     5     4   ar
    22     5     1   ar
    23    17    16    1
    24    17    12    1
    25    16    26    1
    26    12    11   ar
    27    11    10   ar
    28    11    15    1
    29    10     4    1
    30     4     3   ar
    31     1     6    1
    32     1     2   ar
    33     9     8    1
    34     8     3    1
    35     3     2   ar
    36     2     7    1
    37    20    19   ar
    38    20    30    1
    39    19    24    1
    40    30    29    3
    41    24    25    1
    42    25    27    1
