@<TRIPOS>MOLECULE
mol_data/noopt/geoms/mol2/12af12af12af.out
 26 28 0 0 0
SMALL
GASTEIGER

@<TRIPOS>ATOM
      1 C           0.1763    1.8460    0.0000 C.ar    1  LIG1        0.0964
      2 C           1.5558    1.8460    0.0000 C.ar    1  LIG1        0.0185
      3 C           1.9706    3.2334    0.0000 C.ar    1  LIG1        0.1657
      4 C           0.8165    3.9895   -0.0001 C.ar    1  LIG1        0.2109
      5 O          -0.3030    3.1567   -0.0002 O.2     1  LIG1       -0.4560
      6 H          -0.7504    0.9343    0.0000 H       1  LIG1        0.1031
      7 H           2.3515    0.8179    0.0001 H       1  LIG1        0.0686
      8 O           3.1998    3.6567    0.0000 O.3     1  LIG1       -0.5031
      9 H           3.2081    4.6167    0.0000 H       1  LIG1        0.2923
     10 C           0.5416    5.2601   -0.0001 C.ar    1  LIG1        0.1780
     11 C           1.2792    6.4258   -0.0001 C.ar    1  LIG1        0.0298
     12 C           0.3286    7.5182   -0.0001 C.ar    1  LIG1        0.1665
     13 C          -0.9274    6.9472   -0.0002 C.ar    1  LIG1        0.2119
     14 O          -0.8223    5.5559   -0.0003 O.2     1  LIG1       -0.4447
     15 H           2.5734    6.5485   -0.0000 H       1  LIG1        0.0693
     16 O           0.6282    8.7833   -0.0001 O.3     1  LIG1       -0.5031
     17 H          -0.1786    9.3036   -0.0001 H       1  LIG1        0.2923
     18 C          -2.1481    7.3943   -0.0002 C.ar    1  LIG1        0.1770
     19 C          -2.7387    8.6410   -0.0002 C.ar    1  LIG1        0.0290
     20 C          -4.1701    8.4218   -0.0002 C.ar    1  LIG1        0.1551
     21 C          -4.3593    7.0551   -0.0003 C.ar    1  LIG1        0.1340
     22 O          -3.1273    6.4000   -0.0004 O.2     1  LIG1       -0.4560
     23 H          -5.3898    6.2627   -0.0003 H       1  LIG1        0.1068
     24 H          -2.1504    9.8002   -0.0001 H       1  LIG1        0.0693
     25 O          -5.0790    9.3514   -0.0002 O.3     1  LIG1       -0.5036
     26 H          -5.9500    8.9479   -0.0002 H       1  LIG1        0.2923
@<TRIPOS>BOND
     1    22    21   ar
     2    22    18   ar
     3    23    21    1
     4    21    20   ar
     5    14    13   ar
     6    14    10   ar
     7    26    25    1
     8    25    20    1
     9    20    19   ar
    10    19    18   ar
    11    19    24    1
    12    18    13    1
    13    13    12   ar
    14     5     4   ar
    15     5     1   ar
    16    11    12   ar
    17    11    10   ar
    18    11    15    1
    19    12    16    1
    20    10     4    1
    21    16    17    1
    22     4     3   ar
    23     9     8    1
    24     8     3    1
    25     6     1    1
    26     3     2   ar
    27     2     1   ar
    28     2     7    1
