@<TRIPOS>MOLECULE
mol_data/noopt/geoms/mol2/12af12af-12af.out
 26 28 0 0 0
SMALL
GASTEIGER

@<TRIPOS>ATOM
      1 C           0.1763    1.8460    0.0000 C.ar    1  LIG1        0.0964
      2 C           1.5558    1.8460    0.0000 C.ar    1  LIG1        0.0185
      3 C           1.9706    3.2334    0.0000 C.ar    1  LIG1        0.1657
      4 C           0.8165    3.9895   -0.0001 C.ar    1  LIG1        0.2109
      5 O          -0.3030    3.1567   -0.0002 O.2     1  LIG1       -0.4560
      6 H          -0.7504    0.9343    0.0000 H       1  LIG1        0.1031
      7 H           2.3515    0.8179    0.0001 H       1  LIG1        0.0686
      8 O           3.1998    3.6567    0.0000 O.3     1  LIG1       -0.5031
      9 H           3.2081    4.6167    0.0000 H       1  LIG1        0.2923
     10 C           0.5416    5.2601   -0.0001 C.ar    1  LIG1        0.1780
     11 C          -0.6119    6.0167   -0.0001 C.ar    1  LIG1        0.0298
     12 C          -0.1979    7.4043   -0.0001 C.ar    1  LIG1        0.1665
     13 C           1.1818    7.4036   -0.0002 C.ar    1  LIG1        0.2119
     14 O           1.6612    6.0932   -0.0003 O.2     1  LIG1       -0.4447
     15 H          -1.8411    5.5934   -0.0000 H       1  LIG1        0.0693
     16 O          -0.9936    8.4324   -0.0001 O.3     1  LIG1       -0.5031
     17 H          -1.9053    8.1319   -0.0001 H       1  LIG1        0.2923
     18 C           2.1085    8.3153   -0.0002 C.ar    1  LIG1        0.1770
     19 C           3.4880    8.3153   -0.0001 C.ar    1  LIG1        0.0290
     20 C           3.9028    9.7027   -0.0001 C.ar    1  LIG1        0.1551
     21 C           2.7487   10.4588   -0.0002 C.ar    1  LIG1        0.1340
     22 O           1.6292    9.6260   -0.0003 O.2     1  LIG1       -0.4560
     23 H           2.4738   11.7294   -0.0002 H       1  LIG1        0.1068
     24 H           4.2837    7.2872   -0.0000 H       1  LIG1        0.0693
     25 O           5.1320   10.1260   -0.0001 O.3     1  LIG1       -0.5036
     26 H           5.1403   11.0859   -0.0001 H       1  LIG1        0.2923
@<TRIPOS>BOND
     1    22    21   ar
     2    22    18   ar
     3    14    13   ar
     4    14    10   ar
     5    21    23    1
     6    21    20   ar
     7     5     4   ar
     8     5     1   ar
     9    13    18    1
    10    13    12   ar
    11    18    19   ar
    12    19    20   ar
    13    19    24    1
    14    17    16    1
    15    11    12   ar
    16    11    10   ar
    17    11    15    1
    18    16    12    1
    19    20    25    1
    20    10     4    1
    21     4     3   ar
    22    25    26    1
    23     9     8    1
    24     8     3    1
    25     6     1    1
    26     3     2   ar
    27     2     1   ar
    28     2     7    1
