@<TRIPOS>MOLECULE
mol_data/noopt/geoms/mol2/12af12af-12af12af-.out
 34 37 0 0 0
SMALL
GASTEIGER

@<TRIPOS>ATOM
      1 C           0.1763    1.8460    0.0000 C.ar    1  LIG1        0.0964
      2 C           1.5558    1.8460    0.0000 C.ar    1  LIG1        0.0185
      3 C           1.9706    3.2334    0.0000 C.ar    1  LIG1        0.1657
      4 C           0.8165    3.9895   -0.0001 C.ar    1  LIG1        0.2109
      5 O          -0.3030    3.1567   -0.0002 O.2     1  LIG1       -0.4560
      6 H          -0.7504    0.9343    0.0000 H       1  LIG1        0.1031
      7 H           2.3515    0.8179    0.0001 H       1  LIG1        0.0686
      8 O           3.1998    3.6567    0.0000 O.3     1  LIG1       -0.5031
      9 H           3.2081    4.6167    0.0000 H       1  LIG1        0.2923
     10 C           0.5416    5.2601   -0.0001 C.ar    1  LIG1        0.1780
     11 C          -0.6119    6.0167   -0.0001 C.ar    1  LIG1        0.0298
     12 C          -0.1979    7.4043   -0.0001 C.ar    1  LIG1        0.1665
     13 C           1.1818    7.4036   -0.0002 C.ar    1  LIG1        0.2119
     14 O           1.6612    6.0932   -0.0003 O.2     1  LIG1       -0.4447
     15 H          -1.8411    5.5934   -0.0000 H       1  LIG1        0.0693
     16 O          -0.9936    8.4324   -0.0001 O.3     1  LIG1       -0.5031
     17 H          -1.9053    8.1319   -0.0001 H       1  LIG1        0.2923
     18 C           2.1085    8.3153   -0.0002 C.ar    1  LIG1        0.1780
     19 C           3.4880    8.3153   -0.0001 C.ar    1  LIG1        0.0298
     20 C           3.9028    9.7027   -0.0001 C.ar    1  LIG1        0.1665
     21 C           2.7487   10.4588   -0.0002 C.ar    1  LIG1        0.2119
     22 O           1.6292    9.6260   -0.0003 O.2     1  LIG1       -0.4447
     23 H           4.2837    7.2872   -0.0000 H       1  LIG1        0.0693
     24 O           5.1320   10.1260   -0.0001 O.3     1  LIG1       -0.5031
     25 H           5.1403   11.0859   -0.0001 H       1  LIG1        0.2923
     26 C           2.4738   11.7294   -0.0002 C.ar    1  LIG1        0.1770
     27 C           1.3203   12.4859   -0.0002 C.ar    1  LIG1        0.0290
     28 C           1.7343   13.8736   -0.0002 C.ar    1  LIG1        0.1551
     29 C           3.1141   13.8729   -0.0003 C.ar    1  LIG1        0.1340
     30 O           3.5935   12.5625   -0.0004 O.2     1  LIG1       -0.4560
     31 H           4.0408   14.7846   -0.0002 H       1  LIG1        0.1068
     32 H           0.0911   12.0626   -0.0001 H       1  LIG1        0.0693
     33 O           0.9386   14.9017   -0.0002 O.3     1  LIG1       -0.5036
     34 H           0.0269   14.6012   -0.0002 H       1  LIG1        0.2923
@<TRIPOS>BOND
     1    30    29   ar
     2    30    26   ar
     3    22    21   ar
     4    22    18   ar
     5    14    13   ar
     6    14    10   ar
     7    29    31    1
     8    29    28   ar
     9    21    26    1
    10    21    20   ar
    11    27    26   ar
    12    27    28   ar
    13    27    32    1
    14     5     4   ar
    15     5     1   ar
    16    34    33    1
    17    33    28    1
    18    13    18    1
    19    13    12   ar
    20    18    19   ar
    21    19    20   ar
    22    19    23    1
    23    17    16    1
    24    11    12   ar
    25    11    10   ar
    26    11    15    1
    27    16    12    1
    28    20    24    1
    29     4    10    1
    30     4     3   ar
    31    24    25    1
    32     9     8    1
    33     8     3    1
    34     6     1    1
    35     1     2   ar
    36     3     2   ar
    37     2     7    1
