@<TRIPOS>MOLECULE
mol_data/noopt/geoms/mol2/12af6ea13da4ff.out
 42 45 0 0 0
SMALL
GASTEIGER

@<TRIPOS>ATOM
      1 C           0.1763    1.8460    0.0000 C.ar    1  LIG1        0.0962
      2 C           1.5558    1.8460    0.0000 C.ar    1  LIG1        0.0184
      3 C           1.9706    3.2334    0.0000 C.ar    1  LIG1        0.1627
      4 C           0.8165    3.9895   -0.0001 C.ar    1  LIG1        0.1786
      5 O          -0.3030    3.1567   -0.0002 O.2     1  LIG1       -0.4591
      6 H          -0.7504    0.9343    0.0000 H       1  LIG1        0.1031
      7 H           2.3515    0.8179    0.0001 H       1  LIG1        0.0686
      8 O           3.1998    3.6567    0.0000 O.3     1  LIG1       -0.5032
      9 H           3.2081    4.6167    0.0000 H       1  LIG1        0.2923
     10 C          -0.7953    5.6985    0.0001 C.ar    1  LIG1        0.1246
     11 C           0.5416    5.2601   -0.0001 C.ar    1  LIG1        0.0547
     12 C           1.5573    6.2179    0.0001 C.ar    1  LIG1       -0.0462
     13 C           1.2067    7.5691    0.0002 C.ar    1  LIG1       -0.0335
     14 C          -0.1587    7.9086    0.0001 C.ar    1  LIG1        0.0898
     15 N          -1.1514    6.9977    0.0002 N.ar    1  LIG1       -0.2362
     16 H           2.6135    5.9134   -0.0011 H       1  LIG1        0.0626
     17 C          -1.7757    4.8447    0.0000 C.1     1  LIG1       -0.0491
     18 C          -2.6815    4.0559   -0.0000 C.1     1  LIG1       -0.1124
     19 H          -3.4885    3.3532   -0.0001 H       1  LIG1        0.1232
     20 H           2.1151    8.4991    0.0002 H       1  LIG1        0.0640
     21 C          -0.5350    9.1530    0.0003 C.ar    1  LIG1        0.0830
     22 C           0.1997   10.2966    0.0167 C.ar    1  LIG1        0.0790
     23 C          -0.7188   11.3952    0.0092 C.ar    1  LIG1       -0.0182
     24 C          -1.9744   10.8746   -0.0132 C.ar    1  LIG1        0.0518
     25 N          -1.8665    9.5021   -0.0182 N.ar    1  LIG1       -0.3518
     26 H          -2.6289    8.8646   -0.0335 H       1  LIG1        0.1660
     27 N           2.6416   10.4434    0.0550 N.1     1  LIG1       -0.1908
     28 C           1.4972   10.3746    0.0371 C.1     1  LIG1        0.1013
     29 H          -0.4124   12.6585    0.0211 H       1  LIG1        0.0652
     30 C          -3.2026   12.8734   -0.0346 C.ar    1  LIG1        0.1262
     31 C          -4.4805   13.4650   -0.0486 C.ar    1  LIG1       -0.0161
     32 C          -3.1323   11.4652   -0.0275 C.ar    1  LIG1        0.0432
     33 C          -5.6386   12.6909   -0.0560 C.ar    1  LIG1       -0.0167
     34 H          -4.5575   14.5500   -0.0540 H       1  LIG1        0.0655
     35 C          -4.2882   10.6919   -0.0349 C.ar    1  LIG1       -0.0076
     36 C          -5.5485   11.2984   -0.0493 C.ar    1  LIG1        0.1177
     37 H          -4.2077    9.6079   -0.0292 H       1  LIG1        0.0662
     38 H          -6.8022   13.2703   -0.0690 H       1  LIG1        0.0655
     39 O          -2.1587   13.6482   -0.0285 O.3     1  LIG1       -0.5061
     40 H          -2.4407   14.5658   -0.0270 H       1  LIG1        0.2922
     41 O          -6.6256   10.5703   -0.0559 O.3     1  LIG1       -0.5067
     42 H          -6.3842    9.6412   -0.0576 H       1  LIG1        0.2921
@<TRIPOS>BOND
     1    38    33    1
     2    42    41    1
     3    33    36   ar
     4    33    31   ar
     5    41    36    1
     6    34    31    1
     7    36    35   ar
     8    31    30   ar
     9    35    37    1
    10    35    32   ar
    11    30    39    1
    12    30    32   ar
    13    26    25    1
    14    39    40    1
    15    32    24    1
    16    25    24   ar
    17    25    21   ar
    18    24    23   ar
    19    16    12    1
    20     5     4   ar
    21     5     1   ar
    22    11     4    1
    23    11    10   ar
    24    11    12   ar
    25     4     3   ar
    26    19    18    1
    27    18    17    3
    28     1     2   ar
    29     1     6    1
    30     2     3   ar
    31     2     7    1
    32     3     8    1
    33     8     9    1
    34    17    10    1
    35    10    15   ar
    36    12    13   ar
    37    14    15   ar
    38    14    13   ar
    39    14    21    1
    40    20    13    1
    41    21    22   ar
    42    23    22   ar
    43    23    29    1
    44    22    28    1
    45    28    27    3
