@<TRIPOS>MOLECULE
mol_data/noopt/geoms/mol2/12af13hf(350)4fl(220)13ie(150).out
 49 52 0 0 0
SMALL
GASTEIGER

@<TRIPOS>ATOM
      1 C           0.1763    1.8460    0.0000 C.ar    1  LIG1        0.0963
      2 C           1.5558    1.8460    0.0000 C.ar    1  LIG1        0.0185
      3 C           1.9706    3.2334    0.0000 C.ar    1  LIG1        0.1641
      4 C           0.8165    3.9895   -0.0001 C.ar    1  LIG1        0.1939
      5 O          -0.3030    3.1567   -0.0002 O.2     1  LIG1       -0.4576
      6 H          -0.7504    0.9343    0.0000 H       1  LIG1        0.1031
      7 H           2.3515    0.8179    0.0001 H       1  LIG1        0.0686
      8 O           3.1998    3.6567    0.0000 O.3     1  LIG1       -0.5032
      9 H           3.2081    4.6167    0.0000 H       1  LIG1        0.2923
     10 C           0.5416    5.2601   -0.0001 C.ar    1  LIG1        0.1108
     11 C           1.3531    6.3380   -0.1661 C.ar    1  LIG1        0.0961
     12 C           0.5332    7.5086   -0.0749 C.ar    1  LIG1        0.1637
     13 C          -0.7434    7.0944    0.1410 C.ar    1  LIG1        0.0945
     14 N          -0.7427    5.7186    0.1880 N.ar    1  LIG1       -0.3471
     15 H          -1.5427    5.1469    0.3339 H       1  LIG1        0.1662
     16 N           2.6369    6.3078   -0.3685 N.pl3   1  LIG1       -0.3534
     17 H           2.8734    5.4855   -0.8861 H       1  LIG1        0.1425
     18 H           2.9118    7.1181   -0.8861 H       1  LIG1        0.1425
     19 O           0.9324    8.7414   -0.1794 O.3     1  LIG1       -0.5031
     20 H           0.1698    9.3240   -0.2051 H       1  LIG1        0.2923
     21 C          -3.0033    7.4037   -0.4079 C.ar    1  LIG1        0.1269
     22 C          -4.1629    8.1784   -0.2118 C.ar    1  LIG1       -0.0069
     23 C          -1.8382    7.7790    0.2917 C.ar    1  LIG1        0.0468
     24 C          -4.1648    9.2782    0.6432 C.ar    1  LIG1        0.0437
     25 H          -5.0729    7.9064   -0.7420 H       1  LIG1        0.0662
     26 C          -1.8396    8.8769    1.1453 C.ar    1  LIG1       -0.0066
     27 C          -3.0017    9.6338    1.3272 C.ar    1  LIG1        0.1300
     28 H          -0.9284    9.1463    1.6734 H       1  LIG1        0.0662
     29 O          -3.0633    6.3887   -1.2181 O.3     1  LIG1       -0.5061
     30 H          -2.1747    6.0852   -1.4178 H       1  LIG1        0.2922
     31 O          -2.9970   10.6592    2.1264 O.3     1  LIG1       -0.4944
     32 C          -1.6472   11.0295    2.4197 C.3     1  LIG1        0.0788
     33 H          -1.6438   11.8736    3.0773 H       1  LIG1        0.0660
     34 H          -1.1464   10.2090    2.8899 H       1  LIG1        0.0660
     35 H          -1.1415   11.2829    1.5115 H       1  LIG1        0.0660
     36 C          -5.2533    9.9713    0.8009 C.ar    1  LIG1        0.0542
     37 C          -6.4326    9.6393    1.3900 C.ar    1  LIG1       -0.0097
     38 C          -7.2969   10.7764    1.2873 C.ar    1  LIG1        0.0454
     39 C          -6.6072   11.7538    0.6415 C.ar    1  LIG1        0.0179
     40 N          -5.3558   11.2649    0.3415 N.ar    1  LIG1       -0.3592
     41 H          -4.6396   11.7666   -0.1312 H       1  LIG1        0.1654
     42 H          -6.9619   12.9607    0.3136 H       1  LIG1        0.0819
     43 C          -6.7198    8.4978    1.9426 C.3     1  LIG1       -0.0365
     44 H          -5.8990    8.1795    2.5508 H       1  LIG1        0.0279
     45 H          -6.9031    7.7689    1.1810 H       1  LIG1        0.0279
     46 H          -7.5935    8.6058    2.5507 H       1  LIG1        0.0279
     47 C          -8.5165   10.8622    1.7293 C.1     1  LIG1       -0.0679
     48 C          -9.6434   10.9415    2.1376 C.1     1  LIG1       -0.1139
     49 H         -10.6472   11.0122    2.5014 H       1  LIG1        0.1232
@<TRIPOS>BOND
     1    30    29    1
     2    29    21    1
     3    18    16    1
     4    17    16    1
     5    25    22    1
     6    21    22   ar
     7    21    23   ar
     8    16    11    1
     9    22    24   ar
    10    20    19    1
    11    19    12    1
    12    11    12   ar
    13    11    10   ar
    14    41    40    1
    15    12    13   ar
    16     5     4   ar
    17     5     1   ar
    18    10     4    1
    19    10    14   ar
    20     4     3   ar
    21     1     2   ar
    22     1     6    1
    23     9     8    1
    24     8     3    1
    25     2     3   ar
    26     2     7    1
    27    13    14   ar
    28    13    23    1
    29    14    15    1
    30    23    26   ar
    31    42    39    1
    32    40    39   ar
    33    40    36   ar
    34    39    38   ar
    35    24    36    1
    36    24    27   ar
    37    36    37   ar
    38    26    27   ar
    39    26    28    1
    40    45    43    1
    41    38    37   ar
    42    38    47    1
    43    27    31    1
    44    37    43    1
    45    35    32    1
    46    47    48    3
    47    43    46    1
    48    43    44    1
    49    31    32    1
    50    48    49    1
    51    32    34    1
    52    32    33    1
