@<TRIPOS>MOLECULE
mol_data/noopt/geoms/mol2/12ag12ag12ag12ag-.out
 34 37 0 0 0
SMALL
GASTEIGER

@<TRIPOS>ATOM
      1 C           0.1763    1.8460    0.0000 C.ar    1  LIG1        0.0938
      2 C           1.5558    1.8460    0.0000 C.ar    1  LIG1       -0.0099
      3 C           1.9706    3.2334    0.0000 C.ar    1  LIG1        0.0537
      4 C           0.8165    3.9895   -0.0001 C.ar    1  LIG1        0.1828
      5 O          -0.3030    3.1567   -0.0002 O.2     1  LIG1       -0.4587
      6 H          -0.7504    0.9343    0.0000 H       1  LIG1        0.1030
      7 H           2.3515    0.8179    0.0001 H       1  LIG1        0.0660
      8 S           3.1997    3.6567    0.0000 S.3     1  LIG1       -0.1389
      9 H           3.2111    4.9666    0.0000 H       1  LIG1        0.1072
     10 C           0.5416    5.2601   -0.0001 C.ar    1  LIG1        0.1729
     11 C           1.2791    6.4258    0.0147 C.ar    1  LIG1        0.0012
     12 C           0.3286    7.5182    0.0040 C.ar    1  LIG1        0.0544
     13 C          -0.9273    6.9473   -0.0167 C.ar    1  LIG1        0.1838
     14 O          -0.8221    5.5559   -0.0197 O.2     1  LIG1       -0.4475
     15 H           2.5732    6.5484    0.0345 H       1  LIG1        0.0668
     16 S           0.6281    8.7831    0.0126 S.3     1  LIG1       -0.1389
     17 H          -0.4728    9.4931    0.0155 H       1  LIG1        0.1072
     18 C          -2.1478    7.3944   -0.0335 C.ar    1  LIG1        0.1729
     19 C          -2.7383    8.6411   -0.0462 C.ar    1  LIG1        0.0012
     20 C          -4.1697    8.4219   -0.0626 C.ar    1  LIG1        0.0544
     21 C          -4.3589    7.0552   -0.0589 C.ar    1  LIG1        0.1838
     22 O          -3.1271    6.4001   -0.0412 O.2     1  LIG1       -0.4475
     23 H          -2.1499    9.8003   -0.0441 H       1  LIG1        0.0668
     24 S          -5.0783    9.3515   -0.0777 S.3     1  LIG1       -0.1389
     25 H          -6.2670    8.8009   -0.0828 H       1  LIG1        0.1072
     26 C          -5.3894    6.2628   -0.0679 C.ar    1  LIG1        0.1719
     27 C          -6.7587    6.4303   -0.0747 C.ar    1  LIG1        0.0005
     28 C          -7.3389    5.1036   -0.0834 C.ar    1  LIG1        0.0433
     29 C          -6.2851    4.2130   -0.0815 C.ar    1  LIG1        0.1058
     30 O          -5.0728    4.9036   -0.0721 O.2     1  LIG1       -0.4587
     31 H          -6.1665    2.9184   -0.0863 H       1  LIG1        0.1041
     32 H          -7.4236    7.5474   -0.0735 H       1  LIG1        0.0667
     33 S          -8.6103    4.8327   -0.0916 S.3     1  LIG1       -0.1396
     34 H          -8.7806    3.5338   -0.0943 H       1  LIG1        0.1072
@<TRIPOS>BOND
     1    34    33    1
     2    33    28    1
     3    31    29    1
     4    28    29   ar
     5    28    27   ar
     6    25    24    1
     7    29    30   ar
     8    24    20    1
     9    27    32    1
    10    27    26   ar
    11    30    26   ar
    12    26    21    1
    13    20    21   ar
    14    20    19   ar
    15    21    22   ar
    16    19    23    1
    17    19    18   ar
    18    22    18   ar
    19    18    13    1
    20    14    13   ar
    21    14    10   ar
    22    13    12   ar
    23     5     4   ar
    24     5     1   ar
    25     4    10    1
    26     4     3   ar
    27    10    11   ar
    28     2     1   ar
    29     2     3   ar
    30     2     7    1
    31     1     6    1
    32     3     8    1
    33     8     9    1
    34    12    16    1
    35    12    11   ar
    36    16    17    1
    37    11    15    1
