@<TRIPOS>MOLECULE
mol_data/noopt/geoms/mol2/12ag12ag-12ag-12ag.out
 34 37 0 0 0
SMALL
GASTEIGER

@<TRIPOS>ATOM
      1 C           0.1763    1.8460    0.0000 C.ar    1  LIG1        0.0938
      2 C           1.5558    1.8460    0.0000 C.ar    1  LIG1       -0.0099
      3 C           1.9706    3.2334    0.0000 C.ar    1  LIG1        0.0537
      4 C           0.8165    3.9895   -0.0001 C.ar    1  LIG1        0.1828
      5 O          -0.3030    3.1567   -0.0002 O.2     1  LIG1       -0.4587
      6 H          -0.7504    0.9343    0.0000 H       1  LIG1        0.1030
      7 H           2.3515    0.8179    0.0001 H       1  LIG1        0.0660
      8 S           3.1997    3.6567    0.0000 S.3     1  LIG1       -0.1389
      9 H           3.2111    4.9666    0.0000 H       1  LIG1        0.1072
     10 C           0.5416    5.2601   -0.0001 C.ar    1  LIG1        0.1729
     11 C           1.2792    6.4258   -0.0001 C.ar    1  LIG1        0.0012
     12 C           0.3286    7.5182   -0.0001 C.ar    1  LIG1        0.0544
     13 C          -0.9274    6.9472   -0.0002 C.ar    1  LIG1        0.1838
     14 O          -0.8223    5.5559   -0.0003 O.2     1  LIG1       -0.4475
     15 H           2.5734    6.5485   -0.0000 H       1  LIG1        0.0668
     16 S           0.6282    8.7832   -0.0001 S.3     1  LIG1       -0.1389
     17 H          -0.4727    9.4932   -0.0001 H       1  LIG1        0.1072
     18 C          -2.1481    7.3943   -0.0002 C.ar    1  LIG1        0.1729
     19 C          -2.7388    8.6409    0.0146 C.ar    1  LIG1        0.0012
     20 C          -4.1701    8.4218    0.0039 C.ar    1  LIG1        0.0544
     21 C          -4.3592    7.0552   -0.0168 C.ar    1  LIG1        0.1838
     22 O          -3.1273    6.4001   -0.0198 O.2     1  LIG1       -0.4475
     23 H          -2.1504    9.8000    0.0344 H       1  LIG1        0.0668
     24 S          -5.0789    9.3513    0.0125 S.3     1  LIG1       -0.1389
     25 H          -6.2676    8.8006    0.0154 H       1  LIG1        0.1072
     26 C          -5.3897    6.2629   -0.0336 C.ar    1  LIG1        0.1719
     27 C          -6.7590    6.4303   -0.0315 C.ar    1  LIG1        0.0005
     28 C          -7.3391    5.1038   -0.0586 C.ar    1  LIG1        0.0433
     29 C          -6.2853    4.2134   -0.0755 C.ar    1  LIG1        0.1058
     30 O          -5.0730    4.9040   -0.0607 O.2     1  LIG1       -0.4587
     31 H          -6.1666    2.9191   -0.1013 H       1  LIG1        0.1041
     32 H          -7.4241    7.5471   -0.0097 H       1  LIG1        0.0667
     33 S          -8.6105    4.8329   -0.0652 S.3     1  LIG1       -0.1396
     34 H          -8.7808    3.5340   -0.0674 H       1  LIG1        0.1072
@<TRIPOS>BOND
     1    31    29    1
     2    29    30   ar
     3    29    28   ar
     4    34    33    1
     5    33    28    1
     6    30    26   ar
     7    28    27   ar
     8    26    27   ar
     9    26    21    1
    10    27    32    1
    11    22    21   ar
    12    22    18   ar
    13    21    20   ar
    14    14    13   ar
    15    14    10   ar
    16    18    13    1
    17    18    19   ar
    18    13    12   ar
    19     5     4   ar
    20     5     1   ar
    21    16    17    1
    22    16    12    1
    23     4    10    1
    24     4     3   ar
    25    12    11   ar
    26    11    10   ar
    27    11    15    1
    28     2     3   ar
    29     2     1   ar
    30     2     7    1
    31     3     8    1
    32     6     1    1
    33     8     9    1
    34    20    24    1
    35    20    19   ar
    36    24    25    1
    37    19    23    1
