@<TRIPOS>MOLECULE
mol_data/noopt/geoms/mol2/12ag12ag12ag-.out
 26 28 0 0 0
SMALL
GASTEIGER

@<TRIPOS>ATOM
      1 C           0.1763    1.8460    0.0000 C.ar    1  LIG1        0.0938
      2 C           1.5558    1.8460    0.0000 C.ar    1  LIG1       -0.0099
      3 C           1.9706    3.2334    0.0000 C.ar    1  LIG1        0.0537
      4 C           0.8165    3.9895   -0.0001 C.ar    1  LIG1        0.1828
      5 O          -0.3030    3.1567   -0.0002 O.2     1  LIG1       -0.4587
      6 H          -0.7504    0.9343    0.0000 H       1  LIG1        0.1030
      7 H           2.3515    0.8179    0.0001 H       1  LIG1        0.0660
      8 S           3.1997    3.6567    0.0000 S.3     1  LIG1       -0.1389
      9 H           3.2111    4.9666    0.0000 H       1  LIG1        0.1072
     10 C           0.5416    5.2601   -0.0001 C.ar    1  LIG1        0.1729
     11 C           1.2791    6.4258    0.0147 C.ar    1  LIG1        0.0012
     12 C           0.3286    7.5182    0.0040 C.ar    1  LIG1        0.0544
     13 C          -0.9273    6.9473   -0.0167 C.ar    1  LIG1        0.1838
     14 O          -0.8221    5.5559   -0.0197 O.2     1  LIG1       -0.4475
     15 H           2.5732    6.5484    0.0345 H       1  LIG1        0.0668
     16 S           0.6281    8.7831    0.0126 S.3     1  LIG1       -0.1389
     17 H          -0.4728    9.4931    0.0155 H       1  LIG1        0.1072
     18 C          -2.1478    7.3944   -0.0335 C.ar    1  LIG1        0.1719
     19 C          -2.7386    8.6410   -0.0314 C.ar    1  LIG1        0.0005
     20 C          -4.1697    8.4219   -0.0585 C.ar    1  LIG1        0.0433
     21 C          -4.3586    7.0553   -0.0754 C.ar    1  LIG1        0.1058
     22 O          -3.1268    6.4002   -0.0606 O.2     1  LIG1       -0.4587
     23 H          -5.3889    6.2629   -0.1012 H       1  LIG1        0.1041
     24 H          -2.1504    9.8002   -0.0096 H       1  LIG1        0.0667
     25 S          -5.0785    9.3514   -0.0651 S.3     1  LIG1       -0.1396
     26 H          -6.2671    8.8008   -0.0673 H       1  LIG1        0.1072
@<TRIPOS>BOND
     1    23    21    1
     2    21    22   ar
     3    21    20   ar
     4    26    25    1
     5    25    20    1
     6    22    18   ar
     7    20    19   ar
     8    18    19   ar
     9    18    13    1
    10    19    24    1
    11    14    13   ar
    12    14    10   ar
    13    13    12   ar
    14     5     4   ar
    15     5     1   ar
    16    10     4    1
    17    10    11   ar
    18     4     3   ar
    19     2     3   ar
    20     2     1   ar
    21     2     7    1
    22     3     8    1
    23     6     1    1
    24     8     9    1
    25    12    16    1
    26    12    11   ar
    27    16    17    1
    28    11    15    1
