@<TRIPOS>MOLECULE
mol_data/noopt/geoms/mol2/12ag12ag.out
 18 19 0 0 0
SMALL
GASTEIGER

@<TRIPOS>ATOM
      1 C           0.1763    1.8460    0.0000 C.ar    1  LIG1        0.0938
      2 C           1.5558    1.8460    0.0000 C.ar    1  LIG1       -0.0099
      3 C           1.9706    3.2334    0.0000 C.ar    1  LIG1        0.0537
      4 C           0.8165    3.9895   -0.0001 C.ar    1  LIG1        0.1827
      5 O          -0.3030    3.1567   -0.0002 O.2     1  LIG1       -0.4587
      6 H          -0.7504    0.9343    0.0000 H       1  LIG1        0.1030
      7 H           2.3515    0.8179    0.0001 H       1  LIG1        0.0660
      8 S           3.1997    3.6567    0.0000 S.3     1  LIG1       -0.1389
      9 H           3.2111    4.9666    0.0000 H       1  LIG1        0.1072
     10 C           0.5416    5.2601   -0.0001 C.ar    1  LIG1        0.1718
     11 C           1.2791    6.4258    0.0147 C.ar    1  LIG1        0.0005
     12 C           0.3286    7.5182    0.0040 C.ar    1  LIG1        0.0433
     13 C          -0.9273    6.9473   -0.0167 C.ar    1  LIG1        0.1058
     14 O          -0.8221    5.5559   -0.0197 O.2     1  LIG1       -0.4587
     15 H          -2.1478    7.3944   -0.0335 H       1  LIG1        0.1041
     16 H           2.5732    6.5484    0.0345 H       1  LIG1        0.0667
     17 S           0.6281    8.7831    0.0126 S.3     1  LIG1       -0.1396
     18 H          -0.4728    9.4931    0.0155 H       1  LIG1        0.1072
@<TRIPOS>BOND
     1    15    13    1
     2    14    13   ar
     3    14    10   ar
     4    13    12   ar
     5     5     4   ar
     6     5     1   ar
     7     4    10    1
     8     4     3   ar
     9    10    11   ar
    10     1     6    1
    11     1     2   ar
    12     9     8    1
    13     8     3    1
    14     3     2   ar
    15     2     7    1
    16    12    17    1
    17    12    11   ar
    18    17    18    1
    19    11    16    1
