@<TRIPOS>MOLECULE
mol_data/noopt/geoms/mol2/12ag12ag-12ag12ag.out
 34 37 0 0 0
SMALL
GASTEIGER

@<TRIPOS>ATOM
      1 C           0.1763    1.8460    0.0000 C.ar    1  LIG1        0.0938
      2 C           1.5558    1.8460    0.0000 C.ar    1  LIG1       -0.0099
      3 C           1.9706    3.2334    0.0000 C.ar    1  LIG1        0.0537
      4 C           0.8165    3.9895   -0.0001 C.ar    1  LIG1        0.1828
      5 O          -0.3030    3.1567   -0.0002 O.2     1  LIG1       -0.4587
      6 H          -0.7504    0.9343    0.0000 H       1  LIG1        0.1030
      7 H           2.3515    0.8179    0.0001 H       1  LIG1        0.0660
      8 S           3.1997    3.6567    0.0000 S.3     1  LIG1       -0.1389
      9 H           3.2111    4.9666    0.0000 H       1  LIG1        0.1072
     10 C           0.5416    5.2601   -0.0001 C.ar    1  LIG1        0.1729
     11 C           1.2792    6.4258   -0.0001 C.ar    1  LIG1        0.0012
     12 C           0.3286    7.5182   -0.0001 C.ar    1  LIG1        0.0544
     13 C          -0.9274    6.9472   -0.0002 C.ar    1  LIG1        0.1838
     14 O          -0.8223    5.5559   -0.0003 O.2     1  LIG1       -0.4475
     15 H           2.5734    6.5485   -0.0000 H       1  LIG1        0.0668
     16 S           0.6282    8.7832   -0.0001 S.3     1  LIG1       -0.1389
     17 H          -0.4727    9.4932   -0.0001 H       1  LIG1        0.1072
     18 C          -2.1481    7.3943   -0.0002 C.ar    1  LIG1        0.1729
     19 C          -2.7387    8.6410   -0.0002 C.ar    1  LIG1        0.0012
     20 C          -4.1701    8.4218   -0.0002 C.ar    1  LIG1        0.0544
     21 C          -4.3593    7.0551   -0.0003 C.ar    1  LIG1        0.1838
     22 O          -3.1273    6.4000   -0.0004 O.2     1  LIG1       -0.4475
     23 H          -2.1504    9.8002   -0.0001 H       1  LIG1        0.0668
     24 S          -5.0789    9.3513   -0.0002 S.3     1  LIG1       -0.1389
     25 H          -6.2676    8.8007   -0.0002 H       1  LIG1        0.1072
     26 C          -5.3898    6.2627   -0.0003 C.ar    1  LIG1        0.1719
     27 C          -6.7590    6.4301    0.0145 C.ar    1  LIG1        0.0005
     28 C          -7.3393    5.1034    0.0038 C.ar    1  LIG1        0.0433
     29 C          -6.2856    4.2129   -0.0169 C.ar    1  LIG1        0.1058
     30 O          -5.0733    4.9036   -0.0199 O.2     1  LIG1       -0.4587
     31 H          -6.1671    2.9184   -0.0337 H       1  LIG1        0.1041
     32 H          -7.4239    7.5470    0.0343 H       1  LIG1        0.0667
     33 S          -8.6106    4.8324    0.0124 S.3     1  LIG1       -0.1396
     34 H          -8.7809    3.5335    0.0153 H       1  LIG1        0.1072
@<TRIPOS>BOND
     1    31    29    1
     2    30    29   ar
     3    30    26   ar
     4    29    28   ar
     5    22    21   ar
     6    22    18   ar
     7    26    21    1
     8    26    27   ar
     9    21    20   ar
    10    14    13   ar
    11    14    10   ar
    12     5     4   ar
    13     5     1   ar
    14    25    24    1
    15    24    20    1
    16    20    19   ar
    17    19    18   ar
    18    19    23    1
    19    13    18    1
    20    13    12   ar
    21    12    16    1
    22    12    11   ar
    23    17    16    1
    24    11    10   ar
    25    11    15    1
    26    10     4    1
    27     4     3   ar
    28     1     6    1
    29     1     2   ar
    30     9     8    1
    31     8     3    1
    32     3     2   ar
    33     2     7    1
    34    28    33    1
    35    28    27   ar
    36    33    34    1
    37    27    32    1
