@<TRIPOS>MOLECULE
mol_data/noopt/geoms/mol2/12ag12ag-.out
 18 19 0 0 0
SMALL
GASTEIGER

@<TRIPOS>ATOM
      1 C           0.1763    1.8460    0.0000 C.ar    1  LIG1        0.0938
      2 C           1.5558    1.8460    0.0000 C.ar    1  LIG1       -0.0099
      3 C           1.9706    3.2334    0.0000 C.ar    1  LIG1        0.0537
      4 C           0.8165    3.9895   -0.0001 C.ar    1  LIG1        0.1827
      5 O          -0.3030    3.1567   -0.0002 O.2     1  LIG1       -0.4587
      6 H          -0.7504    0.9343    0.0000 H       1  LIG1        0.1030
      7 H           2.3515    0.8179    0.0001 H       1  LIG1        0.0660
      8 S           3.1997    3.6567    0.0000 S.3     1  LIG1       -0.1389
      9 H           3.2111    4.9666    0.0000 H       1  LIG1        0.1072
     10 C           0.5416    5.2601   -0.0001 C.ar    1  LIG1        0.1718
     11 C           1.2792    6.4258   -0.0001 C.ar    1  LIG1        0.0005
     12 C           0.3286    7.5182   -0.0001 C.ar    1  LIG1        0.0433
     13 C          -0.9274    6.9472   -0.0002 C.ar    1  LIG1        0.1058
     14 O          -0.8223    5.5559   -0.0003 O.2     1  LIG1       -0.4587
     15 H          -2.1481    7.3943   -0.0002 H       1  LIG1        0.1041
     16 H           2.5734    6.5485   -0.0000 H       1  LIG1        0.0667
     17 S           0.6282    8.7832   -0.0001 S.3     1  LIG1       -0.1396
     18 H          -0.4727    9.4932   -0.0001 H       1  LIG1        0.1072
@<TRIPOS>BOND
     1    14    13   ar
     2    14    10   ar
     3    15    13    1
     4     5     4   ar
     5     5     1   ar
     6    13    12   ar
     7    10    11   ar
     8    10     4    1
     9    18    17    1
    10    17    12    1
    11    12    11   ar
    12    11    16    1
    13     4     3   ar
    14     1     6    1
    15     1     2   ar
    16     9     8    1
    17     8     3    1
    18     3     2   ar
    19     2     7    1
