@<TRIPOS>MOLECULE
mol_data/noopt/geoms/mol2/12ah13df(10)12af(310)13fi.out
 41 44 0 0 0
SMALL
GASTEIGER

@<TRIPOS>ATOM
      1 C           0.1763    1.8460    0.0000 C.ar    1  LIG1        0.0945
      2 C           1.5558    1.8460    0.0000 C.ar    1  LIG1       -0.0025
      3 C           1.9706    3.2334    0.0000 C.ar    1  LIG1        0.0724
      4 C           0.8165    3.9895   -0.0001 C.ar    1  LIG1        0.1727
      5 O          -0.3030    3.1567   -0.0002 O.2     1  LIG1       -0.4595
      6 H          -0.7504    0.9343    0.0000 H       1  LIG1        0.1030
      7 H           2.3515    0.8179    0.0001 H       1  LIG1        0.0668
      8 N           3.1998    3.6567   -0.0000 N.pl3   1  LIG1       -0.3550
      9 H           3.7808    2.9932   -0.4714 H       1  LIG1        0.1424
     10 H           3.2491    4.5372   -0.4714 H       1  LIG1        0.1424
     11 C           0.5416    5.2601   -0.0001 C.ar    1  LIG1        0.1057
     12 C           1.3532    6.3381    0.1652 C.ar    1  LIG1        0.1221
     13 C           0.5329    7.5085    0.0766 C.ar    1  LIG1        0.1632
     14 C          -0.7435    7.0944   -0.1406 C.ar    1  LIG1        0.1260
     15 N          -0.7428    5.7186   -0.1878 N.ar    1  LIG1       -0.3453
     16 H          -1.5426    5.1470   -0.3348 H       1  LIG1        0.1662
     17 N           3.7692    6.2812    0.5465 N.1     1  LIG1       -0.1907
     18 C           2.6369    6.3079    0.3678 C.1     1  LIG1        0.1051
     19 O           0.9317    8.7413    0.1833 O.3     1  LIG1       -0.5034
     20 H           0.1690    9.3237    0.2096 H       1  LIG1        0.2923
     21 C          -1.8385    7.7790   -0.2902 C.ar    1  LIG1        0.1591
     22 C          -2.2439    8.8217   -1.0974 C.ar    1  LIG1        0.0281
     23 C          -3.6177    9.1110   -0.7425 C.ar    1  LIG1        0.1649
     24 C          -3.9608    8.2255    0.2583 C.ar    1  LIG1        0.1965
     25 O          -2.8804    7.3937    0.5546 O.2     1  LIG1       -0.4478
     26 H          -1.5500    9.4410   -2.0056 H       1  LIG1        0.0693
     27 O          -4.3608   10.0327   -1.2795 O.3     1  LIG1       -0.5031
     28 H          -5.2485    9.6919   -1.4118 H       1  LIG1        0.2923
     29 C          -5.0266    7.9956    0.9664 C.ar    1  LIG1        0.1280
     30 C          -5.9591    8.8525    1.4603 C.ar    1  LIG1        0.1480
     31 C          -6.9249    8.0701    2.1714 C.ar    1  LIG1        0.0090
     32 C          -6.5410    6.7692    2.0793 C.ar    1  LIG1        0.0087
     33 N          -5.3791    6.7191    1.3427 N.ar    1  LIG1       -0.3550
     34 H          -4.8750    5.8925    1.1177 H       1  LIG1        0.1655
     35 H          -7.0894    5.6920    2.5576 H       1  LIG1        0.0811
     36 O          -5.9681   10.1442    1.3135 O.3     1  LIG1       -0.5043
     37 H          -6.8753   10.4562    1.2773 H       1  LIG1        0.2922
     38 C          -7.9764    8.5176    2.7917 C.3     1  LIG1       -0.0348
     39 H          -8.3856    7.7422    3.4052 H       1  LIG1        0.0279
     40 H          -8.7078    8.8287    2.0752 H       1  LIG1        0.0279
     41 H          -7.7014    9.3500    3.4051 H       1  LIG1        0.0279
@<TRIPOS>BOND
     1    26    22    1
     2    28    27    1
     3    27    23    1
     4    22    23   ar
     5    22    21   ar
     6    23    24   ar
     7    10     8    1
     8     9     8    1
     9    16    15    1
    10    21    14    1
    11    21    25   ar
    12    15    14   ar
    13    15    11   ar
    14    14    13   ar
    15     5     4   ar
    16     5     1   ar
    17     4    11    1
    18     4     3   ar
    19    11    12   ar
    20     1     6    1
    21     1     2   ar
    22     8     3    1
    23     3     2   ar
    24     2     7    1
    25    13    12   ar
    26    13    19    1
    27    12    18    1
    28    19    20    1
    29    24    25   ar
    30    24    29    1
    31    18    17    3
    32    29    33   ar
    33    29    30   ar
    34    34    33    1
    35    37    36    1
    36    36    30    1
    37    33    32   ar
    38    30    31   ar
    39    40    38    1
    40    32    31   ar
    41    32    35    1
    42    31    38    1
    43    38    41    1
    44    38    39    1
