@<TRIPOS>MOLECULE
mol_data/noopt/geoms/mol2/12ah12ad(350)13il(340)4da(30).out
 45 48 0 0 0
SMALL
GASTEIGER

@<TRIPOS>ATOM
      1 C           0.1763    1.8460    0.0000 C.ar    1  LIG1        0.0946
      2 C           1.5558    1.8460    0.0000 C.ar    1  LIG1       -0.0024
      3 C           1.9706    3.2334    0.0000 C.ar    1  LIG1        0.0740
      4 C           0.8165    3.9895   -0.0001 C.ar    1  LIG1        0.1902
      5 O          -0.3030    3.1567   -0.0002 O.2     1  LIG1       -0.4579
      6 H          -0.7504    0.9343    0.0000 H       1  LIG1        0.1030
      7 H           2.3515    0.8179    0.0001 H       1  LIG1        0.0668
      8 N           3.1998    3.6567   -0.0000 N.pl3   1  LIG1       -0.3550
      9 H           3.7808    2.9932   -0.4714 H       1  LIG1        0.1424
     10 H           3.2491    4.5372   -0.4714 H       1  LIG1        0.1424
     11 C           0.5416    5.2601   -0.0001 C.ar    1  LIG1        0.1737
     12 C           1.2682    6.4234   -0.1478 C.ar    1  LIG1        0.0054
     13 C           0.3256    7.5175   -0.0412 C.ar    1  LIG1        0.0996
     14 C          -0.9151    6.9499    0.1645 C.ar    1  LIG1        0.1696
     15 O          -0.8077    5.5591    0.1936 O.2     1  LIG1       -0.4489
     16 H           2.5476    6.5429   -0.3447 H       1  LIG1        0.0670
     17 N           0.8772    9.8957   -0.2022 N.1     1  LIG1       -0.1907
     18 C           0.6187    8.7812   -0.1267 C.1     1  LIG1        0.1030
     19 C          -2.1232    7.3997    0.3322 C.ar    1  LIG1        0.0904
     20 C          -2.6403    8.6389    0.1199 C.ar    1  LIG1        0.0202
     21 C          -4.0285    8.5883    0.4678 C.ar    1  LIG1        0.1488
     22 C          -4.2990    7.3201    0.8757 C.ar    1  LIG1        0.0907
     23 N          -3.1352    6.5892    0.7947 N.ar    1  LIG1       -0.3485
     24 H          -3.0408    5.6285    1.0319 H       1  LIG1        0.1661
     25 C          -1.9905    9.6769   -0.3172 C.3     1  LIG1       -0.0341
     26 H          -2.4628   10.5689    0.0380 H       1  LIG1        0.0279
     27 H          -1.9922    9.6743   -1.3872 H       1  LIG1        0.0279
     28 H          -0.9818    9.6418    0.0380 H       1  LIG1        0.0279
     29 O          -4.8768    9.5715    0.4058 O.3     1  LIG1       -0.4927
     30 C          -4.1676   10.8131    0.3830 C.3     1  LIG1        0.0789
     31 H          -4.8661   11.6220    0.3319 H       1  LIG1        0.0660
     32 H          -3.5802   10.9048    1.2728 H       1  LIG1        0.0660
     33 H          -3.5257   10.8415   -0.4725 H       1  LIG1        0.0660
     34 C          -6.2946    7.5342    2.0905 C.ar    1  LIG1        0.0610
     35 C          -7.4842    6.9093    2.5122 C.ar    1  LIG1       -0.0437
     36 C          -5.4100    6.7854    1.2876 C.ar    1  LIG1        0.0192
     37 C          -7.7821    5.5973    2.1511 C.ar    1  LIG1       -0.0605
     38 H          -8.1807    7.4689    3.1325 H       1  LIG1        0.0631
     39 C          -5.7070    5.4755    0.9269 C.ar    1  LIG1       -0.0513
     40 C          -6.8940    4.8724    1.3554 C.ar    1  LIG1       -0.0611
     41 H          -5.0086    4.9190    0.3071 H       1  LIG1        0.0624
     42 H          -8.8896    5.0514    2.5581 H       1  LIG1        0.0618
     43 N          -5.8758    9.8425    2.7848 N.1     1  LIG1       -0.1908
     44 C          -6.0721    8.7607    2.4594 C.1     1  LIG1        0.0998
     45 H          -7.1662    3.6476    1.0152 H       1  LIG1        0.0618
@<TRIPOS>BOND
     1    27    25    1
     2    33    30    1
     3    10     8    1
     4     9     8    1
     5    16    12    1
     6    25    28    1
     7    25    26    1
     8    25    20    1
     9    17    18    3
    10    12    13   ar
    11    12    11   ar
    12    18    13    1
    13    13    14   ar
    14     5     4   ar
    15     5     1   ar
    16     4    11    1
    17     4     3   ar
    18    11    15   ar
    19     1     6    1
    20     1     2   ar
    21     8     3    1
    22     3     2   ar
    23     2     7    1
    24    20    19   ar
    25    20    21   ar
    26    14    15   ar
    27    14    19    1
    28    41    39    1
    29    31    30    1
    30    19    23   ar
    31    30    29    1
    32    30    32    1
    33    29    21    1
    34    21    22   ar
    35    23    22   ar
    36    23    24    1
    37    22    36    1
    38    39    36   ar
    39    39    40   ar
    40    45    40    1
    41    36    34   ar
    42    40    37   ar
    43    34    44    1
    44    34    35   ar
    45    37    35   ar
    46    37    42    1
    47    44    43    3
    48    35    38    1
