@<TRIPOS>MOLECULE
mol_data/noopt/geoms/mol2/12ah12hl12if-12fi-.out
 46 49 0 0 0
SMALL
GASTEIGER

@<TRIPOS>ATOM
      1 C           0.1763    1.8460    0.0000 C.ar    1  LIG1        0.0946
      2 C           1.5558    1.8460    0.0000 C.ar    1  LIG1       -0.0024
      3 C           1.9706    3.2334    0.0000 C.ar    1  LIG1        0.0741
      4 C           0.8165    3.9895   -0.0001 C.ar    1  LIG1        0.1921
      5 O          -0.3030    3.1567   -0.0002 O.2     1  LIG1       -0.4579
      6 H          -0.7504    0.9343    0.0000 H       1  LIG1        0.1030
      7 H           2.3515    0.8179    0.0001 H       1  LIG1        0.0668
      8 N           3.1998    3.6567   -0.0000 N.pl3   1  LIG1       -0.3550
      9 H           3.7808    2.9932   -0.4714 H       1  LIG1        0.1424
     10 H           3.2491    4.5372   -0.4714 H       1  LIG1        0.1424
     11 C           0.5416    5.2601   -0.0001 C.ar    1  LIG1        0.1968
     12 C           1.2791    6.4258    0.0147 C.ar    1  LIG1        0.1172
     13 C           0.3286    7.5182    0.0040 C.ar    1  LIG1        0.1902
     14 C          -0.9273    6.9473   -0.0167 C.ar    1  LIG1        0.2143
     15 O          -0.8221    5.5559   -0.0197 O.2     1  LIG1       -0.4428
     16 N           2.5732    6.5484    0.0345 N.pl3   1  LIG1       -0.3521
     17 H           2.9892    5.7677   -0.4317 H       1  LIG1        0.1425
     18 H           2.8351    7.3933   -0.4318 H       1  LIG1        0.1425
     19 O           0.6281    8.7832    0.0126 O.3     1  LIG1       -0.4896
     20 C           2.0498    8.9371    0.0157 C.3     1  LIG1        0.0791
     21 H           2.2959    9.9784    0.0225 H       1  LIG1        0.0660
     22 H           2.4574    8.4686    0.8870 H       1  LIG1        0.0660
     23 H           2.4600    8.4795   -0.8602 H       1  LIG1        0.0660
     24 C          -2.1478    7.3944   -0.0335 C.ar    1  LIG1        0.1810
     25 C          -2.7386    8.6410   -0.0314 C.ar    1  LIG1        0.0407
     26 C          -4.1697    8.4219   -0.0585 C.ar    1  LIG1        0.1696
     27 C          -4.3586    7.0553   -0.0754 C.ar    1  LIG1        0.2157
     28 O          -3.1268    6.4002   -0.0606 O.2     1  LIG1       -0.4443
     29 C          -2.1503    9.8004   -0.0096 C.3     1  LIG1       -0.0325
     30 H          -2.7718   10.5062    0.5008 H       1  LIG1        0.0280
     31 H          -1.9813   10.1336   -1.0123 H       1  LIG1        0.0280
     32 H          -1.2136    9.7156    0.5007 H       1  LIG1        0.0280
     33 O          -5.0785    9.3515   -0.0651 O.3     1  LIG1       -0.5029
     34 H          -5.9496    8.9480   -0.0667 H       1  LIG1        0.2923
     35 C          -5.3889    6.2629   -0.1012 C.ar    1  LIG1        0.2147
     36 C          -6.7581    6.4304   -0.1207 C.ar    1  LIG1        0.1688
     37 C          -7.3380    5.1038   -0.1458 C.ar    1  LIG1        0.0295
     38 C          -6.2842    4.2132   -0.1401 C.ar    1  LIG1        0.0993
     39 O          -5.0721    4.9038   -0.1128 O.2     1  LIG1       -0.4556
     40 H          -6.1654    2.9187   -0.1539 H       1  LIG1        0.1033
     41 O          -7.4232    7.5475   -0.1175 O.3     1  LIG1       -0.5030
     42 H          -8.3647    7.3598   -0.1168 H       1  LIG1        0.2923
     43 C          -8.6095    4.8328   -0.1691 C.3     1  LIG1       -0.0332
     44 H          -8.7851    3.9022    0.3289 H       1  LIG1        0.0280
     45 H          -8.9407    4.7622   -1.1842 H       1  LIG1        0.0280
     46 H          -9.1492    5.6111    0.3288 H       1  LIG1        0.0280
@<TRIPOS>BOND
     1    45    43    1
     2    31    29    1
     3    23    20    1
     4    10     8    1
     5     9     8    1
     6    18    16    1
     7    17    16    1
     8    43    37    1
     9    43    46    1
    10    43    44    1
    11    40    38    1
    12    37    38   ar
    13    37    36   ar
    14    38    39   ar
    15    36    41    1
    16    36    35   ar
    17    41    42    1
    18    39    35   ar
    19    35    27    1
    20    27    28   ar
    21    27    26   ar
    22    34    33    1
    23    33    26    1
    24    28    24   ar
    25    26    25   ar
    26    24    25   ar
    27    24    14    1
    28    25    29    1
    29    15    14   ar
    30    15    11   ar
    31    14    13   ar
    32    29    32    1
    33    29    30    1
    34     5     4   ar
    35     5     1   ar
    36    11     4    1
    37    11    12   ar
    38     4     3   ar
    39     1     6    1
    40     1     2   ar
    41     8     3    1
    42     3     2   ar
    43     2     7    1
    44    13    19    1
    45    13    12   ar
    46    19    20    1
    47    12    16    1
    48    20    21    1
    49    20    22    1
