@<TRIPOS>MOLECULE
mol_data/noopt/geoms/mol2/12ah4el(90)6de(330)13eh(290).out
 51 54 0 0 0
SMALL
GASTEIGER

@<TRIPOS>ATOM
      1 C           0.1763    1.8460    0.0000 C.ar    1  LIG1        0.0944
      2 C           1.5558    1.8460    0.0000 C.ar    1  LIG1       -0.0025
      3 C           1.9706    3.2334    0.0000 C.ar    1  LIG1        0.0710
      4 C           0.8165    3.9895   -0.0001 C.ar    1  LIG1        0.1566
      5 O          -0.3030    3.1567   -0.0002 O.2     1  LIG1       -0.4610
      6 H          -0.7504    0.9343    0.0000 H       1  LIG1        0.1030
      7 H           2.3515    0.8179    0.0001 H       1  LIG1        0.0668
      8 N           3.1998    3.6567   -0.0000 N.pl3   1  LIG1       -0.3550
      9 H           3.7808    2.9932   -0.4714 H       1  LIG1        0.1424
     10 H           3.2491    4.5372   -0.4714 H       1  LIG1        0.1424
     11 C           0.3923    5.9465    1.2223 C.ar    1  LIG1        0.0362
     12 C           0.0933    7.3216    1.1687 C.ar    1  LIG1       -0.0343
     13 C           0.5416    5.2600   -0.0001 C.ar    1  LIG1        0.0379
     14 C          -0.0506    7.9861   -0.0472 C.ar    1  LIG1        0.0277
     15 H          -0.0263    7.8704    2.1002 H       1  LIG1        0.0637
     16 C           0.3980    5.9229   -1.2142 C.ar    1  LIG1       -0.0074
     17 C           0.1013    7.2895   -1.2467 C.ar    1  LIG1        0.1286
     18 H           0.5179    5.3715   -2.1433 H       1  LIG1        0.0662
     19 C           0.5149    5.3818    2.3869 C.1     1  LIG1       -0.0689
     20 C           0.6281    4.8600    3.4629 C.1     1  LIG1       -0.1139
     21 H           0.7289    4.3952    4.4214 H       1  LIG1        0.1232
     22 O          -0.0320    7.9038   -2.3846 O.3     1  LIG1       -0.4945
     23 C           1.2365    8.4149   -2.8024 C.3     1  LIG1        0.0788
     24 H           1.1265    8.9203   -3.7391 H       1  LIG1        0.0660
     25 H           1.6041    9.1009   -2.0681 H       1  LIG1        0.0660
     26 H           1.9282    7.6061   -2.9127 H       1  LIG1        0.0660
     27 C          -1.5066    9.7336    0.5400 C.ar    1  LIG1        0.1486
     28 C          -0.3268    9.2563   -0.0598 C.ar    1  LIG1        0.0227
     29 C           0.5330   10.1755   -0.6638 C.ar    1  LIG1       -0.0337
     30 C           0.1885   11.5282   -0.6488 C.ar    1  LIG1        0.0527
     31 C          -1.0134   11.9082   -0.0240 C.ar    1  LIG1        0.1052
     32 N          -1.8544   11.0349    0.5637 N.ar    1  LIG1       -0.2330
     33 H           1.4634    9.8399   -1.1433 H       1  LIG1        0.0637
     34 N          -3.0722    8.1962    1.6221 N.1     1  LIG1       -0.1893
     35 C          -2.3385    8.9167    1.1150 C.1     1  LIG1        0.1197
     36 C           0.9553   12.4231   -1.1976 C.1     1  LIG1       -0.0675
     37 C           1.6638   13.2500   -1.7048 C.1     1  LIG1       -0.1138
     38 H           2.2950   13.9865   -2.1565 H       1  LIG1        0.1232
     39 C          -1.3773   13.1556    0.0159 C.ar    1  LIG1        0.0836
     40 C          -1.2676   14.1367   -0.9186 C.ar    1  LIG1        0.0720
     41 C          -1.8289   15.3279   -0.3561 C.ar    1  LIG1        0.0584
     42 C          -2.2585   15.0220    0.8969 C.ar    1  LIG1        0.0243
     43 N          -1.9836   13.6931    1.1289 N.ar    1  LIG1       -0.3568
     44 H          -2.1905   13.2000    1.9667 H       1  LIG1        0.1655
     45 H          -2.8336   15.7641    1.7961 H       1  LIG1        0.0826
     46 C          -0.7469   14.0128   -2.1033 C.1     1  LIG1       -0.0656
     47 C          -0.2658   13.8984   -3.1980 C.1     1  LIG1       -0.1138
     48 H           0.1628   13.7964   -4.1731 H       1  LIG1        0.1232
     49 N          -1.9141   16.4893   -0.9339 N.pl3   1  LIG1       -0.3559
     50 H          -1.1063   16.6379   -1.5043 H       1  LIG1        0.1424
     51 H          -2.7349   16.5184   -1.5044 H       1  LIG1        0.1424
@<TRIPOS>BOND
     1    48    47    1
     2    24    23    1
     3    47    46    3
     4    26    23    1
     5    23    22    1
     6    23    25    1
     7    22    17    1
     8    38    37    1
     9    18    16    1
    10    46    40    1
    11    37    36    3
    12    51    49    1
    13    50    49    1
    14    17    16   ar
    15    17    14   ar
    16    16    13   ar
    17    36    30    1
    18    33    29    1
    19    49    41    1
    20    40    41   ar
    21    40    39   ar
    22    29    30   ar
    23    29    28   ar
    24    30    31   ar
    25    10     8    1
    26     9     8    1
    27    41    42   ar
    28    28    14    1
    29    28    27   ar
    30    14    12   ar
    31    31    39    1
    32    31    32   ar
    33     5     4   ar
    34     5     1   ar
    35     4    13    1
    36     4     3   ar
    37    13    11   ar
    38     1     2   ar
    39     1     6    1
    40     3     2   ar
    41     3     8    1
    42     2     7    1
    43    39    43   ar
    44    27    32   ar
    45    27    35    1
    46    42    43   ar
    47    42    45    1
    48    35    34    3
    49    43    44    1
    50    12    11   ar
    51    12    15    1
    52    11    19    1
    53    19    20    3
    54    20    21    1
