@<TRIPOS>MOLECULE
mol_data/noopt/geoms/mol2/12ah12he-6ah13aa.out
 41 44 0 0 0
SMALL
GASTEIGER

@<TRIPOS>ATOM
      1 C           0.1763    1.8460    0.0000 C.ar    1  LIG1        0.0946
      2 C           1.5558    1.8460    0.0000 C.ar    1  LIG1       -0.0024
      3 C           1.9706    3.2334    0.0000 C.ar    1  LIG1        0.0741
      4 C           0.8165    3.9895   -0.0001 C.ar    1  LIG1        0.1920
      5 O          -0.3030    3.1567   -0.0002 O.2     1  LIG1       -0.4579
      6 H          -0.7504    0.9343    0.0000 H       1  LIG1        0.1030
      7 H           2.3515    0.8179    0.0001 H       1  LIG1        0.0668
      8 N           3.1998    3.6567   -0.0000 N.pl3   1  LIG1       -0.3550
      9 H           3.7808    2.9932   -0.4714 H       1  LIG1        0.1424
     10 H           3.2491    4.5372   -0.4714 H       1  LIG1        0.1424
     11 C           0.5416    5.2601   -0.0001 C.ar    1  LIG1        0.1941
     12 C           1.2792    6.4258   -0.0001 C.ar    1  LIG1        0.0904
     13 C           0.3286    7.5182   -0.0001 C.ar    1  LIG1        0.0918
     14 C          -0.9274    6.9472   -0.0002 C.ar    1  LIG1        0.1545
     15 O          -0.8223    5.5559   -0.0003 O.2     1  LIG1       -0.4484
     16 N           2.5735    6.5485   -0.0000 N.pl3   1  LIG1       -0.3540
     17 H           2.9823    5.7671   -0.4714 H       1  LIG1        0.1425
     18 H           2.8283    7.3927   -0.4714 H       1  LIG1        0.1425
     19 C           0.6282    8.7832   -0.0001 C.1     1  LIG1       -0.0640
     20 C           0.9050    9.9521   -0.0001 C.1     1  LIG1       -0.1137
     21 H           1.1515   10.9933   -0.0001 H       1  LIG1        0.1232
     22 C          -3.2334    6.4990   -0.0000 C.ar    1  LIG1        0.0391
     23 C          -2.1481    7.3943   -0.0002 C.ar    1  LIG1        0.0384
     24 C          -2.4144    8.7648   -0.0000 C.ar    1  LIG1       -0.0267
     25 C          -3.7436    9.1911    0.0001 C.ar    1  LIG1        0.0530
     26 C          -4.7606    8.2188    0.0000 C.ar    1  LIG1        0.1076
     27 N          -4.5217    6.8928    0.0001 N.ar    1  LIG1       -0.2510
     28 H          -1.5923    9.4945   -0.0012 H       1  LIG1        0.0644
     29 H          -3.0362    5.2141   -0.0001 H       1  LIG1        0.0837
     30 N          -4.0438   10.4560    0.0001 N.pl3   1  LIG1       -0.3563
     31 H          -3.3263   10.9688   -0.4714 H       1  LIG1        0.1424
     32 H          -4.9151   10.5918   -0.4714 H       1  LIG1        0.1424
     33 C          -6.0134    8.5661    0.0002 C.ar    1  LIG1        0.0667
     34 C          -6.5869    9.7986    0.0000 C.ar    1  LIG1       -0.0349
     35 C          -8.0064    9.6098    0.0015 C.ar    1  LIG1       -0.0438
     36 C          -8.2379    8.2702    0.0008 C.ar    1  LIG1        0.0022
     37 N          -7.0204    7.6276    0.0005 N.ar    1  LIG1       -0.3594
     38 H          -6.8894    6.6422   -0.0001 H       1  LIG1        0.1654
     39 H          -9.3562    7.6075    0.0015 H       1  LIG1        0.0807
     40 H          -5.9589   10.9369    0.0000 H       1  LIG1        0.0639
     41 H          -8.9100   10.5444    0.0028 H       1  LIG1        0.0633
@<TRIPOS>BOND
     1    10     8    1
     2    18    16    1
     3     9     8    1
     4    32    30    1
     5    17    16    1
     6    31    30    1
     7    28    24    1
     8    15    14   ar
     9    15    11   ar
    10    23    14    1
    11    23    22   ar
    12    23    24   ar
    13     5     4   ar
    14     5     1   ar
    15    14    13   ar
    16    12    13   ar
    17    12    11   ar
    18    12    16    1
    19    21    20    1
    20    20    19    3
    21    19    13    1
    22    11     4    1
    23     4     3   ar
    24    38    37    1
    25    29    22    1
    26    22    27   ar
    27    24    25   ar
    28     1     6    1
    29     1     2   ar
    30     8     3    1
    31     3     2   ar
    32     2     7    1
    33    34    40    1
    34    34    33   ar
    35    34    35   ar
    36    26    27   ar
    37    26    25   ar
    38    26    33    1
    39    30    25    1
    40    33    37   ar
    41    37    36   ar
    42    36    35   ar
    43    36    39    1
    44    35    41    1
