@<TRIPOS>MOLECULE
mol_data/noopt/geoms/mol2/12ai12ai-12ai-12ai.out
 42 45 0 0 0
SMALL
GASTEIGER

@<TRIPOS>ATOM
      1 C           0.1763    1.8460    0.0000 C.ar    1  LIG1        0.0930
      2 C           1.5558    1.8460    0.0000 C.ar    1  LIG1       -0.0203
      3 C           1.9706    3.2334    0.0000 C.ar    1  LIG1       -0.0017
      4 C           0.8165    3.9895   -0.0001 C.ar    1  LIG1        0.1726
      5 O          -0.3030    3.1567   -0.0002 O.2     1  LIG1       -0.4596
      6 H          -0.7504    0.9343    0.0000 H       1  LIG1        0.1029
      7 H           2.3515    0.8179    0.0001 H       1  LIG1        0.0652
      8 C           3.2001    3.6568    0.0000 C.3     1  LIG1       -0.0360
      9 H           3.2528    4.5990    0.5044 H       1  LIG1        0.0279
     10 H           3.5373    3.7730   -1.0088 H       1  LIG1        0.0279
     11 H           3.8217    2.9468    0.5044 H       1  LIG1        0.0279
     12 C           0.5416    5.2601   -0.0001 C.ar    1  LIG1        0.1712
     13 C          -0.6119    6.0167   -0.0001 C.ar    1  LIG1       -0.0091
     14 C          -0.1979    7.4043   -0.0001 C.ar    1  LIG1       -0.0009
     15 C           1.1818    7.4036   -0.0002 C.ar    1  LIG1        0.1736
     16 O           1.6612    6.0932   -0.0003 O.2     1  LIG1       -0.4484
     17 H          -1.8411    5.5934   -0.0000 H       1  LIG1        0.0659
     18 C          -0.9938    8.4326   -0.0001 C.3     1  LIG1       -0.0360
     19 H          -1.9030    8.1799    0.5043 H       1  LIG1        0.0279
     20 H          -1.2121    8.7146   -1.0090 H       1  LIG1        0.0279
     21 H          -0.5211    9.2494    0.5042 H       1  LIG1        0.0279
     22 C           2.1085    8.3153   -0.0002 C.ar    1  LIG1        0.1713
     23 C           2.1310    9.6946   -0.0002 C.ar    1  LIG1       -0.0091
     24 C           3.5250   10.0867   -0.0001 C.ar    1  LIG1       -0.0009
     25 C           4.2622    8.9204   -0.0002 C.ar    1  LIG1        0.1736
     26 O           3.4112    7.8147   -0.0003 O.2     1  LIG1       -0.4484
     27 H           1.1161   10.5069   -0.0001 H       1  LIG1        0.0659
     28 C           3.9684   11.3091   -0.0001 C.3     1  LIG1       -0.0360
     29 H           3.2688   11.9423    0.5043 H       1  LIG1        0.0279
     30 H           4.0900   11.6444   -1.0090 H       1  LIG1        0.0279
     31 H           4.9114   11.3464    0.5043 H       1  LIG1        0.0279
     32 C           5.5281    8.6248   -0.0002 C.ar    1  LIG1        0.1702
     33 C           6.2658    7.4591   -0.0001 C.ar    1  LIG1       -0.0099
     34 C           7.6600    7.8504   -0.0001 C.ar    1  LIG1       -0.0120
     35 C           7.6818    9.2300   -0.0002 C.ar    1  LIG1        0.0956
     36 O           6.3794    9.7307   -0.0003 O.2     1  LIG1       -0.4596
     37 H           8.6085   10.1417   -0.0002 H       1  LIG1        0.1032
     38 H           5.8225    6.2370   -0.0000 H       1  LIG1        0.0659
     39 C           8.6751    7.0379   -0.0001 C.3     1  LIG1       -0.0367
     40 H           9.4995    7.4971    0.5044 H       1  LIG1        0.0278
     41 H           8.9537    6.8151   -1.0089 H       1  LIG1        0.0278
     42 H           8.4076    6.1330    0.5043 H       1  LIG1        0.0278
@<TRIPOS>BOND
     1    20    18    1
     2    30    28    1
     3    41    39    1
     4    10     8    1
     5    36    35   ar
     6    36    32   ar
     7    26    25   ar
     8    26    22   ar
     9    16    15   ar
    10    16    12   ar
    11    35    37    1
    12    35    34   ar
    13     5     4   ar
    14     5     1   ar
    15    25    32    1
    16    25    24   ar
    17    15    22    1
    18    15    14   ar
    19    32    33   ar
    20    23    22   ar
    21    23    24   ar
    22    23    27    1
    23    33    34   ar
    24    33    38    1
    25    13    14   ar
    26    13    12   ar
    27    13    17    1
    28    24    28    1
    29    18    14    1
    30    18    21    1
    31    18    19    1
    32    28    31    1
    33    28    29    1
    34    12     4    1
    35     4     3   ar
    36    34    39    1
    37    39    42    1
    38    39    40    1
    39     1     6    1
    40     1     2   ar
    41     8     3    1
    42     8    11    1
    43     8     9    1
    44     3     2   ar
    45     2     7    1
