@<TRIPOS>MOLECULE
mol_data/noopt/geoms/mol2/12ai6da(50)4df(180)6ad(190).out
 44 47 0 0 0
SMALL
GASTEIGER

@<TRIPOS>ATOM
      1 C           0.1763    1.8460    0.0000 C.ar    1  LIG1        0.0928
      2 C           1.5558    1.8460    0.0000 C.ar    1  LIG1       -0.0204
      3 C           1.9706    3.2334    0.0000 C.ar    1  LIG1       -0.0047
      4 C           0.8165    3.9895   -0.0001 C.ar    1  LIG1        0.1404
      5 O          -0.3030    3.1567   -0.0002 O.2     1  LIG1       -0.4626
      6 H          -0.7504    0.9343    0.0000 H       1  LIG1        0.1029
      7 H           2.3515    0.8179    0.0001 H       1  LIG1        0.0652
      8 C           3.2001    3.6568    0.0000 C.3     1  LIG1       -0.0361
      9 H           3.2528    4.5990    0.5044 H       1  LIG1        0.0279
     10 H           3.5373    3.7730   -1.0088 H       1  LIG1        0.0279
     11 H           3.8217    2.9468    0.5044 H       1  LIG1        0.0279
     12 C          -0.3720    5.7900   -0.9296 C.ar    1  LIG1        0.1513
     13 C           0.5416    5.2601   -0.0001 C.ar    1  LIG1        0.0534
     14 C           1.1403    6.1277    0.9153 C.ar    1  LIG1       -0.0463
     15 C           0.8095    7.4831    0.8718 C.ar    1  LIG1       -0.0349
     16 C          -0.1154    7.9180   -0.0952 C.ar    1  LIG1        0.0738
     17 N          -0.7026    7.0948   -0.9857 N.ar    1  LIG1       -0.2356
     18 H           1.8597    5.7503    1.6557 H       1  LIG1        0.0626
     19 N          -1.4695    4.3451   -2.5707 N.1     1  LIG1       -0.1893
     20 C          -0.9551    5.0223   -1.8016 C.1     1  LIG1        0.1198
     21 H           1.3396    8.3313    1.7022 H       1  LIG1        0.0639
     22 C          -1.8188    9.5264   -0.2192 C.ar    1  LIG1        0.0617
     23 C          -2.1351   10.8959   -0.3074 C.ar    1  LIG1       -0.0325
     24 C          -0.4554    9.1701   -0.1752 C.ar    1  LIG1        0.0212
     25 C          -1.1395   11.8694   -0.3494 C.ar    1  LIG1        0.0263
     26 H          -3.1809   11.1928   -0.3428 H       1  LIG1        0.0638
     27 C           0.5389   10.1415   -0.2171 C.ar    1  LIG1       -0.0092
     28 C           0.2045   11.4969   -0.3044 C.ar    1  LIG1        0.1253
     29 H           1.5831    9.8415   -0.1819 H       1  LIG1        0.0661
     30 N          -3.6495    7.9047   -0.1516 N.1     1  LIG1       -0.1908
     31 C          -2.7916    8.6647   -0.1833 C.1     1  LIG1        0.0998
     32 O           1.1384   12.4006   -0.3434 O.3     1  LIG1       -0.5061
     33 H           0.7392   13.2736   -0.3530 H       1  LIG1        0.2922
     34 C          -0.4931   14.1262   -0.2653 C.ar    1  LIG1        0.0354
     35 C          -1.4673   13.1247   -0.4308 C.ar    1  LIG1        0.0050
     36 C          -2.7848   13.5114   -0.6830 C.ar    1  LIG1       -0.0336
     37 C          -3.0824   14.8730   -0.7606 C.ar    1  LIG1        0.0704
     38 C          -2.0391   15.7997   -0.5807 C.ar    1  LIG1        0.0449
     39 N          -0.7626   15.4442   -0.3368 N.ar    1  LIG1       -0.2614
     40 H          -3.5733   12.7573   -0.8169 H       1  LIG1        0.0637
     41 H          -2.2663   17.0781   -0.6439 H       1  LIG1        0.0842
     42 H           0.7470   13.8159   -0.0288 H       1  LIG1        0.0836
     43 N          -5.3618   15.6466   -1.1983 N.1     1  LIG1       -0.1908
     44 C          -4.2936   15.2841   -0.9932 C.1     1  LIG1        0.1007
@<TRIPOS>BOND
     1    19    20    3
     2    20    12    1
     3    43    44    3
     4    10     8    1
     5    44    37    1
     6    17    12   ar
     7    17    16   ar
     8    12    13   ar
     9    40    36    1
    10    37    36   ar
    11    37    38   ar
    12    36    35   ar
    13    41    38    1
    14    38    39   ar
    15    35    25    1
    16    35    34   ar
    17    33    32    1
    18    25    23   ar
    19    25    28   ar
    20    32    28    1
    21    26    23    1
    22    39    34   ar
    23    23    22   ar
    24    28    27   ar
    25    34    42    1
    26    22    31    1
    27    22    24   ar
    28    27    29    1
    29    27    24   ar
    30    31    30    3
    31    24    16    1
    32    16    15   ar
    33     5     4   ar
    34     5     1   ar
    35    13     4    1
    36    13    14   ar
    37     4     3   ar
    38     1     2   ar
    39     1     6    1
    40     3     2   ar
    41     3     8    1
    42     2     7    1
    43     8    11    1
    44     8     9    1
    45    15    14   ar
    46    15    21    1
    47    14    18    1
