@<TRIPOS>MOLECULE
mol_data/noopt/geoms/mol2/12ai12ai-12ai.out
 32 34 0 0 0
SMALL
GASTEIGER

@<TRIPOS>ATOM
      1 C           0.1763    1.8460    0.0000 C.ar    1  LIG1        0.0930
      2 C           1.5558    1.8460    0.0000 C.ar    1  LIG1       -0.0203
      3 C           1.9706    3.2334    0.0000 C.ar    1  LIG1       -0.0017
      4 C           0.8165    3.9895   -0.0001 C.ar    1  LIG1        0.1726
      5 O          -0.3030    3.1567   -0.0002 O.2     1  LIG1       -0.4596
      6 H          -0.7504    0.9343    0.0000 H       1  LIG1        0.1029
      7 H           2.3515    0.8179    0.0001 H       1  LIG1        0.0652
      8 C           3.2001    3.6568    0.0000 C.3     1  LIG1       -0.0360
      9 H           3.2528    4.5990    0.5044 H       1  LIG1        0.0279
     10 H           3.5373    3.7730   -1.0088 H       1  LIG1        0.0279
     11 H           3.8217    2.9468    0.5044 H       1  LIG1        0.0279
     12 C           0.5416    5.2601   -0.0001 C.ar    1  LIG1        0.1712
     13 C          -0.6119    6.0167   -0.0001 C.ar    1  LIG1       -0.0091
     14 C          -0.1979    7.4043   -0.0001 C.ar    1  LIG1       -0.0009
     15 C           1.1818    7.4036   -0.0002 C.ar    1  LIG1        0.1736
     16 O           1.6612    6.0932   -0.0003 O.2     1  LIG1       -0.4484
     17 H          -1.8411    5.5934   -0.0000 H       1  LIG1        0.0659
     18 C          -0.9938    8.4326   -0.0001 C.3     1  LIG1       -0.0360
     19 H          -1.9030    8.1799    0.5043 H       1  LIG1        0.0279
     20 H          -1.2121    8.7146   -1.0090 H       1  LIG1        0.0279
     21 H          -0.5211    9.2494    0.5042 H       1  LIG1        0.0279
     22 C           2.1085    8.3153   -0.0002 C.ar    1  LIG1        0.1702
     23 C           3.4880    8.3153   -0.0001 C.ar    1  LIG1       -0.0099
     24 C           3.9028    9.7027   -0.0001 C.ar    1  LIG1       -0.0120
     25 C           2.7487   10.4588   -0.0002 C.ar    1  LIG1        0.0956
     26 O           1.6292    9.6260   -0.0003 O.2     1  LIG1       -0.4596
     27 H           2.4738   11.7294   -0.0002 H       1  LIG1        0.1032
     28 H           4.2837    7.2872   -0.0000 H       1  LIG1        0.0659
     29 C           5.1323   10.1261   -0.0001 C.3     1  LIG1       -0.0367
     30 H           5.1851   11.0682    0.5043 H       1  LIG1        0.0278
     31 H           5.4695   10.2423   -1.0089 H       1  LIG1        0.0278
     32 H           5.7540    9.4161    0.5043 H       1  LIG1        0.0278
@<TRIPOS>BOND
     1    20    18    1
     2    31    29    1
     3    10     8    1
     4    26    25   ar
     5    26    22   ar
     6    16    15   ar
     7    16    12   ar
     8    25    27    1
     9    25    24   ar
    10     5     4   ar
    11     5     1   ar
    12    15    22    1
    13    15    14   ar
    14    22    23   ar
    15    23    24   ar
    16    23    28    1
    17    13    14   ar
    18    13    12   ar
    19    13    17    1
    20    18    14    1
    21    18    21    1
    22    18    19    1
    23    24    29    1
    24    12     4    1
    25     4     3   ar
    26    29    32    1
    27    29    30    1
    28     1     6    1
    29     1     2   ar
    30     8     3    1
    31     8    11    1
    32     8     9    1
    33     3     2   ar
    34     2     7    1
