@<TRIPOS>MOLECULE
mol_data/noopt/geoms/mol2/12ai12ai12ai.out
 32 34 0 0 0
SMALL
GASTEIGER

@<TRIPOS>ATOM
      1 C           0.1763    1.8460    0.0000 C.ar    1  LIG1        0.0930
      2 C           1.5558    1.8460    0.0000 C.ar    1  LIG1       -0.0203
      3 C           1.9706    3.2334    0.0000 C.ar    1  LIG1       -0.0017
      4 C           0.8165    3.9895   -0.0001 C.ar    1  LIG1        0.1726
      5 O          -0.3030    3.1567   -0.0002 O.2     1  LIG1       -0.4596
      6 H          -0.7504    0.9343    0.0000 H       1  LIG1        0.1029
      7 H           2.3515    0.8179    0.0001 H       1  LIG1        0.0652
      8 C           3.2001    3.6568    0.0000 C.3     1  LIG1       -0.0360
      9 H           3.2528    4.5990    0.5044 H       1  LIG1        0.0279
     10 H           3.5373    3.7730   -1.0088 H       1  LIG1        0.0279
     11 H           3.8217    2.9468    0.5044 H       1  LIG1        0.0279
     12 C           0.5416    5.2601   -0.0001 C.ar    1  LIG1        0.1712
     13 C           1.2792    6.4258   -0.0001 C.ar    1  LIG1       -0.0091
     14 C           0.3286    7.5182   -0.0001 C.ar    1  LIG1       -0.0009
     15 C          -0.9274    6.9472   -0.0002 C.ar    1  LIG1        0.1736
     16 O          -0.8223    5.5559   -0.0003 O.2     1  LIG1       -0.4484
     17 H           2.5734    6.5485   -0.0000 H       1  LIG1        0.0659
     18 C           0.6283    8.7835   -0.0001 C.3     1  LIG1       -0.0360
     19 H          -0.1397    9.3319    0.5043 H       1  LIG1        0.0279
     20 H           0.7104    9.1306   -1.0089 H       1  LIG1        0.0279
     21 H           1.5606    8.9292    0.5043 H       1  LIG1        0.0279
     22 C          -2.1481    7.3943   -0.0002 C.ar    1  LIG1        0.1702
     23 C          -2.7387    8.6410   -0.0002 C.ar    1  LIG1       -0.0099
     24 C          -4.1701    8.4218   -0.0002 C.ar    1  LIG1       -0.0120
     25 C          -4.3593    7.0551   -0.0003 C.ar    1  LIG1        0.0956
     26 O          -3.1273    6.4000   -0.0004 O.2     1  LIG1       -0.4596
     27 H          -5.3898    6.2627   -0.0003 H       1  LIG1        0.1032
     28 H          -2.1504    9.8002   -0.0001 H       1  LIG1        0.0659
     29 C          -5.0792    9.3516   -0.0002 C.3     1  LIG1       -0.0367
     30 H          -5.9532    8.9959    0.5042 H       1  LIG1        0.0278
     31 H          -5.3286    9.6066   -1.0090 H       1  LIG1        0.0278
     32 H          -4.7037   10.2174    0.5042 H       1  LIG1        0.0278
@<TRIPOS>BOND
     1    31    29    1
     2    20    18    1
     3    10     8    1
     4    26    25   ar
     5    26    22   ar
     6    16    15   ar
     7    16    12   ar
     8    27    25    1
     9    25    24   ar
    10    24    23   ar
    11    24    29    1
    12    22    23   ar
    13    22    15    1
    14    23    28    1
    15    15    14   ar
    16     5     4   ar
    17     5     1   ar
    18    29    32    1
    19    29    30    1
    20    12    13   ar
    21    12     4    1
    22    13    14   ar
    23    13    17    1
    24    14    18    1
    25    18    21    1
    26    18    19    1
    27     4     3   ar
    28     1     6    1
    29     1     2   ar
    30     8     3    1
    31     8    11    1
    32     8     9    1
    33     3     2   ar
    34     2     7    1
