@<TRIPOS>MOLECULE
mol_data/noopt/geoms/mol2/12ai12ai-12ai12ai-.out
 42 45 0 0 0
SMALL
GASTEIGER

@<TRIPOS>ATOM
      1 C           0.1763    1.8460    0.0000 C.ar    1  LIG1        0.0930
      2 C           1.5558    1.8460    0.0000 C.ar    1  LIG1       -0.0203
      3 C           1.9706    3.2334    0.0000 C.ar    1  LIG1       -0.0017
      4 C           0.8165    3.9895   -0.0001 C.ar    1  LIG1        0.1726
      5 O          -0.3030    3.1567   -0.0002 O.2     1  LIG1       -0.4596
      6 H          -0.7504    0.9343    0.0000 H       1  LIG1        0.1029
      7 H           2.3515    0.8179    0.0001 H       1  LIG1        0.0652
      8 C           3.2001    3.6568    0.0000 C.3     1  LIG1       -0.0360
      9 H           3.2528    4.5990    0.5044 H       1  LIG1        0.0279
     10 H           3.5373    3.7730   -1.0088 H       1  LIG1        0.0279
     11 H           3.8217    2.9468    0.5044 H       1  LIG1        0.0279
     12 C           0.5416    5.2601   -0.0001 C.ar    1  LIG1        0.1712
     13 C          -0.6119    6.0167   -0.0001 C.ar    1  LIG1       -0.0091
     14 C          -0.1979    7.4043   -0.0001 C.ar    1  LIG1       -0.0009
     15 C           1.1818    7.4036   -0.0002 C.ar    1  LIG1        0.1736
     16 O           1.6612    6.0932   -0.0003 O.2     1  LIG1       -0.4484
     17 H          -1.8411    5.5934   -0.0000 H       1  LIG1        0.0659
     18 C          -0.9938    8.4326   -0.0001 C.3     1  LIG1       -0.0360
     19 H          -1.9030    8.1799    0.5043 H       1  LIG1        0.0279
     20 H          -1.2121    8.7146   -1.0090 H       1  LIG1        0.0279
     21 H          -0.5211    9.2494    0.5042 H       1  LIG1        0.0279
     22 C           2.1085    8.3153   -0.0002 C.ar    1  LIG1        0.1713
     23 C           3.4880    8.3153   -0.0001 C.ar    1  LIG1       -0.0091
     24 C           3.9028    9.7027   -0.0001 C.ar    1  LIG1       -0.0009
     25 C           2.7487   10.4588   -0.0002 C.ar    1  LIG1        0.1736
     26 O           1.6292    9.6260   -0.0003 O.2     1  LIG1       -0.4484
     27 H           4.2837    7.2872   -0.0000 H       1  LIG1        0.0659
     28 C           5.1323   10.1261   -0.0001 C.3     1  LIG1       -0.0360
     29 H           5.1851   11.0682    0.5043 H       1  LIG1        0.0279
     30 H           5.4695   10.2423   -1.0089 H       1  LIG1        0.0279
     31 H           5.7540    9.4161    0.5043 H       1  LIG1        0.0279
     32 C           2.4738   11.7294   -0.0002 C.ar    1  LIG1        0.1702
     33 C           1.3203   12.4859   -0.0002 C.ar    1  LIG1       -0.0099
     34 C           1.7343   13.8736   -0.0002 C.ar    1  LIG1       -0.0120
     35 C           3.1141   13.8729   -0.0003 C.ar    1  LIG1        0.0956
     36 O           3.5935   12.5625   -0.0004 O.2     1  LIG1       -0.4596
     37 H           4.0408   14.7846   -0.0002 H       1  LIG1        0.1032
     38 H           0.0911   12.0626   -0.0001 H       1  LIG1        0.0659
     39 C           0.9385   14.9019   -0.0002 C.3     1  LIG1       -0.0367
     40 H           0.0293   14.6492    0.5042 H       1  LIG1        0.0278
     41 H           0.7201   15.1839   -1.0090 H       1  LIG1        0.0278
     42 H           1.4111   15.7186    0.5042 H       1  LIG1        0.0278
@<TRIPOS>BOND
     1    41    39    1
     2    20    18    1
     3    30    28    1
     4    10     8    1
     5    36    35   ar
     6    36    32   ar
     7    26    25   ar
     8    26    22   ar
     9    16    15   ar
    10    16    12   ar
    11    35    37    1
    12    35    34   ar
    13    25    32    1
    14    25    24   ar
    15    33    32   ar
    16    33    34   ar
    17    33    38    1
    18     5     4   ar
    19     5     1   ar
    20    39    34    1
    21    39    42    1
    22    39    40    1
    23    15    22    1
    24    15    14   ar
    25    22    23   ar
    26    23    24   ar
    27    23    27    1
    28    13    14   ar
    29    13    12   ar
    30    13    17    1
    31    18    14    1
    32    18    21    1
    33    18    19    1
    34    24    28    1
    35    12     4    1
    36     4     3   ar
    37    28    31    1
    38    28    29    1
    39     1     6    1
    40     1     2   ar
    41     8     3    1
    42     8    11    1
    43     8     9    1
    44     3     2   ar
    45     2     7    1
