@<TRIPOS>MOLECULE
mol_data/noopt/geoms/mol2/12ai12ai12ai-12ai.out
 42 45 0 0 0
SMALL
GASTEIGER

@<TRIPOS>ATOM
      1 C           0.1763    1.8460    0.0000 C.ar    1  LIG1        0.0930
      2 C           1.5558    1.8460    0.0000 C.ar    1  LIG1       -0.0203
      3 C           1.9706    3.2334    0.0000 C.ar    1  LIG1       -0.0017
      4 C           0.8165    3.9895   -0.0001 C.ar    1  LIG1        0.1726
      5 O          -0.3030    3.1567   -0.0002 O.2     1  LIG1       -0.4596
      6 H          -0.7504    0.9343    0.0000 H       1  LIG1        0.1029
      7 H           2.3515    0.8179    0.0001 H       1  LIG1        0.0652
      8 C           3.2001    3.6568    0.0000 C.3     1  LIG1       -0.0360
      9 H           3.2528    4.5990    0.5044 H       1  LIG1        0.0279
     10 H           3.5373    3.7730   -1.0088 H       1  LIG1        0.0279
     11 H           3.8217    2.9468    0.5044 H       1  LIG1        0.0279
     12 C           0.5416    5.2601   -0.0001 C.ar    1  LIG1        0.1712
     13 C           1.2792    6.4258   -0.0001 C.ar    1  LIG1       -0.0091
     14 C           0.3286    7.5182   -0.0001 C.ar    1  LIG1       -0.0009
     15 C          -0.9274    6.9472   -0.0002 C.ar    1  LIG1        0.1736
     16 O          -0.8223    5.5559   -0.0003 O.2     1  LIG1       -0.4484
     17 H           2.5734    6.5485   -0.0000 H       1  LIG1        0.0659
     18 C           0.6283    8.7835   -0.0001 C.3     1  LIG1       -0.0360
     19 H          -0.1397    9.3319    0.5043 H       1  LIG1        0.0279
     20 H           0.7104    9.1306   -1.0089 H       1  LIG1        0.0279
     21 H           1.5606    8.9292    0.5043 H       1  LIG1        0.0279
     22 C          -2.1481    7.3943   -0.0002 C.ar    1  LIG1        0.1713
     23 C          -3.4042    6.8241   -0.0002 C.ar    1  LIG1       -0.0091
     24 C          -4.3554    7.9160   -0.0002 C.ar    1  LIG1       -0.0009
     25 C          -3.6171    9.0815   -0.0003 C.ar    1  LIG1        0.1736
     26 O          -2.2534    8.7859   -0.0004 O.2     1  LIG1       -0.4484
     27 H          -3.7038    5.5591   -0.0001 H       1  LIG1        0.0659
     28 C          -5.6499    7.7933   -0.0002 C.3     1  LIG1       -0.0360
     29 H          -5.9226    6.8899    0.5042 H       1  LIG1        0.0279
     30 H          -6.0050    7.7596   -1.0091 H       1  LIG1        0.0279
     31 H          -6.0874    8.6294    0.5041 H       1  LIG1        0.0279
     32 C          -3.8920   10.3521   -0.0003 C.ar    1  LIG1        0.1702
     33 C          -3.1543   11.5178   -0.0002 C.ar    1  LIG1       -0.0099
     34 C          -4.1049   12.6102   -0.0002 C.ar    1  LIG1       -0.0120
     35 C          -5.3610   12.0393   -0.0003 C.ar    1  LIG1        0.0956
     36 O          -5.2558   10.6479   -0.0004 O.2     1  LIG1       -0.4596
     37 H          -6.5817   12.4864   -0.0003 H       1  LIG1        0.1032
     38 H          -1.8601   11.6405   -0.0001 H       1  LIG1        0.0659
     39 C          -3.8053   13.8755   -0.0002 C.3     1  LIG1       -0.0367
     40 H          -4.5732   14.4239    0.5042 H       1  LIG1        0.0278
     41 H          -3.7232   14.2227   -1.0090 H       1  LIG1        0.0278
     42 H          -2.8729   14.0212    0.5042 H       1  LIG1        0.0278
@<TRIPOS>BOND
     1    30    28    1
     2    41    39    1
     3    20    18    1
     4    10     8    1
     5    36    35   ar
     6    36    32   ar
     7    26    25   ar
     8    26    22   ar
     9    35    37    1
    10    35    34   ar
    11    16    15   ar
    12    16    12   ar
    13    25    32    1
    14    25    24   ar
    15    32    33   ar
    16    33    34   ar
    17    33    38    1
    18    23    24   ar
    19    23    22   ar
    20    23    27    1
    21    28    24    1
    22    28    31    1
    23    28    29    1
    24    34    39    1
    25    22    15    1
    26    15    14   ar
    27     5     4   ar
    28     5     1   ar
    29    39    42    1
    30    39    40    1
    31    18    14    1
    32    18    21    1
    33    18    19    1
    34    14    13   ar
    35    13    12   ar
    36    13    17    1
    37    12     4    1
    38     4     3   ar
    39     1     6    1
    40     1     2   ar
    41     8     3    1
    42     8    11    1
    43     8     9    1
    44     3     2   ar
    45     2     7    1
