@<TRIPOS>MOLECULE
mol_data/noopt/geoms/mol2/12ai12ai.out
 22 23 0 0 0
SMALL
GASTEIGER

@<TRIPOS>ATOM
      1 C           0.1763    1.8460    0.0000 C.ar    1  LIG1        0.0930
      2 C           1.5558    1.8460    0.0000 C.ar    1  LIG1       -0.0203
      3 C           1.9706    3.2334    0.0000 C.ar    1  LIG1       -0.0017
      4 C           0.8165    3.9895   -0.0001 C.ar    1  LIG1        0.1725
      5 O          -0.3030    3.1567   -0.0002 O.2     1  LIG1       -0.4596
      6 H          -0.7504    0.9343    0.0000 H       1  LIG1        0.1029
      7 H           2.3515    0.8179    0.0001 H       1  LIG1        0.0652
      8 C           3.2001    3.6568    0.0000 C.3     1  LIG1       -0.0360
      9 H           3.2528    4.5990    0.5044 H       1  LIG1        0.0279
     10 H           3.5373    3.7730   -1.0088 H       1  LIG1        0.0279
     11 H           3.8217    2.9468    0.5044 H       1  LIG1        0.0279
     12 C           0.5416    5.2601   -0.0001 C.ar    1  LIG1        0.1702
     13 C           1.2792    6.4258   -0.0001 C.ar    1  LIG1       -0.0099
     14 C           0.3286    7.5182   -0.0001 C.ar    1  LIG1       -0.0120
     15 C          -0.9274    6.9472   -0.0002 C.ar    1  LIG1        0.0956
     16 O          -0.8223    5.5559   -0.0003 O.2     1  LIG1       -0.4596
     17 H          -2.1481    7.3943   -0.0002 H       1  LIG1        0.1032
     18 H           2.5734    6.5485   -0.0000 H       1  LIG1        0.0659
     19 C           0.6283    8.7835   -0.0001 C.3     1  LIG1       -0.0367
     20 H          -0.1397    9.3319    0.5043 H       1  LIG1        0.0278
     21 H           0.7104    9.1306   -1.0089 H       1  LIG1        0.0278
     22 H           1.5606    8.9292    0.5043 H       1  LIG1        0.0278
@<TRIPOS>BOND
     1    21    19    1
     2    10     8    1
     3    16    15   ar
     4    16    12   ar
     5     5     4   ar
     6     5     1   ar
     7    17    15    1
     8    15    14   ar
     9    19    14    1
    10    19    22    1
    11    19    20    1
    12     4    12    1
    13     4     3   ar
    14    14    13   ar
    15    12    13   ar
    16    13    18    1
    17     1     6    1
    18     1     2   ar
    19     8     3    1
    20     8    11    1
    21     8     9    1
    22     3     2   ar
    23     2     7    1
