@<TRIPOS>MOLECULE
mol_data/noopt/geoms/mol2/12ai12ai-.out
 22 23 0 0 0
SMALL
GASTEIGER

@<TRIPOS>ATOM
      1 C           0.1763    1.8460    0.0000 C.ar    1  LIG1        0.0930
      2 C           1.5558    1.8460    0.0000 C.ar    1  LIG1       -0.0203
      3 C           1.9706    3.2334    0.0000 C.ar    1  LIG1       -0.0017
      4 C           0.8165    3.9895   -0.0001 C.ar    1  LIG1        0.1725
      5 O          -0.3030    3.1567   -0.0002 O.2     1  LIG1       -0.4596
      6 H          -0.7504    0.9343    0.0000 H       1  LIG1        0.1029
      7 H           2.3515    0.8179    0.0001 H       1  LIG1        0.0652
      8 C           3.2001    3.6568    0.0000 C.3     1  LIG1       -0.0360
      9 H           3.2528    4.5990    0.5044 H       1  LIG1        0.0279
     10 H           3.5373    3.7730   -1.0088 H       1  LIG1        0.0279
     11 H           3.8217    2.9468    0.5044 H       1  LIG1        0.0279
     12 C           0.5416    5.2601   -0.0001 C.ar    1  LIG1        0.1702
     13 C          -0.6119    6.0167   -0.0001 C.ar    1  LIG1       -0.0099
     14 C          -0.1979    7.4043   -0.0001 C.ar    1  LIG1       -0.0120
     15 C           1.1818    7.4036   -0.0002 C.ar    1  LIG1        0.0956
     16 O           1.6612    6.0932   -0.0003 O.2     1  LIG1       -0.4596
     17 H           2.1085    8.3153   -0.0002 H       1  LIG1        0.1032
     18 H          -1.8411    5.5934   -0.0000 H       1  LIG1        0.0659
     19 C          -0.9938    8.4326   -0.0001 C.3     1  LIG1       -0.0367
     20 H          -1.9030    8.1799    0.5043 H       1  LIG1        0.0278
     21 H          -1.2121    8.7146   -1.0090 H       1  LIG1        0.0278
     22 H          -0.5211    9.2494    0.5042 H       1  LIG1        0.0278
@<TRIPOS>BOND
     1    21    19    1
     2    10     8    1
     3    16    15   ar
     4    16    12   ar
     5     5     4   ar
     6     5     1   ar
     7    15    17    1
     8    15    14   ar
     9    13    14   ar
    10    13    12   ar
    11    13    18    1
    12    19    14    1
    13    19    22    1
    14    19    20    1
    15     4    12    1
    16     4     3   ar
    17     1     6    1
    18     1     2   ar
    19     8     3    1
    20     8    11    1
    21     8     9    1
    22     3     2   ar
    23     2     7    1
