@<TRIPOS>MOLECULE
mol_data/noopt/geoms/mol2/12ai4af-6dh-6ah-.out
 46 49 0 0 0
SMALL
GASTEIGER

@<TRIPOS>ATOM
      1 C           0.1763    1.8460    0.0000 C.ar    1  LIG1        0.0928
      2 C           1.5558    1.8460    0.0000 C.ar    1  LIG1       -0.0204
      3 C           1.9706    3.2334    0.0000 C.ar    1  LIG1       -0.0047
      4 C           0.8165    3.9895   -0.0001 C.ar    1  LIG1        0.1378
      5 O          -0.3030    3.1567   -0.0002 O.2     1  LIG1       -0.4627
      6 H          -0.7504    0.9343    0.0000 H       1  LIG1        0.1029
      7 H           2.3515    0.8179    0.0001 H       1  LIG1        0.0652
      8 C           3.2001    3.6568    0.0000 C.3     1  LIG1       -0.0361
      9 H           3.2528    4.5990    0.5044 H       1  LIG1        0.0279
     10 H           3.5373    3.7730   -1.0088 H       1  LIG1        0.0279
     11 H           3.8217    2.9468    0.5044 H       1  LIG1        0.0279
     12 C           1.5877    6.2051    0.0220 C.ar    1  LIG1       -0.0503
     13 C           1.2377    7.5692    0.0226 C.ar    1  LIG1       -0.0498
     14 C           0.5416    5.2600   -0.0001 C.ar    1  LIG1        0.0210
     15 C          -0.0943    7.9766    0.0015 C.ar    1  LIG1        0.0264
     16 H           2.0291    8.3151    0.0396 H       1  LIG1        0.0625
     17 C          -0.7883    5.6663   -0.0212 C.ar    1  LIG1       -0.0089
     18 C          -1.1157    7.0262   -0.0206 C.ar    1  LIG1        0.1253
     19 H          -1.5769    4.9183   -0.0379 H       1  LIG1        0.0661
     20 H           2.8479    5.8865    0.0420 H       1  LIG1        0.0625
     21 O          -2.3607    7.4000   -0.0402 O.3     1  LIG1       -0.5061
     22 H          -2.9278    6.6254   -0.0450 H       1  LIG1        0.2922
     23 C          -1.7224    9.6699   -0.0178 C.ar    1  LIG1        0.1486
     24 C          -0.3816    9.2445    0.0026 C.ar    1  LIG1        0.0232
     25 C           0.6246   10.2121    0.0242 C.ar    1  LIG1       -0.0284
     26 C           0.2609   11.5598    0.0245 C.ar    1  LIG1        0.0516
     27 C          -1.1075   11.8861    0.0029 C.ar    1  LIG1        0.0945
     28 N          -2.0912   10.9656   -0.0179 N.ar    1  LIG1       -0.2338
     29 H           1.6836    9.9178    0.0395 H       1  LIG1        0.0643
     30 N          -3.5515    8.0455   -0.0563 N.1     1  LIG1       -0.1893
     31 C          -2.6943    8.8068   -0.0383 C.1     1  LIG1        0.1197
     32 N           1.1601   12.4985    0.0439 N.pl3   1  LIG1       -0.3563
     33 H           1.9852   12.1795   -0.4224 H       1  LIG1        0.1424
     34 H           0.8059   13.3091   -0.4225 H       1  LIG1        0.1424
     35 C          -2.8667   13.4427   -0.0190 C.ar    1  LIG1        0.0369
     36 C          -1.4959   13.1267    0.0023 C.ar    1  LIG1        0.0220
     37 C          -0.5709   14.1722    0.0231 C.ar    1  LIG1       -0.0289
     38 C          -1.0420   15.4863    0.0216 C.ar    1  LIG1        0.0435
     39 C          -2.4322   15.7013   -0.0007 C.ar    1  LIG1        0.0482
     40 N          -3.3386   14.7045   -0.0207 N.ar    1  LIG1       -0.2608
     41 H           0.5083   13.9642    0.0390 H       1  LIG1        0.0643
     42 H          -2.9193   16.9065   -0.0029 H       1  LIG1        0.0848
     43 H          -3.7659   12.5041   -0.0386 H       1  LIG1        0.0836
     44 N          -0.2214   16.4944    0.0402 N.pl3   1  LIG1       -0.3568
     45 H           0.6265   16.2426   -0.4264 H       1  LIG1        0.1424
     46 H          -0.6399   17.2735   -0.4265 H       1  LIG1        0.1424
@<TRIPOS>BOND
     1    10     8    1
     2    46    44    1
     3    45    44    1
     4    34    32    1
     5    33    32    1
     6    30    31    3
     7    22    21    1
     8    21    18    1
     9    43    35    1
    10    31    23    1
    11    19    17    1
    12    17    18   ar
    13    17    14   ar
    14    40    35   ar
    15    40    39   ar
    16    18    15   ar
    17    35    36   ar
    18    28    23   ar
    19    28    27   ar
    20    23    24   ar
    21    42    39    1
    22    39    38   ar
    23     5     4   ar
    24     5     1   ar
    25    14     4    1
    26    14    12   ar
    27     4     3   ar
    28     1     2   ar
    29     1     6    1
    30     2     3   ar
    31     2     7    1
    32     3     8    1
    33     8    11    1
    34     8     9    1
    35    15    24    1
    36    15    13   ar
    37    36    27    1
    38    36    37   ar
    39    24    25   ar
    40    27    26   ar
    41    38    37   ar
    42    38    44    1
    43    12    13   ar
    44    12    20    1
    45    13    16    1
    46    37    41    1
    47    25    26   ar
    48    25    29    1
    49    26    32    1
