@<TRIPOS>MOLECULE
mol_data/noopt/geoms/mol2/12ai4al(290)4ae(270)13hd(260).out
 49 47 0 0 0
SMALL
GASTEIGER

@<TRIPOS>ATOM
      1 C           0.1763    1.8460    0.0000 C.ar    1  LIG1        0.0928
      2 C           1.5558    1.8460    0.0000 C.ar    1  LIG1       -0.0204
      3 C           1.9706    3.2334    0.0000 C.ar    1  LIG1       -0.0047
      4 C           0.8165    3.9895   -0.0001 C.ar    1  LIG1        0.1378
      5 O          -0.3030    3.1567   -0.0002 O.2     1  LIG1       -0.4627
      6 H          -0.7504    0.9343    0.0000 H       1  LIG1        0.1029
      7 H           2.3515    0.8179    0.0001 H       1  LIG1        0.0652
      8 C           3.2001    3.6568    0.0000 C.3     1  LIG1       -0.0361
      9 H           3.2528    4.5990    0.5044 H       1  LIG1        0.0279
     10 H           3.5373    3.7730   -1.0088 H       1  LIG1        0.0279
     11 H           3.8217    2.9468    0.5044 H       1  LIG1        0.0279
     12 C           0.8024    6.0352   -1.1486 C.ar    1  LIG1       -0.0503
     13 C           0.4883    7.4071   -1.0976 C.ar    1  LIG1       -0.0497
     14 C           0.5416    5.2600   -0.0001 C.ar    1  LIG1        0.0212
     15 C          -0.0618    7.9837    0.0449 C.ar    1  LIG1        0.0291
     16 H           0.6817    8.0236   -1.9727 H       1  LIG1        0.0625
     17 C          -0.0076    5.8352    1.1408 C.ar    1  LIG1       -0.0037
     18 C          -0.3131    7.1998    1.1717 C.ar    1  LIG1        0.1873
     19 H          -0.1993    5.2164    2.0137 H       1  LIG1        0.0663
     20 H           1.3136    5.5546   -2.2430 H       1  LIG1        0.0625
     21 O          -0.8262    7.7320    2.2411 O.3     1  LIG1       -0.2872
     22 C          -0.0442    8.8630    2.6337 C.3     2  LIG2       -0.0309
     23 H          -0.4669    9.3008    3.5138 H       3  UNK3        0.0000
     24 H           0.9586    8.5500    2.8375 H       4  UNK4        0.0000
     25 H          -0.0390    9.5846    1.8437 H       2  LIG2        0.0309
     26 C          -0.4916    9.9511   -1.1585 C.2     1  LIG1       -0.0672
     27 C          -0.7909   11.3256   -1.0916 C.3     1  LIG1        0.0166
     28 C          -0.3397    9.2535    0.0572 C.2     1  LIG1       -0.0100
     29 C          -0.9336   11.9786    0.1307 C.2     1  LIG1        0.0020
     30 H          -0.9121   11.8831   -2.0177 H       1  LIG1        0.0402
     31 C          -0.4821    9.9049    1.2777 C.3     5  LIG5       -0.0309
     32 C          -0.7799   11.2708    1.3234 C.2     1  LIG1        0.0461
     33 H          -0.3601    9.3450    2.2014 H       1  LIG1        0.0309
     34 H          -0.3708    9.3974   -2.3284 H       1  LIG1        0.0585
     35 C          -0.9117   11.8744    2.4672 C.1     1  LIG1       -0.0681
     36 C          -1.0335   12.4321    3.5241 C.1     1  LIG1       -0.1139
     37 H          -1.1420   12.9289    4.4655 H       1  LIG1        0.1232
     38 C          -1.2102   13.2486    0.1556 C.ar    1  LIG1        0.0665
     39 C          -1.5928   14.0876   -0.8432 C.ar    1  LIG1        0.0675
     40 C          -1.7663   15.3871   -0.2672 C.ar    1  LIG1        0.0902
     41 C          -1.4838   15.2847    1.0586 C.ar    1  LIG1        0.0215
     42 N          -1.1424   13.9772    1.3216 N.ar    1  LIG1       -0.3582
     43 H          -0.8881   13.6164    2.2122 H       1  LIG1        0.1654
     44 H          -1.4986   16.1850    1.9963 H       1  LIG1        0.0820
     45 N          -1.7666   13.7662   -2.0908 N.pl3   1  LIG1       -0.3553
     46 H          -2.3143   14.4700   -2.5432 H       1  LIG1        0.1424
     47 H          -0.8777   13.6935   -2.5432 H       1  LIG1        0.1424
     48 N          -2.4463   17.4208   -1.4452 N.1     1  LIG1       -0.1908
     49 C          -2.1276   16.4677   -0.8931 C.1     1  LIG1        0.1025
@<TRIPOS>BOND
     1    47    45    1
     2    46    45    1
     3    34    26    1
     4    20    12    1
     5    45    39    1
     6    30    27    1
     7    16    13    1
     8    48    49    3
     9    26    27    1
    10    26    28    2
    11    12    13   ar
    12    12    14   ar
    13    13    15   ar
    14    27    29    1
    15    10     8    1
    16    49    40    1
    17    39    40   ar
    18    39    38   ar
    19    40    41   ar
    20     5     4   ar
    21     5     1   ar
    22    14     4    1
    23    14    17   ar
    24     4     3   ar
    25     1     2   ar
    26     1     6    1
    27     2     3   ar
    28     2     7    1
    29     3     8    1
    30     8    11    1
    31     8     9    1
    32    15    28    1
    33    15    18   ar
    34    29    38    1
    35    29    32    2
    36    38    42   ar
    37    41    42   ar
    38    41    44    1
    39    17    18   ar
    40    17    19    1
    41    18    21    1
    42    31    25    1
    43    42    43    1
    44    32    35    1
    45    33    22    1
    46    35    36    3
    47    36    37    1
