@<TRIPOS>MOLECULE
mol_data/noopt/geoms/mol2/12ai4fi(240)4ee(140)6ai(50).out
 52 55 0 0 0
SMALL
GASTEIGER

@<TRIPOS>ATOM
      1 C           0.1763    1.8460    0.0000 C.ar    1  LIG1        0.0928
      2 C           1.5558    1.8460    0.0000 C.ar    1  LIG1       -0.0204
      3 C           1.9706    3.2334    0.0000 C.ar    1  LIG1       -0.0046
      4 C           0.8165    3.9895   -0.0001 C.ar    1  LIG1        0.1412
      5 O          -0.3030    3.1567   -0.0002 O.2     1  LIG1       -0.4625
      6 H          -0.7504    0.9343    0.0000 H       1  LIG1        0.1029
      7 H           2.3515    0.8179    0.0001 H       1  LIG1        0.0652
      8 C           3.2001    3.6568    0.0000 C.3     1  LIG1       -0.0361
      9 H           3.2528    4.5990    0.5044 H       1  LIG1        0.0279
     10 H           3.5373    3.7730   -1.0088 H       1  LIG1        0.0279
     11 H           3.8217    2.9468    0.5044 H       1  LIG1        0.0279
     12 C          -0.2037    5.8175   -1.0591 C.ar    1  LIG1        0.1281
     13 C          -0.4738    7.1989   -1.0134 C.ar    1  LIG1       -0.0115
     14 C           0.5416    5.2600   -0.0001 C.ar    1  LIG1        0.0591
     15 C          -0.0233    7.9920    0.0395 C.ar    1  LIG1       -0.0103
     16 H          -1.0472    7.6495   -1.8205 H       1  LIG1        0.0660
     17 C           0.9917    6.0514    1.0513 C.ar    1  LIG1       -0.0441
     18 C           0.7128    7.4218    1.0788 C.ar    1  LIG1       -0.0418
     19 H           1.5646    5.5980    1.8561 H       1  LIG1        0.0629
     20 O          -0.6510    5.1295   -2.0675 O.3     1  LIG1       -0.5060
     21 H          -0.0025    4.4667   -2.3160 H       1  LIG1        0.2922
     22 C           1.1363    8.1567    2.0644 C.3     1  LIG1       -0.0391
     23 H           0.3047    8.4633    2.6638 H       1  LIG1        0.0278
     24 H           1.6342    9.0208    1.6766 H       1  LIG1        0.0278
     25 H           1.8186    7.5908    2.6637 H       1  LIG1        0.0278
     26 C          -1.3511    9.7525    0.8404 C.ar    1  LIG1        0.0330
     27 C          -1.6016   11.1381    0.8159 C.ar    1  LIG1       -0.0368
     28 C          -0.2909    9.2641    0.0497 C.ar    1  LIG1       -0.0009
     29 C          -0.8314   12.0012    0.0397 C.ar    1  LIG1        0.0001
     30 H          -2.4150   11.5361    1.4184 H       1  LIG1        0.0636
     31 C           0.4783   10.1253   -0.7254 C.ar    1  LIG1       -0.0368
     32 C           0.2140   11.4988   -0.7361 C.ar    1  LIG1        0.0331
     33 H           1.2903    9.7243   -1.3266 H       1  LIG1        0.0636
     34 C          -2.1037    8.9977    1.5846 C.1     1  LIG1       -0.0690
     35 C          -2.7991    8.3002    2.2722 C.1     1  LIG1       -0.1139
     36 H          -3.4186    7.6789    2.8847 H       1  LIG1        0.1232
     37 C           0.9363   12.2990   -1.4627 C.1     1  LIG1       -0.0690
     38 C           1.6037   13.0384   -2.1341 C.1     1  LIG1       -0.1139
     39 H           2.1982   13.6970   -2.7322 H       1  LIG1        0.1232
     40 C          -1.9975   13.8173   -0.8880 C.ar    1  LIG1        0.0353
     41 C          -1.0904   13.2751    0.0408 C.ar    1  LIG1        0.0017
     42 C          -0.4808   14.1344    0.9569 C.ar    1  LIG1       -0.0482
     43 C          -0.7946   15.4939    0.9146 C.ar    1  LIG1       -0.0318
     44 C          -1.7142   15.9411   -0.0518 C.ar    1  LIG1        0.0305
     45 N          -2.3118   15.1261   -0.9429 N.ar    1  LIG1       -0.2624
     46 H           0.2340   13.7474    1.6968 H       1  LIG1        0.0627
     47 H          -2.0385   17.1975   -0.1307 H       1  LIG1        0.0832
     48 H          -2.5904   13.0576   -1.7606 H       1  LIG1        0.0836
     49 C          -0.2536   16.3348    1.7459 C.3     1  LIG1       -0.0383
     50 H          -1.0145   16.7670    2.3618 H       1  LIG1        0.0278
     51 H           0.2436   17.1079    1.1981 H       1  LIG1        0.0278
     52 H           0.4551   15.8216    2.3617 H       1  LIG1        0.0278
@<TRIPOS>BOND
     1    39    38    1
     2    21    20    1
     3    38    37    3
     4    20    12    1
     5    16    13    1
     6    48    40    1
     7    37    32    1
     8    33    31    1
     9    12    13   ar
    10    12    14   ar
    11    13    15   ar
    12    10     8    1
    13    45    40   ar
    14    45    44   ar
    15    40    41   ar
    16    32    31   ar
    17    32    29   ar
    18    31    28   ar
    19    47    44    1
    20    44    43   ar
    21     5     4   ar
    22     5     1   ar
    23     4    14    1
    24     4     3   ar
    25    14    17   ar
    26     6     1    1
    27     8     3    1
    28     8    11    1
    29     8     9    1
    30     3     2   ar
    31     1     2   ar
    32     2     7    1
    33    15    28    1
    34    15    18   ar
    35    29    41    1
    36    29    27   ar
    37    41    42   ar
    38    28    26   ar
    39    27    26   ar
    40    27    30    1
    41    26    34    1
    42    43    42   ar
    43    43    49    1
    44    42    46    1
    45    17    18   ar
    46    17    19    1
    47    18    22    1
    48    51    49    1
    49    34    35    3
    50    24    22    1
    51    49    52    1
    52    49    50    1
    53    22    25    1
    54    22    23    1
    55    35    36    1
