@<TRIPOS>MOLECULE
mol_data/noopt/geoms/mol2/12al13ha-12li4ff13hl6di4hh13ah-.out
 100 106 0 0 0
SMALL
GASTEIGER

@<TRIPOS>ATOM
      1 C           0.1763    1.8460    0.0000 C.ar    1  LIG1        0.0963
      2 C           1.5558    1.8460    0.0000 C.ar    1  LIG1        0.0187
      3 C           1.9706    3.2334    0.0000 C.ar    1  LIG1        0.1671
      4 C           0.8165    3.9895   -0.0001 C.ar    1  LIG1        0.1940
      5 O          -0.3030    3.1567   -0.0002 O.2     1  LIG1       -0.4576
      6 H          -0.7504    0.9343    0.0000 H       1  LIG1        0.1031
      7 H           2.3515    0.8179    0.0001 H       1  LIG1        0.0686
      8 O           3.1998    3.6567   -0.0000 O.3     1  LIG1       -0.4913
      9 C           4.0900    2.5376   -0.0001 C.3     1  LIG1        0.0790
     10 H           5.1015    2.8864   -0.0002 H       1  LIG1        0.0660
     11 H           3.9174    1.9445    0.8737 H       1  LIG1        0.0660
     12 H           3.9171    1.9444   -0.8736 H       1  LIG1        0.0660
     13 C           0.5416    5.2601   -0.0001 C.ar    1  LIG1        0.1072
     14 C           1.3662    6.3409   -0.0005 C.ar    1  LIG1        0.0540
     15 C           0.5391    7.5098    0.0008 C.ar    1  LIG1       -0.0118
     16 C          -0.7546    7.0920    0.0002 C.ar    1  LIG1        0.0881
     17 N          -0.7576    5.7154    0.0001 N.ar    1  LIG1       -0.3477
     18 H          -1.5690    5.1412   -0.0005 H       1  LIG1        0.1661
     19 N           2.6659    6.3141   -0.0004 N.pl3   1  LIG1       -0.3562
     20 H           2.9824    5.4909   -0.4718 H       1  LIG1        0.1424
     21 H           3.0160    7.1235   -0.4718 H       1  LIG1        0.1424
     22 H           0.9463    8.7444    0.0020 H       1  LIG1        0.0658
     23 C          -1.8613    7.7741    0.0007 C.ar    1  LIG1        0.1934
     24 C          -2.1909    9.1136    0.0012 C.ar    1  LIG1        0.1706
     25 C          -3.6372    9.1849    0.0017 C.ar    1  LIG1        0.0378
     26 C          -4.0957    7.8835    0.0015 C.ar    1  LIG1        0.1459
     27 O          -3.0195    6.9955    0.0008 O.2     1  LIG1       -0.4492
     28 O          -1.3827   10.1319    0.0012 O.3     1  LIG1       -0.4910
     29 C          -0.0301    9.6677    0.0011 C.3     1  LIG1        0.0790
     30 H           0.6347   10.5061    0.0010 H       1  LIG1        0.0660
     31 H           0.1436    9.0749    0.8749 H       1  LIG1        0.0660
     32 H           0.1435    9.0748   -0.8724 H       1  LIG1        0.0660
     33 C          -4.3421   10.2776    0.0022 C.3     1  LIG1       -0.0326
     34 H          -5.2695   10.1035    0.5067 H       1  LIG1        0.0280
     35 H          -4.5357   10.5776   -1.0065 H       1  LIG1        0.0280
     36 H          -3.8012   11.0507    0.5067 H       1  LIG1        0.0280
     37 C          -6.4314    8.1032    0.0027 C.ar    1  LIG1        0.1284
     38 C          -7.6724    7.4374    0.0045 C.ar    1  LIG1       -0.0068
     39 C          -5.2637    7.3130    0.0018 C.ar    1  LIG1        0.0625
     40 C          -7.7497    6.0465    0.0048 C.ar    1  LIG1        0.0451
     41 H          -8.5859    8.0279    0.0054 H       1  LIG1        0.0662
     42 C          -5.3403    5.9244    0.0020 C.ar    1  LIG1       -0.0053
     43 C          -6.5826    5.2816    0.0035 C.ar    1  LIG1        0.1269
     44 H          -4.4256    5.3373    0.0014 H       1  LIG1        0.0662
     45 O          -6.4233    9.4032    0.0022 O.3     1  LIG1       -0.5060
     46 H          -7.3262    9.7293    0.0021 H       1  LIG1        0.2922
     47 O          -6.6480    3.9832    0.0039 O.3     1  LIG1       -0.5061
     48 H          -5.7604    3.6176    0.0040 H       1  LIG1        0.2922
     49 C          -8.9122    5.4646    0.0064 C.ar    1  LIG1        0.0752
     50 C         -10.1638    5.9949    0.0237 C.ar    1  LIG1        0.0932
     51 C         -11.0908    4.9034    0.0176 C.ar    1  LIG1        0.1665
     52 C         -10.3649    3.7542   -0.0049 C.ar    1  LIG1        0.0938
     53 N          -9.0307    4.0932   -0.0114 N.ar    1  LIG1       -0.3496
     54 H          -8.2731    3.4499   -0.0271 H       1  LIG1        0.1661
     55 N         -10.4606    7.2604    0.0437 N.pl3   1  LIG1       -0.3535
     56 H          -9.7434    7.7783   -0.4225 H       1  LIG1        0.1425
     57 H         -11.3333    7.4055   -0.4225 H       1  LIG1        0.1425
     58 O         -12.3878    4.9912    0.0307 O.3     1  LIG1       -0.4911
     59 C         -12.7729    6.3684    0.0354 C.3     1  LIG1        0.0790
     60 H         -13.8404    6.4403    0.0460 H       1  LIG1        0.0660
     61 H         -12.3746    6.8472    0.9056 H       1  LIG1        0.0660
     62 H         -12.3918    6.8484   -0.8417 H       1  LIG1        0.0660
     63 C          -9.8027    1.4735   -0.0255 C.ar    1  LIG1        0.1499
     64 C         -10.7508    2.5129   -0.0183 C.ar    1  LIG1        0.0384
     65 C         -12.1063    2.1788   -0.0256 C.ar    1  LIG1       -0.0399
     66 C         -12.4660    0.8301   -0.0399 C.ar    1  LIG1        0.0109
     67 C         -11.4444   -0.1373   -0.0463 C.ar    1  LIG1        0.0820
     68 N         -10.1319    0.1672   -0.0392 N.ar    1  LIG1       -0.2350
     69 H         -12.8759    2.9637   -0.0213 H       1  LIG1        0.0632
     70 N          -7.4058    1.9643   -0.0134 N.1     1  LIG1       -0.1893
     71 C          -8.5291    1.7342   -0.0191 C.1     1  LIG1        0.1198
     72 C         -13.7147    0.4675   -0.0473 C.3     2  LIG2       -0.0681
     73 H         -13.8163   -0.4718    0.4551 H       1  LIG1        0.1423
     74 H         -14.0516    0.3695   -1.0581 H       1  LIG1        0.0227
     75 H         -14.3036    1.2062    0.4550 H       1  LIG1        0.0227
     76 C         -13.0756   -1.8233   -0.0658 C.ar    1  LIG1        0.0346
     77 C         -13.3314   -3.2081   -0.0786 C.ar    1  LIG1       -0.0295
     78 C         -11.7290   -1.4056   -0.0595 C.ar    1  LIG1        0.0234
     79 C         -12.2938   -4.1377   -0.0853 C.ar    1  LIG1        0.0207
     80 H         -14.3632   -3.5522   -0.0834 H       1  LIG1        0.0643
     81 C         -10.6928   -2.3332   -0.0662 C.ar    1  LIG1       -0.0294
     82 C         -10.9673   -3.7047   -0.0793 C.ar    1  LIG1        0.0345
     83 H          -9.6628   -1.9861   -0.0610 H       1  LIG1        0.0643
     84 N         -14.0853   -1.0046   -0.0603 N.pl3   1  LIG1       -0.3574
     85 H         -13.8315   -0.1592   -0.5303 H       1  LIG1        0.0227
     86 H         -14.8600   -1.4275   -0.5303 H       1  LIG1        0.1423
     87 N          -9.9946   -4.5672   -0.0853 N.pl3   1  LIG1       -0.3574
     88 H         -10.2886   -5.3978   -0.5583 H       1  LIG1        0.1423
     89 H          -9.2052   -4.1760   -0.5583 H       1  LIG1        0.1423
     90 C         -12.5662   -5.4088   -0.0972 C.ar    1  LIG1        0.0501
     91 C         -13.7623   -6.0547   -0.0890 C.ar    1  LIG1       -0.0157
     92 C         -13.4896   -7.4603   -0.1087 C.ar    1  LIG1        0.0427
     93 C         -12.1387   -7.6116   -0.1298 C.ar    1  LIG1        0.0230
     94 N         -11.5695   -6.3582   -0.1224 N.ar    1  LIG1       -0.3590
     95 H         -10.5938   -6.1687   -0.1341 H       1  LIG1        0.1654
     96 H         -11.4108   -8.6885   -0.1525 H       1  LIG1        0.0826
     97 H         -14.9358   -5.4957   -0.0658 H       1  LIG1        0.0657
     98 N         -14.3687   -8.4180   -0.1072 N.pl3   1  LIG1       -0.3568
     99 H         -15.1960   -8.1117   -0.5782 H       1  LIG1        0.1424
    100 H         -13.9930   -9.2161   -0.5783 H       1  LIG1        0.1424
@<TRIPOS>BOND
     1    74    72    1
     2    35    33    1
     3    12     9    1
     4    32    29    1
     5    62    59    1
     6   100    98    1
     7    99    98    1
     8    89    87    1
     9    88    87    1
    10    86    84    1
    11    85    72    1
    12    21    19    1
    13    20    19    1
    14    57    55    1
    15    56    55    1
    16    96    93    1
    17    95    94    1
    18    93    94   ar
    19    93    92   ar
    20    94    90   ar
    21    92    98    1
    22    92    91   ar
    23    90    91   ar
    24    90    79    1
    25    91    97    1
    26    87    82    1
    27    79    82   ar
    28    79    77   ar
    29    80    77    1
    30    82    81   ar
    31    77    76   ar
    32    81    83    1
    33    81    78   ar
    34    76    84    1
    35    76    78   ar
    36    84    73    1
    37    78    67    1
    38    72    75    1
    39    67    66   ar
    40    67    68   ar
    41    66    65   ar
    42    68    63   ar
    43    54    53    1
    44    65    69    1
    45    65    64   ar
    46    63    71    1
    47    63    64   ar
    48    71    70    3
    49    64    52    1
    50    53    52   ar
    51    53    49   ar
    52    52    51   ar
    53    18    17    1
    54    14    19    1
    55    14    13   ar
    56    14    15   ar
    57    10     9    1
    58     5     4   ar
    59     5     1   ar
    60     4    13    1
    61     4     3   ar
    62    13    17   ar
    63     9     8    1
    64     9    11    1
    65     1     2   ar
    66     1     6    1
    67     8     3    1
    68     2     3   ar
    69     2     7    1
    70    17    16   ar
    71    16    23    1
    72    16    15   ar
    73    23    27   ar
    74    23    24   ar
    75    27    26   ar
    76    15    22    1
    77    30    29    1
    78    29    28    1
    79    29    31    1
    80    24    28    1
    81    24    25   ar
    82    44    42    1
    83    26    25   ar
    84    26    39    1
    85    25    33    1
    86    39    42   ar
    87    39    37   ar
    88    42    43   ar
    89    46    45    1
    90    33    36    1
    91    33    34    1
    92    45    37    1
    93    37    38   ar
    94    43    47    1
    95    43    40   ar
    96    47    48    1
    97    38    40   ar
    98    38    41    1
    99    40    49    1
   100    49    50   ar
   101    51    50   ar
   102    51    58    1
   103    50    55    1
   104    58    59    1
   105    59    60    1
   106    59    61    1
