@<TRIPOS>MOLECULE
mol_data/noopt/geoms/mol2/12al13hd(260)12id(260)13fh(70).out
 46 49 0 0 0
SMALL
GASTEIGER

@<TRIPOS>ATOM
      1 C           0.1763    1.8460    0.0000 C.ar    1  LIG1        0.0963
      2 C           1.5558    1.8460    0.0000 C.ar    1  LIG1        0.0187
      3 C           1.9706    3.2334    0.0000 C.ar    1  LIG1        0.1671
      4 C           0.8165    3.9895   -0.0001 C.ar    1  LIG1        0.1940
      5 O          -0.3030    3.1567   -0.0002 O.2     1  LIG1       -0.4576
      6 H          -0.7504    0.9343    0.0000 H       1  LIG1        0.1031
      7 H           2.3515    0.8179    0.0001 H       1  LIG1        0.0686
      8 O           3.1998    3.6567   -0.0000 O.3     1  LIG1       -0.4913
      9 C           4.0900    2.5376   -0.0001 C.3     1  LIG1        0.0790
     10 H           5.1015    2.8864   -0.0002 H       1  LIG1        0.0660
     11 H           3.9174    1.9445    0.8737 H       1  LIG1        0.0660
     12 H           3.9171    1.9444   -0.8736 H       1  LIG1        0.0660
     13 C           0.5416    5.2601   -0.0001 C.ar    1  LIG1        0.1085
     14 C           0.1643    6.0808   -1.0160 C.ar    1  LIG1        0.0717
     15 C          -0.0097    7.3911   -0.4651 C.ar    1  LIG1        0.1013
     16 C           0.2672    7.3131    0.8636 C.ar    1  LIG1        0.1023
     17 N           0.6057    6.0103    1.1524 N.ar    1  LIG1       -0.3467
     18 H           0.8559    5.6659    2.0506 H       1  LIG1        0.1662
     19 N          -0.0049    5.7363   -2.2580 N.pl3   1  LIG1       -0.3552
     20 H          -0.5827    6.4121   -2.7157 H       1  LIG1        0.1424
     21 H           0.8831    5.6924   -2.7157 H       1  LIG1        0.1424
     22 N          -0.6820    9.4032   -1.6837 N.1     1  LIG1       -0.1907
     23 C          -0.3670    8.4603   -1.1126 C.1     1  LIG1        0.1033
     24 C           0.2500    8.2308    1.7841 C.ar    1  LIG1        0.1573
     25 C           0.0333    9.5930    1.8109 C.ar    1  LIG1        0.0149
     26 C           0.1633   10.0066    3.1925 C.ar    1  LIG1        0.1025
     27 C           0.4508    8.8693    3.9187 C.ar    1  LIG1        0.1730
     28 O           0.5094    7.7614    3.0726 O.2     1  LIG1       -0.4501
     29 C          -0.2362   10.3758    0.8082 C.3     1  LIG1       -0.0348
     30 H          -1.2628   10.6739    0.8543 H       1  LIG1        0.0279
     31 H          -0.0569    9.8549   -0.1092 H       1  LIG1        0.0279
     32 H           0.3894   11.2426    0.8543 H       1  LIG1        0.0279
     33 N          -0.0879   12.2931    4.0260 N.1     1  LIG1       -0.1907
     34 C           0.0298   11.2216    3.6354 C.1     1  LIG1        0.1033
     35 C           0.6727    8.6016    5.1714 C.ar    1  LIG1        0.1272
     36 C          -0.0615    8.8904    6.2784 C.ar    1  LIG1        0.1659
     37 C           0.6438    8.3649    7.4085 C.ar    1  LIG1        0.0849
     38 C           1.7772    7.7766    6.9421 C.ar    1  LIG1        0.0268
     39 N           1.7990    7.9196    5.5731 N.ar    1  LIG1       -0.3536
     40 H           2.5142    7.5832    4.9702 H       1  LIG1        0.1656
     41 H           2.7327    7.1650    7.5769 H       1  LIG1        0.0827
     42 O          -1.1943    9.5279    6.3029 O.3     1  LIG1       -0.5030
     43 H          -1.9173    8.8963    6.3090 H       1  LIG1        0.2923
     44 N           0.2720    8.4350    8.6522 N.pl3   1  LIG1       -0.3540
     45 H          -0.1151    9.3390    8.8339 H       1  LIG1        0.1425
     46 H          -0.4179    7.7343    8.8339 H       1  LIG1        0.1425
@<TRIPOS>BOND
     1    21    19    1
     2    20    19    1
     3    19    14    1
     4    22    23    3
     5    23    15    1
     6    14    15   ar
     7    14    13   ar
     8    12     9    1
     9    15    16   ar
    10    31    29    1
    11    10     9    1
    12     5     4   ar
    13     5     1   ar
    14    13     4    1
    15    13    17   ar
    16     4     3   ar
    17     9     8    1
    18     9    11    1
    19     8     3    1
    20     1     6    1
    21     1     2   ar
    22     3     2   ar
    23     2     7    1
    24    29    32    1
    25    29    30    1
    26    29    25    1
    27    16    17   ar
    28    16    24    1
    29    17    18    1
    30    24    25   ar
    31    24    28   ar
    32    25    26   ar
    33    28    27   ar
    34    26    34    1
    35    26    27   ar
    36    34    33    3
    37    27    35    1
    38    40    39    1
    39    35    39   ar
    40    35    36   ar
    41    39    38   ar
    42    36    42    1
    43    36    37   ar
    44    42    43    1
    45    38    37   ar
    46    38    41    1
    47    37    44    1
    48    44    45    1
    49    44    46    1
