@<TRIPOS>MOLECULE
mol_data/noopt/geoms/mol2/12al12al12al12al.out
 46 49 0 0 0
SMALL
GASTEIGER

@<TRIPOS>ATOM
      1 C           0.1763    1.8460    0.0000 C.ar    1  LIG1        0.0964
      2 C           1.5558    1.8460    0.0000 C.ar    1  LIG1        0.0187
      3 C           1.9706    3.2334    0.0000 C.ar    1  LIG1        0.1687
      4 C           0.8165    3.9895   -0.0001 C.ar    1  LIG1        0.2111
      5 O          -0.3030    3.1567   -0.0002 O.2     1  LIG1       -0.4560
      6 H          -0.7504    0.9343    0.0000 H       1  LIG1        0.1031
      7 H           2.3515    0.8179    0.0001 H       1  LIG1        0.0686
      8 O           3.1998    3.6567   -0.0000 O.3     1  LIG1       -0.4912
      9 C           4.0900    2.5376   -0.0001 C.3     1  LIG1        0.0790
     10 H           5.1015    2.8864   -0.0002 H       1  LIG1        0.0660
     11 H           3.9174    1.9445    0.8737 H       1  LIG1        0.0660
     12 H           3.9171    1.9444   -0.8736 H       1  LIG1        0.0660
     13 C           0.5416    5.2601   -0.0001 C.ar    1  LIG1        0.1780
     14 C           1.2792    6.4258   -0.0001 C.ar    1  LIG1        0.0300
     15 C           0.3286    7.5182   -0.0001 C.ar    1  LIG1        0.1694
     16 C          -0.9274    6.9472   -0.0002 C.ar    1  LIG1        0.2121
     17 O          -0.8223    5.5559   -0.0003 O.2     1  LIG1       -0.4447
     18 H           2.5734    6.5485   -0.0000 H       1  LIG1        0.0694
     19 O           0.6282    8.7833   -0.0001 O.3     1  LIG1       -0.4912
     20 C           2.0499    8.9371   -0.0002 C.3     1  LIG1        0.0790
     21 H           2.2960    9.9784   -0.0003 H       1  LIG1        0.0660
     22 H           2.4588    8.4741    0.8736 H       1  LIG1        0.0660
     23 H           2.4588    8.4738   -0.8737 H       1  LIG1        0.0660
     24 C          -2.1481    7.3943   -0.0002 C.ar    1  LIG1        0.1780
     25 C          -2.7387    8.6410   -0.0002 C.ar    1  LIG1        0.0300
     26 C          -4.1701    8.4218   -0.0002 C.ar    1  LIG1        0.1694
     27 C          -4.3593    7.0551   -0.0003 C.ar    1  LIG1        0.2121
     28 O          -3.1273    6.4000   -0.0004 O.2     1  LIG1       -0.4447
     29 H          -2.1504    9.8002   -0.0001 H       1  LIG1        0.0694
     30 O          -5.0790    9.3514   -0.0002 O.3     1  LIG1       -0.4912
     31 C          -4.4487   10.6350   -0.0003 C.3     1  LIG1        0.0790
     32 H          -5.1971   11.3998   -0.0004 H       1  LIG1        0.0660
     33 H          -3.8389   10.7330    0.8735 H       1  LIG1        0.0660
     34 H          -3.8387   10.7328   -0.8738 H       1  LIG1        0.0660
     35 C          -5.3898    6.2627   -0.0003 C.ar    1  LIG1        0.1770
     36 C          -6.7591    6.4302   -0.0003 C.ar    1  LIG1        0.0292
     37 C          -7.3393    5.1034   -0.0003 C.ar    1  LIG1        0.1583
     38 C          -6.2855    4.2128   -0.0004 C.ar    1  LIG1        0.1342
     39 O          -5.0732    4.9035   -0.0005 O.2     1  LIG1       -0.4560
     40 H          -6.1669    2.9182   -0.0004 H       1  LIG1        0.1068
     41 H          -7.4241    7.5472   -0.0002 H       1  LIG1        0.0693
     42 O          -8.6108    4.8325   -0.0003 O.3     1  LIG1       -0.4919
     43 C          -9.3585    6.0514   -0.0004 C.3     1  LIG1        0.0789
     44 H         -10.4049    5.8280   -0.0005 H       1  LIG1        0.0660
     45 H          -9.1152    6.6192    0.8734 H       1  LIG1        0.0660
     46 H          -9.1149    6.6192   -0.8739 H       1  LIG1        0.0660
@<TRIPOS>BOND
     1    46    43    1
     2    34    31    1
     3    23    20    1
     4    12     9    1
     5    44    43    1
     6    39    38   ar
     7    39    35   ar
     8    32    31    1
     9    28    27   ar
    10    28    24   ar
    11    40    38    1
    12    38    37   ar
    13    43    42    1
    14    43    45    1
    15    21    20    1
    16    27    35    1
    17    27    26   ar
    18    17    16   ar
    19    17    13   ar
    20    35    36   ar
    21    36    37   ar
    22    36    41    1
    23    37    42    1
    24    31    30    1
    25    31    33    1
    26    10     9    1
    27    24    25   ar
    28    24    16    1
    29    26    30    1
    30    26    25   ar
    31     5     4   ar
    32     5     1   ar
    33    25    29    1
    34    16    15   ar
    35    20    19    1
    36    20    22    1
    37    13     4    1
    38    13    14   ar
    39     4     3   ar
    40    14    15   ar
    41    14    18    1
    42    15    19    1
    43     9     8    1
    44     9    11    1
    45     8     3    1
    46     6     1    1
    47     1     2   ar
    48     3     2   ar
    49     2     7    1
