@<TRIPOS>MOLECULE
mol_data/noopt/geoms/mol2/12al12al-12al12al-.out
 46 49 0 0 0
SMALL
GASTEIGER

@<TRIPOS>ATOM
      1 C           0.1763    1.8460    0.0000 C.ar    1  LIG1        0.0964
      2 C           1.5558    1.8460    0.0000 C.ar    1  LIG1        0.0187
      3 C           1.9706    3.2334    0.0000 C.ar    1  LIG1        0.1687
      4 C           0.8165    3.9895   -0.0001 C.ar    1  LIG1        0.2111
      5 O          -0.3030    3.1567   -0.0002 O.2     1  LIG1       -0.4560
      6 H          -0.7504    0.9343    0.0000 H       1  LIG1        0.1031
      7 H           2.3515    0.8179    0.0001 H       1  LIG1        0.0686
      8 O           3.1998    3.6567   -0.0000 O.3     1  LIG1       -0.4912
      9 C           4.0900    2.5376   -0.0001 C.3     1  LIG1        0.0790
     10 H           5.1015    2.8864   -0.0002 H       1  LIG1        0.0660
     11 H           3.9174    1.9445    0.8737 H       1  LIG1        0.0660
     12 H           3.9171    1.9444   -0.8736 H       1  LIG1        0.0660
     13 C           0.5416    5.2601   -0.0001 C.ar    1  LIG1        0.1780
     14 C          -0.6119    6.0167   -0.0001 C.ar    1  LIG1        0.0300
     15 C          -0.1979    7.4043   -0.0001 C.ar    1  LIG1        0.1694
     16 C           1.1818    7.4036   -0.0002 C.ar    1  LIG1        0.2121
     17 O           1.6612    6.0932   -0.0003 O.2     1  LIG1       -0.4447
     18 H          -1.8411    5.5934   -0.0000 H       1  LIG1        0.0694
     19 O          -0.9936    8.4324   -0.0001 O.3     1  LIG1       -0.4912
     20 C          -0.2197    9.6349   -0.0002 C.3     1  LIG1        0.0790
     21 H          -0.8750   10.4808   -0.0004 H       1  LIG1        0.0660
     22 H           0.3974    9.6619    0.8736 H       1  LIG1        0.0660
     23 H           0.3976    9.6617   -0.8737 H       1  LIG1        0.0660
     24 C           2.1085    8.3153   -0.0002 C.ar    1  LIG1        0.1780
     25 C           3.4880    8.3153   -0.0001 C.ar    1  LIG1        0.0300
     26 C           3.9028    9.7027   -0.0001 C.ar    1  LIG1        0.1694
     27 C           2.7487   10.4588   -0.0002 C.ar    1  LIG1        0.2121
     28 O           1.6292    9.6260   -0.0003 O.2     1  LIG1       -0.4447
     29 H           4.2837    7.2872   -0.0000 H       1  LIG1        0.0694
     30 O           5.1320   10.1260   -0.0001 O.3     1  LIG1       -0.4912
     31 C           6.0222    9.0068   -0.0002 C.3     1  LIG1        0.0790
     32 H           7.0338    9.3557   -0.0003 H       1  LIG1        0.0660
     33 H           5.8496    8.4137    0.8736 H       1  LIG1        0.0660
     34 H           5.8494    8.4137   -0.8737 H       1  LIG1        0.0660
     35 C           2.4738   11.7294   -0.0002 C.ar    1  LIG1        0.1770
     36 C           1.3203   12.4859   -0.0002 C.ar    1  LIG1        0.0292
     37 C           1.7343   13.8736   -0.0002 C.ar    1  LIG1        0.1583
     38 C           3.1141   13.8729   -0.0003 C.ar    1  LIG1        0.1342
     39 O           3.5935   12.5625   -0.0004 O.2     1  LIG1       -0.4560
     40 H           4.0408   14.7846   -0.0002 H       1  LIG1        0.1068
     41 H           0.0911   12.0626   -0.0001 H       1  LIG1        0.0693
     42 O           0.9386   14.9017   -0.0002 O.3     1  LIG1       -0.4919
     43 C           1.7125   16.1041   -0.0003 C.3     1  LIG1        0.0789
     44 H           1.0573   16.9500   -0.0004 H       1  LIG1        0.0660
     45 H           2.3296   16.1312    0.8735 H       1  LIG1        0.0660
     46 H           2.3298   16.1310   -0.8738 H       1  LIG1        0.0660
@<TRIPOS>BOND
     1    46    43    1
     2    23    20    1
     3    34    31    1
     4    12     9    1
     5    44    43    1
     6    39    38   ar
     7    39    35   ar
     8    21    20    1
     9    28    27   ar
    10    28    24   ar
    11    32    31    1
    12    17    16   ar
    13    17    13   ar
    14    43    42    1
    15    43    45    1
    16    38    40    1
    17    38    37   ar
    18    10     9    1
    19    27    35    1
    20    27    26   ar
    21    36    35   ar
    22    36    37   ar
    23    36    41    1
    24     5     4   ar
    25     5     1   ar
    26    20    19    1
    27    20    22    1
    28    37    42    1
    29    16    24    1
    30    16    15   ar
    31    31    30    1
    32    31    33    1
    33    24    25   ar
    34    25    26   ar
    35    25    29    1
    36    14    15   ar
    37    14    13   ar
    38    14    18    1
    39    19    15    1
    40    26    30    1
    41    13     4    1
    42     4     3   ar
    43     9     8    1
    44     9    11    1
    45     8     3    1
    46     6     1    1
    47     1     2   ar
    48     3     2   ar
    49     2     7    1
