@<TRIPOS>MOLECULE
mol_data/noopt/geoms/mol2/12al4ha-6ae12ei4fa-12fi-12da-4ee.out
 92 100 0 0 0
SMALL
GASTEIGER

@<TRIPOS>ATOM
      1 C           0.1763    1.8460    0.0000 C.ar    1  LIG1        0.0962
      2 C           1.5558    1.8460    0.0000 C.ar    1  LIG1        0.0186
      3 C           1.9706    3.2334    0.0000 C.ar    1  LIG1        0.1656
      4 C           0.8165    3.9895   -0.0001 C.ar    1  LIG1        0.1779
      5 O          -0.3030    3.1567   -0.0002 O.2     1  LIG1       -0.4591
      6 H          -0.7504    0.9343    0.0000 H       1  LIG1        0.1031
      7 H           2.3515    0.8179    0.0001 H       1  LIG1        0.0686
      8 O           3.1998    3.6567   -0.0000 O.3     1  LIG1       -0.4913
      9 C           4.0900    2.5376   -0.0001 C.3     1  LIG1        0.0790
     10 H           5.1015    2.8864   -0.0002 H       1  LIG1        0.0660
     11 H           3.9174    1.9445    0.8737 H       1  LIG1        0.0660
     12 H           3.9171    1.9444   -0.8736 H       1  LIG1        0.0660
     13 C           1.5877    6.2051    0.0220 C.ar    1  LIG1        0.0360
     14 C           1.2377    7.5692    0.0226 C.ar    1  LIG1       -0.0326
     15 C           0.5416    5.2600   -0.0001 C.ar    1  LIG1        0.0415
     16 C          -0.0943    7.9766    0.0015 C.ar    1  LIG1       -0.0146
     17 H           2.0291    8.3151    0.0396 H       1  LIG1        0.0642
     18 C          -0.7883    5.6663   -0.0212 C.ar    1  LIG1       -0.0486
     19 C          -1.1157    7.0262   -0.0206 C.ar    1  LIG1       -0.0532
     20 H          -1.5769    4.9183   -0.0379 H       1  LIG1        0.0625
     21 N           2.8479    5.8865    0.0420 N.pl3   1  LIG1       -0.3574
     22 H           2.9779    5.0115   -0.4242 H       1  LIG1        0.1423
     23 H           3.3781    6.5946   -0.4243 H       1  LIG1        0.1423
     24 H          -2.3607    7.3999   -0.0402 H       1  LIG1        0.0624
     25 C          -1.7226    9.6698    0.0033 C.ar    1  LIG1        0.0362
     26 C          -0.3816    9.2445    0.0026 C.ar    1  LIG1        0.0015
     27 C           0.6248   10.2121    0.0033 C.ar    1  LIG1       -0.0356
     28 C           0.2611   11.5599    0.0046 C.ar    1  LIG1        0.0466
     29 C          -1.1075   11.8861    0.0051 C.ar    1  LIG1        0.1219
     30 N          -2.0913   10.9656    0.0045 N.ar    1  LIG1       -0.2500
     31 H           1.6839    9.9179    0.0018 H       1  LIG1        0.0637
     32 H          -2.6947    8.8066    0.0028 H       1  LIG1        0.0836
     33 C           1.1604   12.4986    0.0052 C.1     1  LIG1       -0.1092
     34 C           1.9914   13.3660    0.0057 C.2     1  LIG1       -0.0112
     35 H           2.7316   14.1387    0.0061 H       1  LIG1        0.0712
     36 C          -1.4959   13.1267    0.0063 C.ar    1  LIG1        0.1699
     37 C          -0.8666   14.3542    0.0221 C.ar    1  LIG1        0.0678
     38 C          -1.9118   15.3564    0.0127 C.ar    1  LIG1        0.0109
     39 C          -3.1111   14.6745   -0.0083 C.ar    1  LIG1        0.1433
     40 O          -2.8808   13.2983   -0.0127 O.2     1  LIG1       -0.4516
     41 C           0.4111   14.5930    0.0418 C.1     1  LIG1       -0.1073
     42 C           1.5917   14.8137    0.0600 C.2     1  LIG1       -0.0112
     43 H           2.6434   15.0103    0.0762 H       1  LIG1        0.0712
     44 C          -1.7276   16.6435    0.0224 C.3     1  LIG1       -0.0349
     45 H          -2.5425   17.1166    0.5295 H       1  LIG1        0.0279
     46 H          -1.6761   17.0041   -0.9838 H       1  LIG1        0.0279
     47 H          -0.8128   16.8691    0.5294 H       1  LIG1        0.0279
     48 C          -4.7307   16.3717   -0.0111 C.ar    1  LIG1        0.1282
     49 C          -6.1041   16.6828   -0.0279 C.ar    1  LIG1       -0.0087
     50 C          -4.3669   15.0096   -0.0244 C.ar    1  LIG1        0.0590
     51 C          -7.0742   15.6834   -0.0574 C.ar    1  LIG1        0.0244
     52 H          -6.4068   17.7275   -0.0178 H       1  LIG1        0.0661
     53 C          -5.3350   14.0116   -0.0539 C.ar    1  LIG1       -0.0469
     54 C          -6.6943   14.3408   -0.0707 C.ar    1  LIG1       -0.0501
     55 H          -5.0292   12.9685   -0.0636 H       1  LIG1        0.0626
     56 O          -3.8724   17.3478    0.0161 O.3     1  LIG1       -0.5060
     57 H          -4.3405   18.1860    0.0228 H       1  LIG1        0.2922
     58 H          -7.5948   13.4035   -0.0981 H       1  LIG1        0.0625
     59 C          -8.3333   16.0064   -0.0725 C.ar    1  LIG1        0.1774
     60 C          -9.0456   17.1878   -0.0691 C.ar    1  LIG1        0.1663
     61 C         -10.4478   16.8268   -0.0944 C.ar    1  LIG1        0.0405
     62 C         -10.4993   15.4482   -0.1117 C.ar    1  LIG1        0.1784
     63 O          -9.2081   14.9193   -0.0988 O.2     1  LIG1       -0.4476
     64 O          -8.5762   18.3999   -0.0474 O.3     1  LIG1       -0.5030
     65 H          -9.3043   19.0255   -0.0421 H       1  LIG1        0.2923
     66 C         -11.4451   17.6611   -0.0994 C.3     1  LIG1       -0.0325
     67 H         -12.2807   17.2211    0.4037 H       1  LIG1        0.0280
     68 H         -11.7158   17.8875   -1.1096 H       1  LIG1        0.0280
     69 H         -11.1595   18.5613    0.4036 H       1  LIG1        0.0280
     70 C         -11.4453   14.5568   -0.1366 C.ar    1  LIG1        0.1882
     71 C         -12.8243   14.5868   -0.1553 C.ar    1  LIG1        0.1011
     72 C         -13.2688   13.2088   -0.1796 C.ar    1  LIG1        0.0024
     73 C         -12.1313   12.4279   -0.1741 C.ar    1  LIG1        0.1383
     74 O         -10.9943   13.2362   -0.1478 O.2     1  LIG1       -0.4503
     75 N         -14.2797   16.5534   -0.1496 N.1     1  LIG1       -0.1907
     76 C         -13.5976   15.6318   -0.1523 C.1     1  LIG1        0.1031
     77 H         -14.5067   12.8123   -0.2020 H       1  LIG1        0.0668
     78 C         -12.9502   10.2295   -0.1938 C.ar    1  LIG1        0.0354
     79 C         -12.6297    8.8582   -0.2066 C.ar    1  LIG1       -0.0445
     80 C         -11.8839   11.1518   -0.1874 C.ar    1  LIG1        0.0338
     81 C         -11.3066    8.4223   -0.2135 C.ar    1  LIG1       -0.0451
     82 H         -13.4372    8.1295   -0.2116 H       1  LIG1        0.0630
     83 C         -10.5628   10.7171   -0.1942 C.ar    1  LIG1       -0.0345
     84 C         -10.2647    9.3506   -0.2073 C.ar    1  LIG1        0.0254
     85 H          -9.7582   11.4480   -0.1889 H       1  LIG1        0.0637
     86 H         -11.0467    7.1486   -0.2254 H       1  LIG1        0.0630
     87 C         -14.2034   10.5750   -0.1882 C.1     1  LIG1       -0.0690
     88 C         -15.3614   10.8943   -0.1831 C.1     1  LIG1       -0.1139
     89 H         -16.3929   11.1787   -0.1785 H       1  LIG1        0.1232
     90 C          -9.0280    8.9502   -0.2135 C.1     1  LIG1       -0.0696
     91 C          -7.8852    8.5802   -0.2192 C.1     1  LIG1       -0.1139
     92 H          -6.8672    8.2506   -0.2242 H       1  LIG1        0.1232
@<TRIPOS>BOND
     1    68    66    1
     2    46    44    1
     3    12     9    1
     4    23    21    1
     5    22    21    1
     6    86    81    1
     7    92    91    1
     8    91    90    3
     9    90    84    1
    10    81    84   ar
    11    81    79   ar
    12    82    79    1
    13    84    83   ar
    14    79    78   ar
    15    77    72    1
    16    83    85    1
    17    83    80   ar
    18    78    87    1
    19    78    80   ar
    20    87    88    3
    21    80    73    1
    22    88    89    1
    23    72    73   ar
    24    72    71   ar
    25    73    74   ar
    26    71    76    1
    27    71    70   ar
    28    76    75    3
    29    74    70   ar
    30    70    62    1
    31    62    63   ar
    32    62    61   ar
    33    66    61    1
    34    66    69    1
    35    66    67    1
    36    63    59   ar
    37    58    54    1
    38    61    60   ar
    39    59    60   ar
    40    59    51    1
    41    54    51   ar
    42    54    53   ar
    43    60    64    1
    44    55    53    1
    45    51    49   ar
    46    53    50   ar
    47    64    65    1
    48    24    19    1
    49    20    18    1
    50    49    52    1
    51    49    48   ar
    52    50    48   ar
    53    50    39    1
    54    18    19   ar
    55    18    15   ar
    56    19    16   ar
    57    40    39   ar
    58    40    36   ar
    59    48    56    1
    60    39    38   ar
    61    10     9    1
    62     5     4   ar
    63     5     1   ar
    64     4    15    1
    65     4     3   ar
    66    15    13   ar
    67     9     8    1
    68     9    11    1
    69     1     2   ar
    70     1     6    1
    71     2     3   ar
    72     2     7    1
    73     3     8    1
    74    16    26    1
    75    16    14   ar
    76    31    27    1
    77    26    25   ar
    78    26    27   ar
    79    32    25    1
    80    25    30   ar
    81    27    28   ar
    82    30    29   ar
    83    28    29   ar
    84    28    33    2
    85    29    36    2
    86    33    34    2
    87    34    35    1
    88    34    42    1
    89    36    37   ar
    90    38    37   ar
    91    38    44    1
    92    56    57    1
    93    13    14   ar
    94    13    21    1
    95    37    41    2
    96    44    47    1
    97    44    45    1
    98    14    17    1
    99    41    42    2
   100    42    43    1
