@<TRIPOS>MOLECULE
mol_data/noopt/geoms/mol2/12al12al-.out
 24 25 0 0 0
SMALL
GASTEIGER

@<TRIPOS>ATOM
      1 C           0.1763    1.8460    0.0000 C.ar    1  LIG1        0.0964
      2 C           1.5558    1.8460    0.0000 C.ar    1  LIG1        0.0187
      3 C           1.9706    3.2334    0.0000 C.ar    1  LIG1        0.1687
      4 C           0.8165    3.9895   -0.0001 C.ar    1  LIG1        0.2110
      5 O          -0.3030    3.1567   -0.0002 O.2     1  LIG1       -0.4560
      6 H          -0.7504    0.9343    0.0000 H       1  LIG1        0.1031
      7 H           2.3515    0.8179    0.0001 H       1  LIG1        0.0686
      8 O           3.1998    3.6567   -0.0000 O.3     1  LIG1       -0.4912
      9 C           4.0900    2.5376   -0.0001 C.3     1  LIG1        0.0790
     10 H           5.1015    2.8864   -0.0002 H       1  LIG1        0.0660
     11 H           3.9174    1.9445    0.8737 H       1  LIG1        0.0660
     12 H           3.9171    1.9444   -0.8736 H       1  LIG1        0.0660
     13 C           0.5416    5.2601   -0.0001 C.ar    1  LIG1        0.1770
     14 C          -0.6119    6.0167   -0.0001 C.ar    1  LIG1        0.0292
     15 C          -0.1979    7.4043   -0.0001 C.ar    1  LIG1        0.1583
     16 C           1.1818    7.4036   -0.0002 C.ar    1  LIG1        0.1342
     17 O           1.6612    6.0932   -0.0003 O.2     1  LIG1       -0.4560
     18 H           2.1085    8.3153   -0.0002 H       1  LIG1        0.1068
     19 H          -1.8411    5.5934   -0.0000 H       1  LIG1        0.0693
     20 O          -0.9936    8.4324   -0.0001 O.3     1  LIG1       -0.4919
     21 C          -0.2197    9.6349   -0.0002 C.3     1  LIG1        0.0789
     22 H          -0.8750   10.4808   -0.0004 H       1  LIG1        0.0660
     23 H           0.3974    9.6619    0.8736 H       1  LIG1        0.0660
     24 H           0.3976    9.6617   -0.8737 H       1  LIG1        0.0660
@<TRIPOS>BOND
     1    24    21    1
     2    12     9    1
     3    22    21    1
     4    17    16   ar
     5    17    13   ar
     6    10     9    1
     7     5     4   ar
     8     5     1   ar
     9    21    20    1
    10    21    23    1
    11    16    18    1
    12    16    15   ar
    13    14    15   ar
    14    14    13   ar
    15    14    19    1
    16    20    15    1
    17    13     4    1
    18     4     3   ar
    19     9     8    1
    20     9    11    1
    21     1     6    1
    22     1     2   ar
    23     8     3    1
    24     3     2   ar
    25     2     7    1
