@<TRIPOS>MOLECULE
mol_data/noopt/geoms/mol2/12al6lh-6ef13ea-.out
 50 53 0 0 0
SMALL
GASTEIGER

@<TRIPOS>ATOM
      1 C           0.1763    1.8460    0.0000 C.ar    1  LIG1        0.0962
      2 C           1.5558    1.8460    0.0000 C.ar    1  LIG1        0.0186
      3 C           1.9706    3.2334    0.0000 C.ar    1  LIG1        0.1657
      4 C           0.8165    3.9895   -0.0001 C.ar    1  LIG1        0.1813
      5 O          -0.3030    3.1567   -0.0002 O.2     1  LIG1       -0.4590
      6 H          -0.7504    0.9343    0.0000 H       1  LIG1        0.1031
      7 H           2.3515    0.8179    0.0001 H       1  LIG1        0.0686
      8 O           3.1998    3.6567   -0.0000 O.3     1  LIG1       -0.4913
      9 C           4.0900    2.5376   -0.0001 C.3     1  LIG1        0.0790
     10 H           5.1015    2.8864   -0.0002 H       1  LIG1        0.0660
     11 H           3.9174    1.9445    0.8737 H       1  LIG1        0.0660
     12 H           3.9171    1.9444   -0.8736 H       1  LIG1        0.0660
     13 C          -0.7951    5.6985   -0.0211 C.ar    1  LIG1        0.2262
     14 C           0.5416    5.2601   -0.0001 C.ar    1  LIG1        0.0841
     15 C           1.5571    6.2179    0.0209 C.ar    1  LIG1       -0.0230
     16 C           1.2066    7.5691    0.0200 C.ar    1  LIG1        0.0519
     17 C          -0.1586    7.9086   -0.0020 C.ar    1  LIG1        0.0982
     18 N          -1.1512    6.9977   -0.0223 N.ar    1  LIG1       -0.2104
     19 H           2.6132    5.9133    0.0367 H       1  LIG1        0.0645
     20 O          -1.7753    4.8448   -0.0410 O.3     1  LIG1       -0.4792
     21 C          -3.0205    5.5479   -0.0484 C.3     1  LIG1        0.0804
     22 H          -3.8270    4.8449   -0.0649 H       1  LIG1        0.0660
     23 H          -3.0934    6.1536    0.8307 H       1  LIG1        0.0660
     24 H          -3.0730    6.1713   -0.9164 H       1  LIG1        0.0660
     25 N           2.1148    8.4990    0.0389 N.pl3   1  LIG1       -0.3563
     26 H           2.9366    8.1718   -0.4276 H       1  LIG1        0.1424
     27 H           1.7683    9.3128   -0.4276 H       1  LIG1        0.1424
     28 C          -1.9028    9.4822   -0.0044 C.ar    1  LIG1        0.1233
     29 C          -0.5350    9.1529   -0.0037 C.ar    1  LIG1        0.0396
     30 C           0.4003   10.1895   -0.0044 C.ar    1  LIG1       -0.0061
     31 C          -0.0580   11.5080   -0.0060 C.ar    1  LIG1        0.1449
     32 C          -1.4463   11.7365   -0.0069 C.ar    1  LIG1        0.1309
     33 N          -2.3624   10.7485   -0.0060 N.ar    1  LIG1       -0.2326
     34 H           1.4776    9.9710   -0.0049 H       1  LIG1        0.0662
     35 C          -2.8113    8.5523   -0.0036 C.1     1  LIG1       -0.0491
     36 C          -3.6507    7.6931   -0.0030 C.1     1  LIG1       -0.1124
     37 H          -4.3984    6.9277   -0.0024 H       1  LIG1        0.1232
     38 O           0.7726   12.5082   -0.0070 O.3     1  LIG1       -0.5045
     39 H           0.2811   13.3328   -0.0072 H       1  LIG1        0.2922
     40 C          -1.9216   12.9464   -0.0083 C.ar    1  LIG1        0.0841
     41 C          -1.2813   14.1456   -0.0096 C.ar    1  LIG1        0.0515
     42 C          -2.2854   15.1666   -0.0097 C.ar    1  LIG1       -0.0283
     43 C          -3.4951   14.5465   -0.0102 C.ar    1  LIG1        0.0034
     44 N          -3.2770   13.1872   -0.0089 N.ar    1  LIG1       -0.3584
     45 H          -3.9858   12.4902   -0.0090 H       1  LIG1        0.1654
     46 H          -4.6970   15.0419   -0.0107 H       1  LIG1        0.0807
     47 C           0.0059   14.3279   -0.0092 C.1     1  LIG1       -0.0675
     48 C           1.1952   14.4963   -0.0088 C.1     1  LIG1       -0.1138
     49 H           2.2546   14.6464   -0.0085 H       1  LIG1        0.1232
     50 H          -2.0816   16.4505   -0.0098 H       1  LIG1        0.0645
@<TRIPOS>BOND
     1    24    21    1
     2    12     9    1
     3    27    25    1
     4    26    25    1
     5    22    21    1
     6    21    20    1
     7    21    23    1
     8    20    13    1
     9    18    13   ar
    10    18    17   ar
    11    13    14   ar
    12    46    43    1
    13    43    42   ar
    14    43    44   ar
    15    50    42    1
    16    42    41   ar
    17    41    47    1
    18    41    40   ar
    19    47    48    3
    20    45    44    1
    21    44    40   ar
    22    48    49    1
    23    40    32    1
    24    39    38    1
    25    38    31    1
    26    32    31   ar
    27    32    33   ar
    28    31    30   ar
    29    33    28   ar
    30    34    30    1
    31    30    29   ar
    32    28    29   ar
    33    28    35    1
    34    29    17    1
    35    35    36    3
    36    36    37    1
    37    17    16   ar
    38    10     9    1
    39     5     4   ar
    40     5     1   ar
    41     4    14    1
    42     4     3   ar
    43    14    15   ar
    44     9     8    1
    45     9    11    1
    46     1     2   ar
    47     1     6    1
    48     3     2   ar
    49     3     8    1
    50     2     7    1
    51    16    15   ar
    52    16    25    1
    53    15    19    1
