@<TRIPOS>MOLECULE
mol_data/noopt/geoms/mol2/12al4hi(60)13ii(220)6el(240).out
 57 60 0 0 0
SMALL
GASTEIGER

@<TRIPOS>ATOM
      1 C           0.1763    1.8460    0.0000 C.ar    1  LIG1        0.0962
      2 C           1.5558    1.8460    0.0000 C.ar    1  LIG1        0.0186
      3 C           1.9706    3.2334    0.0000 C.ar    1  LIG1        0.1656
      4 C           0.8165    3.9895   -0.0001 C.ar    1  LIG1        0.1779
      5 O          -0.3030    3.1567   -0.0002 O.2     1  LIG1       -0.4591
      6 H          -0.7504    0.9343    0.0000 H       1  LIG1        0.1031
      7 H           2.3515    0.8179    0.0001 H       1  LIG1        0.0686
      8 O           3.1998    3.6567   -0.0000 O.3     1  LIG1       -0.4913
      9 C           4.0900    2.5376   -0.0001 C.3     1  LIG1        0.0790
     10 H           5.1015    2.8864   -0.0002 H       1  LIG1        0.0660
     11 H           3.9174    1.9445    0.8737 H       1  LIG1        0.0660
     12 H           3.9171    1.9444   -0.8736 H       1  LIG1        0.0660
     13 C           0.9899    6.0757    1.0589 C.ar    1  LIG1        0.0361
     14 C           0.6648    7.4452    1.0132 C.ar    1  LIG1       -0.0310
     15 C           0.5416    5.2600   -0.0001 C.ar    1  LIG1        0.0418
     16 C          -0.0733    7.9812   -0.0397 C.ar    1  LIG1        0.0032
     17 H           1.0006    8.0926    1.8203 H       1  LIG1        0.0643
     18 C          -0.1953    5.7946   -1.0515 C.ar    1  LIG1       -0.0456
     19 C          -0.5078    7.1577   -1.0790 C.ar    1  LIG1       -0.0406
     20 H          -0.5296    5.1449   -1.8563 H       1  LIG1        0.0628
     21 N           1.6815    5.6342    2.0673 N.pl3   1  LIG1       -0.3574
     22 H           1.7276    4.6360    2.0282 H       1  LIG1        0.1423
     23 H           2.6064    6.0123    2.0282 H       1  LIG1        0.1423
     24 C          -1.1972    7.6518   -2.0646 C.3     1  LIG1       -0.0391
     25 H          -2.2060    7.3000   -2.0059 H       1  LIG1        0.0278
     26 H          -0.7649    7.3419   -2.9930 H       1  LIG1        0.0278
     27 H          -1.1881    8.7202   -2.0059 H       1  LIG1        0.0278
     28 C          -0.3555    9.2502   -0.0499 C.ar    1  LIG1        0.0504
     29 C          -1.3455    9.9284   -0.6886 C.ar    1  LIG1       -0.0217
     30 C          -1.1975   11.3136   -0.3572 C.ar    1  LIG1       -0.0216
     31 C          -0.1247   11.4208    0.4708 C.ar    1  LIG1        0.0529
     32 N           0.3941   10.1599    0.6612 N.ar    1  LIG1       -0.3537
     33 H           1.1841    9.9410    1.2234 H       1  LIG1        0.1659
     34 C          -2.2563    9.4112   -1.4591 C.3     1  LIG1       -0.0374
     35 H          -2.3347    8.3620   -1.2641 H       1  LIG1        0.0278
     36 H          -1.9863    9.5644   -2.4831 H       1  LIG1        0.0278
     37 H          -3.1974    9.8816   -1.2641 H       1  LIG1        0.0278
     38 C          -1.9489   12.2914   -0.7697 C.3     1  LIG1       -0.0374
     39 H          -2.9452   12.1542   -0.4045 H       1  LIG1        0.0278
     40 H          -1.9600   12.3058   -1.8396 H       1  LIG1        0.0278
     41 H          -1.5597   13.2188   -0.4045 H       1  LIG1        0.0278
     42 C           1.0287   12.3550    2.2916 C.ar    1  LIG1        0.1224
     43 C           0.4037   12.4655    1.0360 C.ar    1  LIG1        0.0358
     44 C           0.3664   13.7166    0.4176 C.ar    1  LIG1       -0.0067
     45 C           0.9491   14.8054    1.0683 C.ar    1  LIG1        0.1388
     46 C           1.5506   14.5948    2.3227 C.ar    1  LIG1        0.0706
     47 N           1.5957   13.3948    2.9336 N.ar    1  LIG1       -0.2424
     48 H          -0.1141   13.8418   -0.5631 H       1  LIG1        0.0662
     49 H           2.1063   15.5773    2.9676 H       1  LIG1        0.0867
     50 C           1.0888   11.2114    2.9069 C.1     1  LIG1       -0.0491
     51 C           1.1443   10.1547    3.4754 C.1     1  LIG1       -0.1124
     52 H           1.1937    9.2135    3.9819 H       1  LIG1        0.1232
     53 O           0.9404   15.9907    0.5344 O.3     1  LIG1       -0.4936
     54 C           2.2852   16.4357    0.3383 C.3     1  LIG1        0.0789
     55 H           2.2776   17.4112   -0.1013 H       1  LIG1        0.0660
     56 H           2.7895   16.4734    1.2813 H       1  LIG1        0.0660
     57 H           2.7948   15.7556   -0.3117 H       1  LIG1        0.0660
@<TRIPOS>BOND
     1    26    24    1
     2    36    34    1
     3    24    27    1
     4    24    25    1
     5    24    19    1
     6    20    18    1
     7    40    38    1
     8    34    37    1
     9    34    35    1
    10    34    29    1
    11    19    18   ar
    12    19    16   ar
    13    18    15   ar
    14    12     9    1
    15    38    41    1
    16    38    39    1
    17    38    30    1
    18    29    30   ar
    19    29    28   ar
    20    48    44    1
    21    30    31   ar
    22    57    54    1
    23    55    54    1
    24    28    16    1
    25    28    32   ar
    26    16    14   ar
    27    10     9    1
    28     5     4   ar
    29     5     1   ar
    30    15     4    1
    31    15    13   ar
    32     4     3   ar
    33     9     8    1
    34     9    11    1
    35     1     2   ar
    36     1     6    1
    37     2     3   ar
    38     2     7    1
    39     3     8    1
    40    54    53    1
    41    54    56    1
    42    44    43   ar
    43    44    45   ar
    44    31    32   ar
    45    31    43    1
    46    53    45    1
    47    32    33    1
    48    14    13   ar
    49    14    17    1
    50    43    42   ar
    51    13    21    1
    52    45    46   ar
    53    23    21    1
    54    22    21    1
    55    42    50    1
    56    42    47   ar
    57    46    47   ar
    58    46    49    1
    59    50    51    3
    60    51    52    1
