@<TRIPOS>MOLECULE
mol_data/noopt/geoms/mol2/12al13fa-13da-4de.out
 44 47 0 0 0
SMALL
GASTEIGER

@<TRIPOS>ATOM
      1 C           0.1763    1.8460    0.0000 C.ar    1  LIG1        0.0963
      2 C           1.5558    1.8460    0.0000 C.ar    1  LIG1        0.0187
      3 C           1.9706    3.2334    0.0000 C.ar    1  LIG1        0.1672
      4 C           0.8165    3.9895   -0.0001 C.ar    1  LIG1        0.1958
      5 O          -0.3030    3.1567   -0.0002 O.2     1  LIG1       -0.4575
      6 H          -0.7504    0.9343    0.0000 H       1  LIG1        0.1031
      7 H           2.3515    0.8179    0.0001 H       1  LIG1        0.0686
      8 O           3.1998    3.6567   -0.0000 O.3     1  LIG1       -0.4913
      9 C           4.0900    2.5376   -0.0001 C.3     1  LIG1        0.0790
     10 H           5.1015    2.8864   -0.0002 H       1  LIG1        0.0660
     11 H           3.9174    1.9445    0.8737 H       1  LIG1        0.0660
     12 H           3.9171    1.9444   -0.8736 H       1  LIG1        0.0660
     13 C           0.5416    5.2601   -0.0001 C.ar    1  LIG1        0.1282
     14 C           1.3662    6.3409   -0.0005 C.ar    1  LIG1        0.1458
     15 C           0.5391    7.5098    0.0008 C.ar    1  LIG1        0.0074
     16 C          -0.7546    7.0920    0.0002 C.ar    1  LIG1        0.0682
     17 N          -0.7576    5.7154    0.0001 N.ar    1  LIG1       -0.3475
     18 H          -1.5690    5.1412   -0.0005 H       1  LIG1        0.1661
     19 O           2.6659    6.3141   -0.0004 O.3     1  LIG1       -0.5045
     20 H           3.0049    7.2123   -0.0004 H       1  LIG1        0.2922
     21 H           0.9463    8.7444    0.0020 H       1  LIG1        0.0676
     22 C          -1.8613    7.7741    0.0007 C.ar    1  LIG1        0.0810
     23 C          -2.0695    9.1173    0.0174 C.ar    1  LIG1        0.0790
     24 C          -3.4855    9.3308    0.0102 C.ar    1  LIG1       -0.0183
     25 C          -4.0803    8.1086   -0.0122 C.ar    1  LIG1        0.0495
     26 N          -3.0896    7.1527   -0.0176 N.ar    1  LIG1       -0.3520
     27 H          -3.2377    6.1699   -0.0330 H       1  LIG1        0.1660
     28 N          -0.3387   10.8461    0.0555 N.1     1  LIG1       -0.1908
     29 C          -1.1498   10.0359    0.0376 C.1     1  LIG1        0.1013
     30 H          -4.0936   10.4797    0.0224 H       1  LIG1        0.0652
     31 C          -6.3249    8.7907   -0.0332 C.ar    1  LIG1        0.0609
     32 C          -7.6739    8.3864   -0.0470 C.ar    1  LIG1       -0.0426
     33 C          -5.3388    7.7831   -0.0263 C.ar    1  LIG1        0.0168
     34 C          -8.0276    7.0391   -0.0543 C.ar    1  LIG1       -0.0451
     35 H          -8.4509    9.1476   -0.0523 H       1  LIG1        0.0631
     36 C          -5.6914    6.4379   -0.0336 C.ar    1  LIG1       -0.0360
     37 C          -7.0370    6.0563   -0.0477 C.ar    1  LIG1        0.0254
     38 H          -4.9124    5.6797   -0.0280 H       1  LIG1        0.0637
     39 H          -9.2829    6.7014   -0.0671 H       1  LIG1        0.0630
     40 N          -5.8209   11.1848   -0.0220 N.1     1  LIG1       -0.1908
     41 C          -6.0571   10.0628   -0.0273 C.1     1  LIG1        0.0998
     42 C          -7.3606    4.7972   -0.0542 C.1     1  LIG1       -0.0696
     43 C          -7.6596    3.6339   -0.0603 C.1     1  LIG1       -0.1139
     44 H          -7.9260    2.5975   -0.0657 H       1  LIG1        0.1232
@<TRIPOS>BOND
     1    12     9    1
     2    39    34    1
     3    44    43    1
     4    43    42    3
     5    34    37   ar
     6    34    32   ar
     7    42    37    1
     8    35    32    1
     9    37    36   ar
    10    32    31   ar
    11    36    38    1
    12    36    33   ar
    13    31    41    1
    14    31    33   ar
    15    27    26    1
    16    41    40    3
    17    33    25    1
    18    26    25   ar
    19    26    22   ar
    20    25    24   ar
    21    18    17    1
    22    14    19    1
    23    14    13   ar
    24    14    15   ar
    25    19    20    1
    26    10     9    1
    27     5     4   ar
    28     5     1   ar
    29    13     4    1
    30    13    17   ar
    31     4     3   ar
    32     9     8    1
    33     9    11    1
    34     1     6    1
    35     1     2   ar
    36     8     3    1
    37     3     2   ar
    38     2     7    1
    39    17    16   ar
    40    16    22    1
    41    16    15   ar
    42    22    23   ar
    43    15    21    1
    44    24    23   ar
    45    24    30    1
    46    23    29    1
    47    29    28    3
