@<TRIPOS>MOLECULE
mol_data/noopt/geoms/mol2/12al12al-12al-12al-.out
 46 49 0 0 0
SMALL
GASTEIGER

@<TRIPOS>ATOM
      1 C           0.1763    1.8460    0.0000 C.ar    1  LIG1        0.0964
      2 C           1.5558    1.8460    0.0000 C.ar    1  LIG1        0.0187
      3 C           1.9706    3.2334    0.0000 C.ar    1  LIG1        0.1687
      4 C           0.8165    3.9895   -0.0001 C.ar    1  LIG1        0.2111
      5 O          -0.3030    3.1567   -0.0002 O.2     1  LIG1       -0.4560
      6 H          -0.7504    0.9343    0.0000 H       1  LIG1        0.1031
      7 H           2.3515    0.8179    0.0001 H       1  LIG1        0.0686
      8 O           3.1998    3.6567   -0.0000 O.3     1  LIG1       -0.4912
      9 C           4.0900    2.5376   -0.0001 C.3     1  LIG1        0.0790
     10 H           5.1015    2.8864   -0.0002 H       1  LIG1        0.0660
     11 H           3.9174    1.9445    0.8737 H       1  LIG1        0.0660
     12 H           3.9171    1.9444   -0.8736 H       1  LIG1        0.0660
     13 C           0.5416    5.2601   -0.0001 C.ar    1  LIG1        0.1780
     14 C          -0.6119    6.0167   -0.0001 C.ar    1  LIG1        0.0300
     15 C          -0.1979    7.4043   -0.0001 C.ar    1  LIG1        0.1694
     16 C           1.1818    7.4036   -0.0002 C.ar    1  LIG1        0.2121
     17 O           1.6612    6.0932   -0.0003 O.2     1  LIG1       -0.4447
     18 H          -1.8411    5.5934   -0.0000 H       1  LIG1        0.0694
     19 O          -0.9936    8.4324   -0.0001 O.3     1  LIG1       -0.4912
     20 C          -0.2197    9.6349   -0.0002 C.3     1  LIG1        0.0790
     21 H          -0.8750   10.4808   -0.0004 H       1  LIG1        0.0660
     22 H           0.3974    9.6619    0.8736 H       1  LIG1        0.0660
     23 H           0.3976    9.6617   -0.8737 H       1  LIG1        0.0660
     24 C           2.1085    8.3153   -0.0002 C.ar    1  LIG1        0.1780
     25 C           2.1310    9.6946   -0.0002 C.ar    1  LIG1        0.0300
     26 C           3.5250   10.0867   -0.0001 C.ar    1  LIG1        0.1694
     27 C           4.2622    8.9204   -0.0002 C.ar    1  LIG1        0.2121
     28 O           3.4112    7.8147   -0.0003 O.2     1  LIG1       -0.4447
     29 H           1.1161   10.5069   -0.0001 H       1  LIG1        0.0694
     30 O           3.9683   11.3088   -0.0001 O.3     1  LIG1       -0.4912
     31 C           5.3983   11.2978   -0.0002 C.3     1  LIG1        0.0790
     32 H           5.7627   12.3039   -0.0003 H       1  LIG1        0.0660
     33 H           5.7511   10.7908    0.8736 H       1  LIG1        0.0660
     34 H           5.7511   10.7906   -0.8737 H       1  LIG1        0.0660
     35 C           5.5281    8.6248   -0.0002 C.ar    1  LIG1        0.1770
     36 C           6.7057    9.3433   -0.0002 C.ar    1  LIG1        0.0292
     37 C           7.7825    8.3750   -0.0001 C.ar    1  LIG1        0.1583
     38 C           7.1911    7.1285   -0.0002 C.ar    1  LIG1        0.1342
     39 O           5.8017    7.2563   -0.0003 O.2     1  LIG1       -0.4560
     40 H           7.6182    5.9007   -0.0001 H       1  LIG1        0.1068
     41 H           6.8495   10.6354   -0.0001 H       1  LIG1        0.0693
     42 O           9.0522    8.6539   -0.0001 O.3     1  LIG1       -0.4919
     43 C           9.8076    7.4397   -0.0001 C.3     1  LIG1        0.0789
     44 H          10.8526    7.6697   -0.0003 H       1  LIG1        0.0660
     45 H           9.5678    6.8704    0.8736 H       1  LIG1        0.0660
     46 H           9.5676    6.8704   -0.8737 H       1  LIG1        0.0660
@<TRIPOS>BOND
     1    23    20    1
     2    34    31    1
     3    46    43    1
     4    12     9    1
     5    21    20    1
     6    32    31    1
     7    39    38   ar
     8    39    35   ar
     9    28    27   ar
    10    28    24   ar
    11    44    43    1
    12    17    16   ar
    13    17    13   ar
    14    10     9    1
    15     5     4   ar
    16     5     1   ar
    17    20    19    1
    18    20    22    1
    19    27    35    1
    20    27    26   ar
    21    38    40    1
    22    38    37   ar
    23    31    30    1
    24    31    33    1
    25    16    24    1
    26    16    15   ar
    27    35    36   ar
    28    25    24   ar
    29    25    26   ar
    30    25    29    1
    31    36    37   ar
    32    36    41    1
    33    43    42    1
    34    43    45    1
    35    14    15   ar
    36    14    13   ar
    37    14    18    1
    38    26    30    1
    39    19    15    1
    40    37    42    1
    41     4    13    1
    42     4     3   ar
    43     9     8    1
    44     9    11    1
    45     3     2   ar
    46     3     8    1
    47     2     1   ar
    48     2     7    1
    49     6     1    1
