@<TRIPOS>MOLECULE
mol_data/noopt/geoms/mol2/12al12al12al.out
 35 37 0 0 0
SMALL
GASTEIGER

@<TRIPOS>ATOM
      1 C           0.1763    1.8460    0.0000 C.ar    1  LIG1        0.0964
      2 C           1.5558    1.8460    0.0000 C.ar    1  LIG1        0.0187
      3 C           1.9706    3.2334    0.0000 C.ar    1  LIG1        0.1687
      4 C           0.8165    3.9895   -0.0001 C.ar    1  LIG1        0.2111
      5 O          -0.3030    3.1567   -0.0002 O.2     1  LIG1       -0.4560
      6 H          -0.7504    0.9343    0.0000 H       1  LIG1        0.1031
      7 H           2.3515    0.8179    0.0001 H       1  LIG1        0.0686
      8 O           3.1998    3.6567   -0.0000 O.3     1  LIG1       -0.4912
      9 C           4.0900    2.5376   -0.0001 C.3     1  LIG1        0.0790
     10 H           5.1015    2.8864   -0.0002 H       1  LIG1        0.0660
     11 H           3.9174    1.9445    0.8737 H       1  LIG1        0.0660
     12 H           3.9171    1.9444   -0.8736 H       1  LIG1        0.0660
     13 C           0.5416    5.2601   -0.0001 C.ar    1  LIG1        0.1780
     14 C           1.2792    6.4258   -0.0001 C.ar    1  LIG1        0.0300
     15 C           0.3286    7.5182   -0.0001 C.ar    1  LIG1        0.1694
     16 C          -0.9274    6.9472   -0.0002 C.ar    1  LIG1        0.2121
     17 O          -0.8223    5.5559   -0.0003 O.2     1  LIG1       -0.4447
     18 H           2.5734    6.5485   -0.0000 H       1  LIG1        0.0694
     19 O           0.6282    8.7833   -0.0001 O.3     1  LIG1       -0.4912
     20 C           2.0499    8.9371   -0.0002 C.3     1  LIG1        0.0790
     21 H           2.2960    9.9784   -0.0003 H       1  LIG1        0.0660
     22 H           2.4588    8.4741    0.8736 H       1  LIG1        0.0660
     23 H           2.4588    8.4738   -0.8737 H       1  LIG1        0.0660
     24 C          -2.1481    7.3943   -0.0002 C.ar    1  LIG1        0.1770
     25 C          -2.7387    8.6410   -0.0002 C.ar    1  LIG1        0.0292
     26 C          -4.1701    8.4218   -0.0002 C.ar    1  LIG1        0.1583
     27 C          -4.3593    7.0551   -0.0003 C.ar    1  LIG1        0.1342
     28 O          -3.1273    6.4000   -0.0004 O.2     1  LIG1       -0.4560
     29 H          -5.3898    6.2627   -0.0003 H       1  LIG1        0.1068
     30 H          -2.1504    9.8002   -0.0001 H       1  LIG1        0.0693
     31 O          -5.0790    9.3514   -0.0002 O.3     1  LIG1       -0.4919
     32 C          -4.4487   10.6350   -0.0003 C.3     1  LIG1        0.0789
     33 H          -5.1971   11.3998   -0.0004 H       1  LIG1        0.0660
     34 H          -3.8389   10.7330    0.8735 H       1  LIG1        0.0660
     35 H          -3.8387   10.7328   -0.8738 H       1  LIG1        0.0660
@<TRIPOS>BOND
     1    35    32    1
     2    23    20    1
     3    12     9    1
     4    33    32    1
     5    28    27   ar
     6    28    24   ar
     7    21    20    1
     8    17    16   ar
     9    17    13   ar
    10    27    29    1
    11    27    26   ar
    12    32    31    1
    13    32    34    1
    14    10     9    1
    15    24    25   ar
    16    24    16    1
    17    25    26   ar
    18    25    30    1
    19    31    26    1
    20    16    15   ar
    21     5     4   ar
    22     5     1   ar
    23    20    19    1
    24    20    22    1
    25    14    15   ar
    26    14    13   ar
    27    14    18    1
    28    19    15    1
    29    13     4    1
    30     4     3   ar
    31     9     8    1
    32     9    11    1
    33     1     6    1
    34     1     2   ar
    35     8     3    1
    36     3     2   ar
    37     2     7    1
