@<TRIPOS>MOLECULE
mol_data/noopt/geoms/mol2/12al12al-12al.out
 35 37 0 0 0
SMALL
GASTEIGER

@<TRIPOS>ATOM
      1 C           0.1763    1.8460    0.0000 C.ar    1  LIG1        0.0964
      2 C           1.5558    1.8460    0.0000 C.ar    1  LIG1        0.0187
      3 C           1.9706    3.2334    0.0000 C.ar    1  LIG1        0.1687
      4 C           0.8165    3.9895   -0.0001 C.ar    1  LIG1        0.2111
      5 O          -0.3030    3.1567   -0.0002 O.2     1  LIG1       -0.4560
      6 H          -0.7504    0.9343    0.0000 H       1  LIG1        0.1031
      7 H           2.3515    0.8179    0.0001 H       1  LIG1        0.0686
      8 O           3.1998    3.6567   -0.0000 O.3     1  LIG1       -0.4912
      9 C           4.0900    2.5376   -0.0001 C.3     1  LIG1        0.0790
     10 H           5.1015    2.8864   -0.0002 H       1  LIG1        0.0660
     11 H           3.9174    1.9445    0.8737 H       1  LIG1        0.0660
     12 H           3.9171    1.9444   -0.8736 H       1  LIG1        0.0660
     13 C           0.5416    5.2601   -0.0001 C.ar    1  LIG1        0.1780
     14 C          -0.6119    6.0167   -0.0001 C.ar    1  LIG1        0.0300
     15 C          -0.1979    7.4043   -0.0001 C.ar    1  LIG1        0.1694
     16 C           1.1818    7.4036   -0.0002 C.ar    1  LIG1        0.2121
     17 O           1.6612    6.0932   -0.0003 O.2     1  LIG1       -0.4447
     18 H          -1.8411    5.5934   -0.0000 H       1  LIG1        0.0694
     19 O          -0.9936    8.4324   -0.0001 O.3     1  LIG1       -0.4912
     20 C          -0.2197    9.6349   -0.0002 C.3     1  LIG1        0.0790
     21 H          -0.8750   10.4808   -0.0004 H       1  LIG1        0.0660
     22 H           0.3974    9.6619    0.8736 H       1  LIG1        0.0660
     23 H           0.3976    9.6617   -0.8737 H       1  LIG1        0.0660
     24 C           2.1085    8.3153   -0.0002 C.ar    1  LIG1        0.1770
     25 C           3.4880    8.3153   -0.0001 C.ar    1  LIG1        0.0292
     26 C           3.9028    9.7027   -0.0001 C.ar    1  LIG1        0.1583
     27 C           2.7487   10.4588   -0.0002 C.ar    1  LIG1        0.1342
     28 O           1.6292    9.6260   -0.0003 O.2     1  LIG1       -0.4560
     29 H           2.4738   11.7294   -0.0002 H       1  LIG1        0.1068
     30 H           4.2837    7.2872   -0.0000 H       1  LIG1        0.0693
     31 O           5.1320   10.1260   -0.0001 O.3     1  LIG1       -0.4919
     32 C           6.0222    9.0068   -0.0002 C.3     1  LIG1        0.0789
     33 H           7.0338    9.3557   -0.0003 H       1  LIG1        0.0660
     34 H           5.8496    8.4137    0.8736 H       1  LIG1        0.0660
     35 H           5.8494    8.4137   -0.8737 H       1  LIG1        0.0660
@<TRIPOS>BOND
     1    23    20    1
     2    35    32    1
     3    12     9    1
     4    21    20    1
     5    28    27   ar
     6    28    24   ar
     7    33    32    1
     8    17    16   ar
     9    17    13   ar
    10    10     9    1
    11    27    29    1
    12    27    26   ar
    13     5     4   ar
    14     5     1   ar
    15    20    19    1
    16    20    22    1
    17    16    24    1
    18    16    15   ar
    19    32    31    1
    20    32    34    1
    21    24    25   ar
    22    25    26   ar
    23    25    30    1
    24    14    15   ar
    25    14    13   ar
    26    14    18    1
    27    19    15    1
    28    26    31    1
    29    13     4    1
    30     4     3   ar
    31     9     8    1
    32     9    11    1
    33     1     6    1
    34     1     2   ar
    35     8     3    1
    36     3     2   ar
    37     2     7    1
