@<TRIPOS>MOLECULE
mol_data/noopt/geoms/mol2/12al12al12al-12al.out
 46 49 0 0 0
SMALL
GASTEIGER

@<TRIPOS>ATOM
      1 C           0.1763    1.8460    0.0000 C.ar    1  LIG1        0.0964
      2 C           1.5558    1.8460    0.0000 C.ar    1  LIG1        0.0187
      3 C           1.9706    3.2334    0.0000 C.ar    1  LIG1        0.1687
      4 C           0.8165    3.9895   -0.0001 C.ar    1  LIG1        0.2111
      5 O          -0.3030    3.1567   -0.0002 O.2     1  LIG1       -0.4560
      6 H          -0.7504    0.9343    0.0000 H       1  LIG1        0.1031
      7 H           2.3515    0.8179    0.0001 H       1  LIG1        0.0686
      8 O           3.1998    3.6567   -0.0000 O.3     1  LIG1       -0.4912
      9 C           4.0900    2.5376   -0.0001 C.3     1  LIG1        0.0790
     10 H           5.1015    2.8864   -0.0002 H       1  LIG1        0.0660
     11 H           3.9174    1.9445    0.8737 H       1  LIG1        0.0660
     12 H           3.9171    1.9444   -0.8736 H       1  LIG1        0.0660
     13 C           0.5416    5.2601   -0.0001 C.ar    1  LIG1        0.1780
     14 C           1.2792    6.4258   -0.0001 C.ar    1  LIG1        0.0300
     15 C           0.3286    7.5182   -0.0001 C.ar    1  LIG1        0.1694
     16 C          -0.9274    6.9472   -0.0002 C.ar    1  LIG1        0.2121
     17 O          -0.8223    5.5559   -0.0003 O.2     1  LIG1       -0.4447
     18 H           2.5734    6.5485   -0.0000 H       1  LIG1        0.0694
     19 O           0.6282    8.7833   -0.0001 O.3     1  LIG1       -0.4912
     20 C           2.0499    8.9371   -0.0002 C.3     1  LIG1        0.0790
     21 H           2.2960    9.9784   -0.0003 H       1  LIG1        0.0660
     22 H           2.4588    8.4741    0.8736 H       1  LIG1        0.0660
     23 H           2.4588    8.4738   -0.8737 H       1  LIG1        0.0660
     24 C          -2.1481    7.3943   -0.0002 C.ar    1  LIG1        0.1780
     25 C          -3.4042    6.8241   -0.0002 C.ar    1  LIG1        0.0300
     26 C          -4.3554    7.9160   -0.0002 C.ar    1  LIG1        0.1694
     27 C          -3.6171    9.0815   -0.0003 C.ar    1  LIG1        0.2121
     28 O          -2.2534    8.7859   -0.0004 O.2     1  LIG1       -0.4447
     29 H          -3.7038    5.5591   -0.0001 H       1  LIG1        0.0694
     30 O          -5.6497    7.7933   -0.0002 O.3     1  LIG1       -0.4912
     31 C          -6.2520    9.0903   -0.0003 C.3     1  LIG1        0.0790
     32 H          -7.3172    8.9889   -0.0005 H       1  LIG1        0.0660
     33 H          -5.9449    9.6262    0.8735 H       1  LIG1        0.0660
     34 H          -5.9446    9.6263   -0.8738 H       1  LIG1        0.0660
     35 C          -3.8920   10.3521   -0.0003 C.ar    1  LIG1        0.1770
     36 C          -3.1543   11.5178   -0.0002 C.ar    1  LIG1        0.0292
     37 C          -4.1049   12.6102   -0.0002 C.ar    1  LIG1        0.1583
     38 C          -5.3610   12.0393   -0.0003 C.ar    1  LIG1        0.1342
     39 O          -5.2558   10.6479   -0.0004 O.2     1  LIG1       -0.4560
     40 H          -6.5817   12.4864   -0.0003 H       1  LIG1        0.1068
     41 H          -1.8601   11.6405   -0.0001 H       1  LIG1        0.0693
     42 O          -3.8054   13.8753   -0.0002 O.3     1  LIG1       -0.4919
     43 C          -2.3837   14.0291   -0.0003 C.3     1  LIG1        0.0789
     44 H          -2.1375   15.0704   -0.0004 H       1  LIG1        0.0660
     45 H          -1.9747   13.5661    0.8735 H       1  LIG1        0.0660
     46 H          -1.9748   13.5659   -0.8738 H       1  LIG1        0.0660
@<TRIPOS>BOND
     1    34    31    1
     2    46    43    1
     3    23    20    1
     4    12     9    1
     5    32    31    1
     6    39    38   ar
     7    39    35   ar
     8    44    43    1
     9    28    27   ar
    10    28    24   ar
    11    21    20    1
    12    38    40    1
    13    38    37   ar
    14    17    16   ar
    15    17    13   ar
    16    31    30    1
    17    31    33    1
    18    27    35    1
    19    27    26   ar
    20    43    42    1
    21    43    45    1
    22    35    36   ar
    23    10     9    1
    24    36    37   ar
    25    36    41    1
    26    25    26   ar
    27    25    24   ar
    28    25    29    1
    29    30    26    1
    30    37    42    1
    31    24    16    1
    32    16    15   ar
    33     5     4   ar
    34     5     1   ar
    35    20    19    1
    36    20    22    1
    37    19    15    1
    38    15    14   ar
    39    14    13   ar
    40    14    18    1
    41     4    13    1
    42     4     3   ar
    43     9     8    1
    44     9    11    1
    45     1     2   ar
    46     1     6    1
    47     2     3   ar
    48     2     7    1
    49     3     8    1
