@<TRIPOS>MOLECULE
mol_data/noopt/geoms/mol2/12al6le(190)12ed(140)13ae(310).out
 48 47 0 0 0
SMALL
GASTEIGER

@<TRIPOS>ATOM
      1 C           0.1763    1.8460    0.0000 C.2     1  LIG1        0.0863
      2 C           1.5558    1.8460    0.0000 C.2     1  LIG1       -0.0245
      3 C           1.9706    3.2334    0.0000 C.3     2  LIG2        0.0000
      4 C           0.8165    3.9895   -0.0001 C.3     1  LIG1        0.2347
      5 O          -0.3030    3.1567   -0.0002 O.2     1  LIG1       -0.4793
      6 H          -0.7504    0.9343    0.0000 H       1  LIG1        0.1023
      7 H           2.3515    0.8179    0.0001 H       1  LIG1        0.0649
      8 O           3.1998    3.6567   -0.0000 O.3     2  LIG2       -0.3928
      9 C           4.0900    2.5376   -0.0001 C.3     3  LIG3       -0.0681
     10 H           5.1015    2.8864   -0.0002 H       3  LIG3        0.0227
     11 H           3.9174    1.9445    0.8737 H       3  LIG3        0.0227
     12 H           3.9171    1.9444   -0.8736 H       3  LIG3        0.0227
     13 C           1.5597    6.2080    0.2103 C.2     1  LIG1        0.2675
     14 C           0.5416    5.2601   -0.0001 C.2     1  LIG1        0.0661
     15 C          -0.7614    5.7162   -0.2076 C.2     1  LIG1       -0.0462
     16 C          -1.0016    7.0913   -0.1979 C.3     1  LIG1        0.1189
     17 C           0.0826    7.9608    0.0212 C.2     1  LIG1        0.1016
     18 N           1.3459    7.5380    0.2229 N.am    1  LIG1       -0.1756
     19 H          -1.5831    5.0054   -0.3744 H       1  LIG1        0.0597
     20 O           2.7885    5.8322    0.4079 O.2     1  LIG1       -0.2683
     21 C           2.8454    4.4052    0.4804 C.3     2  LIG2        0.0673
     22 H           3.8569    4.0963    0.6429 H       2  LIG2        0.0580
     23 H           2.2341    4.0645    1.2899 H       2  LIG2        0.0580
     24 H           2.4878    3.9869   -0.4372 H       2  LIG2        0.2095
     25 C          -2.1971    7.5661   -0.3860 C.1     1  LIG1       -0.0863
     26 C          -3.3017    8.0048   -0.5598 C.1     1  LIG1       -0.1179
     27 H          -4.2857    8.3956   -0.7146 H       1  LIG1        0.1228
     28 C          -0.0905    9.2491    0.0392 C.ar    1  LIG1        0.1660
     29 C          -0.9931   10.1119    0.6258 C.ar    1  LIG1        0.0895
     30 C          -0.6054   11.4498    0.2299 C.ar    1  LIG1        0.1149
     31 C           0.5089   11.3157   -0.5726 C.ar    1  LIG1        0.1704
     32 O           0.8458    9.9681   -0.7050 O.2     1  LIG1       -0.4497
     33 C          -2.0021    9.8104    1.3880 C.1     1  LIG1       -0.0645
     34 C          -2.9344    9.5319    2.0924 C.1     1  LIG1       -0.1138
     35 H          -3.7649    9.2838    2.7198 H       1  LIG1        0.1232
     36 N          -1.7403   13.5159    0.8848 N.1     1  LIG1       -0.1907
     37 C          -1.2084   12.5476    0.5779 C.1     1  LIG1        0.1043
     38 C           1.2924   12.1314   -1.2136 C.ar    1  LIG1        0.0846
     39 C           2.0653   11.9302   -2.3136 C.ar    1  LIG1       -0.0179
     40 C           2.7292   13.1659   -2.6017 C.ar    1  LIG1        0.0426
     41 C           2.3314   14.0683   -1.6660 C.ar    1  LIG1        0.0177
     42 N           1.4521   13.4390   -0.8139 N.ar    1  LIG1       -0.3571
     43 H           1.0033   13.8618   -0.0343 H       1  LIG1        0.1655
     44 H           2.6556   15.3172   -1.5071 H       1  LIG1        0.0819
     45 H           2.1794   10.8187   -2.9782 H       1  LIG1        0.0652
     46 C           3.5593   13.3878   -3.5772 C.1     1  LIG1       -0.0682
     47 C           4.3263   13.5929   -4.4786 C.1     1  LIG1       -0.1139
     48 H           5.0096   13.7756   -5.2815 H       1  LIG1        0.1232
@<TRIPOS>BOND
     1    48    47    1
     2    47    46    3
     3    46    40    1
     4    45    39    1
     5    40    39   ar
     6    40    41   ar
     7    39    38   ar
     8    41    44    1
     9    41    42   ar
    10    38    42   ar
    11    38    31    1
    12    12     9    1
    13    42    43    1
    14    27    26    1
    15    32    31   ar
    16    32    28   ar
    17    31    30   ar
    18    26    25    3
    19    24     8    1
    20    25    16    1
    21    19    15    1
    22    15    16    1
    23    15    14    2
    24    16    17    1
    25    10     9    1
    26     5     4    1
    27     5     1    1
    28     4    14    1
    29    14    13    1
    30     9    11    1
    31     1     6    1
    32     1     2    2
    33     2     7    1
    34     8    21    1
    35    17    28    1
    36    17    18    2
    37    28    29   ar
    38    13    18    1
    39    13    20    2
    40    30    37    1
    41    30    29   ar
    42    21    22    1
    43    21    23    1
    44    37    36    3
    45    29    33    1
    46    33    34    3
    47    34    35    1
