@<TRIPOS>MOLECULE
mol_data/noopt/geoms/mol2/12da12al4lh-4ed.out
 50 50 0 0 0
SMALL
GASTEIGER

@<TRIPOS>ATOM
      1 C           0.1763    1.8460    0.0000 C.ar    1  LIG1        0.1100
      2 C           1.5558    1.8460    0.0000 C.ar    1  LIG1        0.0901
      3 C           1.9706    3.2334    0.0000 C.ar    1  LIG1        0.0046
      4 C           0.8165    3.9895   -0.0001 C.ar    1  LIG1        0.1704
      5 O          -0.3030    3.1567   -0.0002 O.2     1  LIG1       -0.4585
      6 H          -0.7504    0.9343    0.0000 H       1  LIG1        0.1043
      7 N           3.0533   -0.0888    0.0002 N.1     1  LIG1       -0.1908
      8 C           2.3515    0.8179    0.0001 C.1     1  LIG1        0.1023
      9 H           3.1998    3.6567    0.0000 H       1  LIG1        0.0669
     10 C           0.5416    5.2601   -0.0001 C.2     1  LIG1        0.1642
     11 C           1.2791    6.4258    0.0147 C.2     1  LIG1       -0.0126
     12 C           0.3286    7.5182    0.0040 C.3     1  LIG1        0.0524
     13 C          -0.9273    6.9473   -0.0167 C.3     1  LIG1        0.1909
     14 O          -0.8221    5.5559   -0.0197 O.2     1  LIG1       -0.4722
     15 H           2.5732    6.5484    0.0345 H       1  LIG1        0.0656
     16 O           0.6281    8.7832    0.0126 O.3     1  LIG1       -0.3928
     17 C           2.0498    8.9371    0.0157 C.3     2  LIG2       -0.0681
     18 H           2.2959    9.9784    0.0225 H       2  LIG2        0.0227
     19 H           2.4574    8.4686    0.8870 H       2  LIG2        0.0227
     20 H           2.4600    8.4795   -0.8602 H       2  LIG2        0.0227
     21 C          -2.3872    8.7837   -0.0205 C.ar    1  LIG1        0.1868
     22 C          -3.7269    9.2174   -0.0381 C.ar    1  LIG1       -0.0050
     23 C          -2.1478    7.3944   -0.0335 C.ar    1  LIG1        0.0489
     24 C          -4.7832    8.3097   -0.0679 C.ar    1  LIG1        0.0076
     25 H          -3.9341   10.2852   -0.0283 H       1  LIG1        0.0662
     26 C          -3.2019    6.4877   -0.0633 C.ar    1  LIG1       -0.0297
     27 C          -4.5260    6.9382   -0.0808 C.ar    1  LIG1        0.0330
     28 H          -2.9914    5.4213   -0.0727 H       1  LIG1        0.0641
     29 O          -1.4444    9.6784    0.0070 O.3     1  LIG1       -0.2875
     30 C          -0.1703    9.0291    0.0170 C.3     1  LIG1        0.0673
     31 H           0.6053    9.7658    0.0394 H       1  LIG1        0.2095
     32 H          -0.0948    8.4051    0.8830 H       1  LIG1        0.0580
     33 H          -0.0682    8.4304   -0.8639 H       1  LIG1        0.0580
     34 N          -5.5074    6.0860   -0.1085 N.pl3   1  LIG1       -0.3575
     35 H          -6.2868    6.4906   -0.5869 H       1  LIG1        0.1423
     36 H          -5.2161    5.2576   -0.5870 H       1  LIG1        0.1423
     37 C          -6.2606   10.1320   -0.0914 C.ar    1  LIG1        0.0325
     38 C          -7.6045   10.5526   -0.1069 C.ar    1  LIG1       -0.0445
     39 C          -6.0080    8.7449   -0.0837 C.ar    1  LIG1        0.0006
     40 C          -8.6522    9.6346   -0.1150 C.ar    1  LIG1       -0.0432
     41 H          -7.8218   11.6184   -0.1129 H       1  LIG1        0.0630
     42 C          -7.0536    7.8280   -0.0917 C.ar    1  LIG1       -0.0354
     43 C          -8.3820    8.2656   -0.1075 C.ar    1  LIG1        0.0524
     44 H          -6.8330    6.7636   -0.0854 H       1  LIG1        0.0637
     45 H          -9.8813   10.0579   -0.1294 H       1  LIG1        0.0631
     46 C          -5.3262   11.0358   -0.0847 C.1     1  LIG1       -0.0691
     47 C          -4.4629   11.8710   -0.0786 C.1     1  LIG1       -0.1139
     48 H          -3.6938   12.6149   -0.0731 H       1  LIG1        0.1232
     49 N         -10.2138    6.6437   -0.1213 N.1     1  LIG1       -0.1909
     50 C          -9.3553    7.4038   -0.1149 C.1     1  LIG1        0.0992
@<TRIPOS>BOND
     1    33    30    1
     2    20    17    1
     3    36    34    1
     4    35    34    1
     5    45    40    1
     6    49    50    3
     7    40    43   ar
     8    40    38   ar
     9    50    43    1
    10    41    38    1
    11    34    27    1
    12    43    42   ar
    13    38    37   ar
    14    42    44    1
    15    42    39   ar
    16    37    46    1
    17    37    39   ar
    18    46    47    3
    19    39    24    1
    20    27    24   ar
    21    27    26   ar
    22    47    48    1
    23    28    26    1
    24    24    22   ar
    25    26    23   ar
    26    22    25    1
    27    22    21   ar
    28    23    21   ar
    29    23    13    1
    30    21    29    1
    31    14    13    1
    32    14    10    1
    33    13    12    1
    34     5     4   ar
    35     5     1   ar
    36     4    10    1
    37     4     3   ar
    38    10    11    2
    39     2     3   ar
    40     2     1   ar
    41     2     8    1
    42     3     9    1
    43     6     1    1
    44     8     7    3
    45    16    30    1
    46    16    31    1
    47    11    15    1
    48    17    18    1
    49    17    19    1
    50    30    32    1
