@<TRIPOS>MOLECULE
mol_data/noopt/geoms/mol2/12da13ii(50)12hl(250)6ea(40).out
 48 51 0 0 0
SMALL
GASTEIGER

@<TRIPOS>ATOM
      1 C           0.1763    1.8460    0.0000 C.ar    1  LIG1        0.1100
      2 C           1.5558    1.8460    0.0000 C.ar    1  LIG1        0.0900
      3 C           1.9706    3.2334    0.0000 C.ar    1  LIG1        0.0030
      4 C           0.8165    3.9895   -0.0001 C.ar    1  LIG1        0.1524
      5 O          -0.3030    3.1567   -0.0002 O.2     1  LIG1       -0.4601
      6 H          -0.7504    0.9343    0.0000 H       1  LIG1        0.1043
      7 N           3.0533   -0.0888    0.0002 N.1     1  LIG1       -0.1908
      8 C           2.3515    0.8179    0.0001 C.1     1  LIG1        0.1023
      9 H           3.1998    3.6567    0.0000 H       1  LIG1        0.0669
     10 C           0.5416    5.2601   -0.0001 C.ar    1  LIG1        0.0858
     11 C           1.0367    6.2696    0.7639 C.ar    1  LIG1       -0.0186
     12 C           0.3876    7.4771    0.3502 C.ar    1  LIG1       -0.0185
     13 C          -0.4745    7.1526   -0.6497 C.ar    1  LIG1        0.0878
     14 N          -0.3837    5.7963   -0.8670 N.ar    1  LIG1       -0.3489
     15 H          -0.9033    5.2853   -1.5430 H       1  LIG1        0.1661
     16 C           1.9336    6.1556    1.6985 C.3     1  LIG1       -0.0373
     17 H           1.9301    7.0367    2.3056 H       1  LIG1        0.0278
     18 H           2.8989    6.0330    1.2535 H       1  LIG1        0.0278
     19 H           1.7098    5.3033    2.3055 H       1  LIG1        0.0278
     20 C           0.5840    8.6663    0.8380 C.3     1  LIG1       -0.0373
     21 H          -0.2549    8.9482    1.4394 H       1  LIG1        0.0278
     22 H           0.6995    9.3659    0.0367 H       1  LIG1        0.0278
     23 H           1.4690    8.6634    1.4393 H       1  LIG1        0.0278
     24 C          -1.2828    7.8992   -1.3419 C.ar    1  LIG1        0.1763
     25 C          -1.7967    7.8685   -2.6217 C.ar    1  LIG1        0.1154
     26 C          -2.6560    9.0268   -2.7516 C.ar    1  LIG1        0.1871
     27 C          -2.6103    9.6887   -1.5419 C.ar    1  LIG1        0.1817
     28 O          -1.7703    9.0128   -0.6563 O.2     1  LIG1       -0.4476
     29 N          -1.5707    6.9857   -3.5489 N.pl3   1  LIG1       -0.3521
     30 H          -2.3872    6.8826   -4.1171 H       1  LIG1        0.1425
     31 H          -0.8052    7.2875   -4.1171 H       1  LIG1        0.1425
     32 O          -3.3289    9.3556   -3.8143 O.3     1  LIG1       -0.4896
     33 C          -2.9841   10.6874   -4.2044 C.3     1  LIG1        0.0791
     34 H          -3.5380   10.9576   -5.0791 H       1  LIG1        0.0660
     35 H          -3.2198   11.3642   -3.4098 H       1  LIG1        0.0660
     36 H          -1.9364   10.7371   -4.4162 H       1  LIG1        0.0660
     37 C          -4.4130   11.1945   -1.5088 C.ar    1  LIG1        0.1239
     38 C          -3.1534   10.7641   -1.0534 C.ar    1  LIG1        0.0548
     39 C          -2.5071   11.5160   -0.0706 C.ar    1  LIG1       -0.0469
     40 C          -3.1349   12.6623    0.4197 C.ar    1  LIG1       -0.0428
     41 C          -4.3953   13.0116   -0.0989 C.ar    1  LIG1        0.0290
     42 N          -5.0332   12.2976   -1.0469 N.ar    1  LIG1       -0.2460
     43 H          -1.5215   11.2115    0.3091 H       1  LIG1        0.0626
     44 H          -5.0198   14.0697    0.3259 H       1  LIG1        0.0830
     45 C          -5.0540   10.5278   -2.4224 C.1     1  LIG1       -0.0491
     46 C          -5.6461    9.9117   -3.2666 C.1     1  LIG1       -0.1124
     47 H          -6.1737    9.3630   -4.0186 H       1  LIG1        0.1232
     48 H          -2.5745   13.3963    1.3348 H       1  LIG1        0.0633
@<TRIPOS>BOND
     1    34    33    1
     2    36    33    1
     3    33    32    1
     4    33    35    1
     5    31    29    1
     6    30    29    1
     7    47    46    1
     8    32    26    1
     9    29    25    1
    10    46    45    3
    11    26    25   ar
    12    26    27   ar
    13    25    24   ar
    14    45    37    1
    15    15    14    1
    16    27    38    1
    17    27    28   ar
    18    37    38   ar
    19    37    42   ar
    20    24    28   ar
    21    24    13    1
    22    38    39   ar
    23    42    41   ar
    24    14    13   ar
    25    14    10   ar
    26    13    12   ar
    27    41    44    1
    28    41    40   ar
    29    39    43    1
    30    39    40   ar
    31     5     4   ar
    32     5     1   ar
    33    10     4    1
    34    10    11   ar
    35     4     3   ar
    36     1     2   ar
    37     1     6    1
    38     2     3   ar
    39     2     8    1
    40     3     9    1
    41     8     7    3
    42    22    20    1
    43    12    11   ar
    44    12    20    1
    45    40    48    1
    46    11    16    1
    47    20    23    1
    48    20    21    1
    49    18    16    1
    50    16    19    1
    51    16    17    1
