@<TRIPOS>MOLECULE
mol_data/noopt/geoms/mol2/12da12fe(280)6dd(330)13fd(100).out
 41 44 0 0 0
SMALL
GASTEIGER

@<TRIPOS>ATOM
      1 C           0.1763    1.8460    0.0000 C.ar    1  LIG1        0.1100
      2 C           1.5558    1.8460    0.0000 C.ar    1  LIG1        0.0901
      3 C           1.9706    3.2334    0.0000 C.ar    1  LIG1        0.0048
      4 C           0.8165    3.9895   -0.0001 C.ar    1  LIG1        0.1747
      5 O          -0.3030    3.1567   -0.0002 O.2     1  LIG1       -0.4584
      6 H          -0.7504    0.9343    0.0000 H       1  LIG1        0.1043
      7 N           3.0533   -0.0888    0.0002 N.1     1  LIG1       -0.1908
      8 C           2.3515    0.8179    0.0001 C.1     1  LIG1        0.1023
      9 H           3.1998    3.6567    0.0000 H       1  LIG1        0.0669
     10 C           0.5416    5.2601   -0.0001 C.ar    1  LIG1        0.2129
     11 C           0.5202    6.2616   -0.9485 C.ar    1  LIG1        0.1821
     12 C           0.1173    7.4725   -0.2642 C.ar    1  LIG1        0.1126
     13 C          -0.0810    7.1304    1.0577 C.ar    1  LIG1        0.1576
     14 O           0.1742    5.7715    1.2454 O.2     1  LIG1       -0.4466
     15 O           0.8018    6.1652   -2.2141 O.3     1  LIG1       -0.5023
     16 H           1.1644    6.9975   -2.5259 H       1  LIG1        0.2923
     17 C          -0.0227    8.6424   -0.8134 C.1     1  LIG1       -0.0622
     18 C          -0.1520    9.7234   -1.3210 C.1     1  LIG1       -0.1137
     19 H          -0.2673   10.6863   -1.7730 H       1  LIG1        0.1232
     20 C          -1.3034    7.1550    3.0636 C.ar    1  LIG1        0.1515
     21 C          -0.4399    7.7639    2.1346 C.ar    1  LIG1        0.0557
     22 C           0.0182    9.0562    2.3978 C.ar    1  LIG1       -0.0288
     23 C          -0.3980    9.6911    3.5692 C.ar    1  LIG1        0.0800
     24 C          -1.2635    8.9997    4.4367 C.ar    1  LIG1        0.1095
     25 N          -1.7149    7.7528    4.1985 N.ar    1  LIG1       -0.2327
     26 H           0.6932    9.5645    1.6948 H       1  LIG1        0.0639
     27 N          -2.1557    4.8930    2.6856 N.1     1  LIG1       -0.1893
     28 C          -1.7563    5.9531    2.8627 C.1     1  LIG1        0.1198
     29 N           0.3514   11.9551    4.1156 N.1     1  LIG1       -0.1908
     30 C           0.0002   10.8941    3.8596 C.1     1  LIG1        0.1014
     31 C          -1.6786    9.5487    5.5395 C.ar    1  LIG1        0.1095
     32 C          -1.5953    9.1165    6.8257 C.ar    1  LIG1        0.1610
     33 C          -2.2149   10.1089    7.6514 C.ar    1  LIG1        0.1110
     34 C          -2.6482   11.1048    6.8336 C.ar    1  LIG1        0.0233
     35 N          -2.3223   10.7656    5.5398 N.ar    1  LIG1       -0.3553
     36 H          -2.5198   11.3129    4.7339 H       1  LIG1        0.1655
     37 H          -3.2667   12.2143    7.1101 H       1  LIG1        0.0821
     38 O          -1.0534    8.0054    7.2280 O.3     1  LIG1       -0.5034
     39 H          -0.1065    8.1282    7.3271 H       1  LIG1        0.2923
     40 N          -2.4529   10.0334   10.0852 N.1     1  LIG1       -0.1907
     41 C          -2.3414   10.0688    8.9446 C.1     1  LIG1        0.1043
@<TRIPOS>BOND
     1    16    15    1
     2    15    11    1
     3    19    18    1
     4    18    17    3
     5    11    12   ar
     6    11    10   ar
     7    17    12    1
     8    12    13   ar
     9     5     4   ar
    10     5     1   ar
    11     4    10    1
    12     4     3   ar
    13    10    14   ar
    14     1     6    1
    15     1     2   ar
    16     9     3    1
    17     3     2   ar
    18     2     8    1
    19     8     7    3
    20    13    14   ar
    21    13    21    1
    22    26    22    1
    23    21    22   ar
    24    21    20   ar
    25    22    23   ar
    26    27    28    3
    27    28    20    1
    28    20    25   ar
    29    23    30    1
    30    23    24   ar
    31    30    29    3
    32    25    24   ar
    33    24    31    1
    34    36    35    1
    35    31    35   ar
    36    31    32   ar
    37    35    34   ar
    38    32    38    1
    39    32    33   ar
    40    34    37    1
    41    34    33   ar
    42    38    39    1
    43    33    41    1
    44    41    40    3
