@<TRIPOS>MOLECULE
mol_data/noopt/geoms/mol2/12da4he-4ah4af.out
 47 50 0 0 0
SMALL
GASTEIGER

@<TRIPOS>ATOM
      1 C           0.1763    1.8460    0.0000 C.ar    1  LIG1        0.1099
      2 C           1.5558    1.8460    0.0000 C.ar    1  LIG1        0.0900
      3 C           1.9706    3.2334    0.0000 C.ar    1  LIG1        0.0016
      4 C           0.8165    3.9895   -0.0001 C.ar    1  LIG1        0.1379
      5 O          -0.3030    3.1567   -0.0002 O.2     1  LIG1       -0.4616
      6 H          -0.7504    0.9343    0.0000 H       1  LIG1        0.1043
      7 N           3.0533   -0.0888    0.0002 N.1     1  LIG1       -0.1908
      8 C           2.3515    0.8179    0.0001 C.1     1  LIG1        0.1023
      9 H           3.1998    3.6567    0.0000 H       1  LIG1        0.0668
     10 C           1.5877    6.2051    0.0220 C.ar    1  LIG1        0.0360
     11 C           1.2377    7.5692    0.0226 C.ar    1  LIG1       -0.0315
     12 C           0.5416    5.2600   -0.0001 C.ar    1  LIG1        0.0391
     13 C          -0.0943    7.9766    0.0015 C.ar    1  LIG1       -0.0007
     14 H           2.0291    8.3151    0.0396 H       1  LIG1        0.0643
     15 C          -0.7883    5.6663   -0.0212 C.ar    1  LIG1       -0.0333
     16 C          -1.1157    7.0262   -0.0206 C.ar    1  LIG1        0.0332
     17 H          -1.5769    4.9183   -0.0379 H       1  LIG1        0.0638
     18 N           2.8479    5.8865    0.0420 N.pl3   1  LIG1       -0.3574
     19 H           2.9779    5.0115   -0.4242 H       1  LIG1        0.1423
     20 H           3.3781    6.5946   -0.4243 H       1  LIG1        0.1423
     21 C          -2.3607    7.3999   -0.0402 C.1     1  LIG1       -0.0690
     22 C          -3.5110    7.7453   -0.0583 C.1     1  LIG1       -0.1139
     23 H          -4.5357    8.0530   -0.0744 H       1  LIG1        0.1232
     24 C           0.6555   10.1996    0.0039 C.ar    1  LIG1       -0.0533
     25 C           0.2922   11.5603    0.0066 C.ar    1  LIG1       -0.0517
     26 C          -0.3815    9.2445    0.0026 C.ar    1  LIG1       -0.0149
     27 C          -1.0438   11.9547    0.0073 C.ar    1  LIG1        0.0029
     28 H           1.0766   12.3139    0.0079 H       1  LIG1        0.0624
     29 C          -1.7155    9.6377    0.0033 C.ar    1  LIG1       -0.0327
     30 C          -2.0561   10.9943    0.0055 C.ar    1  LIG1        0.0329
     31 H          -2.4969    8.8821    0.0023 H       1  LIG1        0.0642
     32 H           1.9189    9.8934    0.0031 H       1  LIG1        0.0624
     33 N          -3.3048   11.3560    0.0063 N.pl3   1  LIG1       -0.3575
     34 H          -3.3981   12.2331   -0.4649 H       1  LIG1        0.1423
     35 H          -3.8524   10.6646   -0.4649 H       1  LIG1        0.1423
     36 C          -0.3156   14.1849    0.0117 C.ar    1  LIG1       -0.0537
     37 C          -0.6920   15.5420    0.0158 C.ar    1  LIG1       -0.0577
     38 C          -1.3433   13.2197    0.0097 C.ar    1  LIG1       -0.0127
     39 C          -2.0318   15.9234    0.0172 C.ar    1  LIG1       -0.0201
     40 H           0.0850   16.3031    0.0176 H       1  LIG1        0.0619
     41 C          -2.6810   13.6000    0.0110 C.ar    1  LIG1       -0.0124
     42 C          -3.0348   14.9533    0.0147 C.ar    1  LIG1        0.1174
     43 H          -3.4551   12.8368    0.0095 H       1  LIG1        0.0660
     44 H          -2.3436   17.1855    0.0209 H       1  LIG1        0.0654
     45 H           0.9507   13.8909    0.0103 H       1  LIG1        0.0624
     46 O          -4.2870   15.3028    0.0161 O.3     1  LIG1       -0.5067
     47 H          -4.8389   14.5173    0.0165 H       1  LIG1        0.2921
@<TRIPOS>BOND
     1    35    33    1
     2    34    33    1
     3    20    18    1
     4    19    18    1
     5    23    22    1
     6    22    21    3
     7    21    16    1
     8    17    15    1
     9    15    16   ar
    10    15    12   ar
    11    16    13   ar
    12     5     4   ar
    13     5     1   ar
    14    12     4    1
    15    12    10   ar
    16     4     3   ar
    17     9     3    1
    18     6     1    1
    19     1     2   ar
    20     3     2   ar
    21     2     8    1
    22     8     7    3
    23    13    26    1
    24    13    11   ar
    25    31    29    1
    26    26    29   ar
    27    26    24   ar
    28    32    24    1
    29    29    30   ar
    30    24    25   ar
    31    30    33    1
    32    30    27   ar
    33    25    27   ar
    34    25    28    1
    35    27    38    1
    36    43    41    1
    37    38    41   ar
    38    38    36   ar
    39    45    36    1
    40    41    42   ar
    41    36    37   ar
    42    42    46    1
    43    42    39   ar
    44    37    39   ar
    45    37    40    1
    46    46    47    1
    47    39    44    1
    48    10    11   ar
    49    10    18    1
    50    11    14    1
