@<TRIPOS>MOLECULE
mol_data/noopt/geoms/mol2/12da12lf-6id4if12fa-6fi-4aa6ff.out
 91 97 0 0 0
SMALL
GASTEIGER

@<TRIPOS>ATOM
      1 C           0.1763    1.8460    0.0000 C.ar    1  LIG1        0.1100
      2 C           1.5558    1.8460    0.0000 C.ar    1  LIG1        0.0901
      3 C           1.9706    3.2334    0.0000 C.ar    1  LIG1        0.0048
      4 C           0.8165    3.9895   -0.0001 C.ar    1  LIG1        0.1748
      5 O          -0.3030    3.1567   -0.0002 O.2     1  LIG1       -0.4584
      6 H          -0.7504    0.9343    0.0000 H       1  LIG1        0.1043
      7 N           3.0533   -0.0888    0.0002 N.1     1  LIG1       -0.1908
      8 C           2.3515    0.8179    0.0001 C.1     1  LIG1        0.1023
      9 H           3.1998    3.6567    0.0000 H       1  LIG1        0.0669
     10 C           0.5416    5.2601   -0.0001 C.ar    1  LIG1        0.2157
     11 C           1.2792    6.4258   -0.0001 C.ar    1  LIG1        0.2114
     12 C           0.3286    7.5182   -0.0001 C.ar    1  LIG1        0.2062
     13 C          -0.9274    6.9472   -0.0002 C.ar    1  LIG1        0.1826
     14 O          -0.8223    5.5559   -0.0003 O.2     1  LIG1       -0.4440
     15 O           2.5735    6.5485   -0.0000 O.3     1  LIG1       -0.4883
     16 C           3.1758    5.2515   -0.0000 C.3     1  LIG1        0.0791
     17 H           4.2410    5.3529   -0.0001 H       1  LIG1        0.0660
     18 H           2.8686    4.7155    0.8737 H       1  LIG1        0.0660
     19 H           2.8685    4.7155   -0.8736 H       1  LIG1        0.0660
     20 O           0.6282    8.7833   -0.0001 O.3     1  LIG1       -0.5008
     21 H          -0.1786    9.3036   -0.0001 H       1  LIG1        0.2924
     22 C          -3.2334    6.4990   -0.0000 C.ar    1  LIG1        0.0497
     23 C          -2.1481    7.3943   -0.0002 C.ar    1  LIG1        0.0427
     24 C          -2.4144    8.7648   -0.0000 C.ar    1  LIG1       -0.0385
     25 C          -3.7436    9.1911    0.0001 C.ar    1  LIG1        0.0215
     26 C          -4.7606    8.2188    0.0000 C.ar    1  LIG1        0.0803
     27 N          -4.5217    6.8928    0.0001 N.ar    1  LIG1       -0.2505
     28 H          -1.5923    9.4945   -0.0012 H       1  LIG1        0.0632
     29 C          -3.0361    5.2138   -0.0001 C.3     1  LIG1       -0.0216
     30 H          -2.1185    4.9937    0.5043 H       1  LIG1        0.0293
     31 H          -2.9819    4.8613   -1.0089 H       1  LIG1        0.0293
     32 H          -3.8456    4.7287    0.5043 H       1  LIG1        0.0293
     33 N          -4.3085   11.5716    0.0000 N.2     1  LIG1       -0.1570
     34 C          -4.0438   10.4559    0.0001 C.2     1  LIG1        0.0591
     35 C          -6.3636    9.9318    0.0011 C.ar    1  LIG1       -0.0371
     36 C          -7.7341   10.2561    0.0028 C.ar    1  LIG1       -0.0466
     37 C          -6.0133    8.5661    0.0002 C.ar    1  LIG1        0.0076
     38 C          -8.7141    9.2661    0.0031 C.ar    1  LIG1        0.0280
     39 H          -8.0265   11.3038    0.0037 H       1  LIG1        0.0628
     40 C          -6.9913    7.5774    0.0005 C.ar    1  LIG1       -0.0101
     41 C          -8.3475    7.9197    0.0018 C.ar    1  LIG1        0.1253
     42 H          -6.6957    6.5313   -0.0001 H       1  LIG1        0.0661
     43 C          -5.4955   10.8998    0.0007 C.3     1  LIG1       -0.0230
     44 H          -5.9076   11.7488    0.5050 H       1  LIG1        0.0317
     45 H          -5.2576   11.1652   -1.0083 H       1  LIG1        0.0317
     46 H          -4.6068   10.5822    0.5049 H       1  LIG1        0.0855
     47 O          -9.2573    6.9910    0.0022 O.3     1  LIG1       -0.5061
     48 H          -8.8351    6.1289    0.0022 H       1  LIG1        0.2922
     49 C          -9.9701    9.6013    0.0046 C.2     1  LIG1        0.0385
     50 C         -10.6709   10.7894    0.0205 C.2     1  LIG1        0.1290
     51 C         -12.0766   10.4421    0.0113 C.2     1  LIG1        0.0279
     52 C         -12.1417    9.0641   -0.0098 C.2     1  LIG1        0.1946
     53 O         -10.8557    8.5228   -0.0144 O.2     1  LIG1       -0.2870
     54 O         -10.1895   11.9969    0.0401 O.2     1  LIG1       -0.5060
     55 H         -10.9114   12.6296    0.0450 H       1  LIG1        0.2922
     56 H         -13.0656   11.2858    0.0212 H       1  LIG1        0.0693
     57 C         -12.7950    6.8081   -0.0555 C.ar    1  LIG1        0.2240
     58 C         -13.0965    8.1820   -0.0258 C.ar    1  LIG1        0.0833
     59 C         -14.4375    8.5702   -0.0136 C.ar    1  LIG1       -0.0409
     60 C         -15.4233    7.5821   -0.0317 C.ar    1  LIG1       -0.0236
     61 C         -15.0222    6.2338   -0.0614 C.ar    1  LIG1        0.0777
     62 N         -13.7333    5.8416   -0.0732 N.ar    1  LIG1       -0.2122
     63 H         -14.7117    9.6344    0.0085 H       1  LIG1        0.0630
     64 O         -11.5616    6.3974   -0.0677 O.3     1  LIG1       -0.4919
     65 H         -10.9718    7.1548   -0.0707 H       1  LIG1        0.2938
     66 C         -16.6861    7.8921   -0.0216 C.3     1  LIG1       -0.0377
     67 H         -17.2370    7.1277    0.4856 H       1  LIG1        0.0278
     68 H         -17.0401    7.9789   -1.0277 H       1  LIG1        0.0278
     69 H         -16.8203    8.8247    0.4855 H       1  LIG1        0.0278
     70 C         -17.2779    5.5893   -0.0877 C.ar    1  LIG1       -0.0520
     71 C         -18.1918    4.5180   -0.1052 C.ar    1  LIG1       -0.0532
     72 C         -15.9028    5.2778   -0.0789 C.ar    1  LIG1        0.0008
     73 C         -17.7581    3.1942   -0.1142 C.ar    1  LIG1       -0.0127
     74 H         -19.2574    4.7360   -0.1120 H       1  LIG1        0.0624
     75 C         -15.4693    3.9564   -0.0880 C.ar    1  LIG1       -0.0520
     76 C         -16.3928    2.9059   -0.1058 C.ar    1  LIG1       -0.0532
     77 H         -14.4037    3.7419   -0.0809 H       1  LIG1        0.0624
     78 H         -17.7429    6.8033   -0.0802 H       1  LIG1        0.0624
     79 H         -15.9816    1.6727   -0.1140 H       1  LIG1        0.0624
     80 C         -18.2053    0.8882   -0.1392 C.ar    1  LIG1        0.2204
     81 C         -18.6294    2.2296   -0.1305 C.ar    1  LIG1        0.0470
     82 C         -19.9999    2.4956   -0.1394 C.ar    1  LIG1       -0.0059
     83 C         -20.8926    1.4225   -0.1567 C.ar    1  LIG1        0.1357
     84 C         -20.3715    0.1156   -0.1645 C.ar    1  LIG1        0.0728
     85 N         -19.0525   -0.1591   -0.1560 N.ar    1  LIG1       -0.2173
     86 H         -20.3689    3.5310   -0.1340 H       1  LIG1        0.0662
     87 H         -21.1623   -0.9160   -0.1805 H       1  LIG1        0.0868
     88 O         -16.9399    0.5901   -0.1314 O.3     1  LIG1       -0.4920
     89 H         -16.4205    1.3975   -0.1295 H       1  LIG1        0.2937
     90 O         -22.1779    1.6176   -0.1657 O.3     1  LIG1       -0.5052
     91 H         -22.6304    0.7709   -0.1679 H       1  LIG1        0.2922
@<TRIPOS>BOND
     1    68    66    1
     2    31    29    1
     3    45    43    1
     4    19    16    1
     5    87    84    1
     6    91    90    1
     7    90    83    1
     8    84    83   ar
     9    84    85   ar
    10    83    82   ar
    11    85    80   ar
    12    82    86    1
    13    82    81   ar
    14    80    88    1
    15    80    81   ar
    16    88    89    1
    17    81    73    1
    18    73    76   ar
    19    73    71   ar
    20    79    76    1
    21    74    71    1
    22    76    75   ar
    23    71    70   ar
    24    75    77    1
    25    75    72   ar
    26    70    78    1
    27    70    72   ar
    28    72    61    1
    29    62    61   ar
    30    62    57   ar
    31    65    64    1
    32    64    57    1
    33    61    60   ar
    34    57    58   ar
    35    60    66    1
    36    60    59   ar
    37    58    59   ar
    38    58    52    1
    39    66    69    1
    40    66    67    1
    41    53    52    1
    42    59    63    1
    43    52    51    2
    44    28    24    1
    45    14    13   ar
    46    14    10   ar
    47     5     4   ar
    48     5     1   ar
    49    23    13    1
    50    23    22   ar
    51    23    24   ar
    52    13    12   ar
    53    42    40    1
    54    17    16    1
    55     4    10    1
    56     4     3   ar
    57    10    11   ar
    58    11    12   ar
    59    11    15    1
    60    12    20    1
    61    20    21    1
    62    29    22    1
    63    29    32    1
    64    29    30    1
    65    16    15    1
    66    16    18    1
    67    22    27   ar
    68    24    25   ar
    69     1     2   ar
    70     1     6    1
    71     2     3   ar
    72     2     8    1
    73     3     9    1
    74    33    34    2
    75    26    27   ar
    76    26    25   ar
    77    26    37    1
    78    34    25    1
    79    34    46    1
    80     8     7    3
    81    37    40   ar
    82    37    35   ar
    83    40    41   ar
    84    43    35    1
    85    43    44    1
    86    35    36   ar
    87    41    47    1
    88    41    38   ar
    89    47    48    1
    90    36    38   ar
    91    36    39    1
    92    38    49    1
    93    49    50    2
    94    51    50    1
    95    51    56    1
    96    50    54    1
    97    54    55    1
