@<TRIPOS>MOLECULE
mol_data/noopt/geoms/mol2/12da13fd(130)12ee(260)6dh(250).out
 43 46 0 0 0
SMALL
GASTEIGER

@<TRIPOS>ATOM
      1 C           0.1763    1.8460    0.0000 C.ar    1  LIG1        0.1100
      2 C           1.5558    1.8460    0.0000 C.ar    1  LIG1        0.0900
      3 C           1.9706    3.2334    0.0000 C.ar    1  LIG1        0.0032
      4 C           0.8165    3.9895   -0.0001 C.ar    1  LIG1        0.1558
      5 O          -0.3030    3.1567   -0.0002 O.2     1  LIG1       -0.4600
      6 H          -0.7504    0.9343    0.0000 H       1  LIG1        0.1043
      7 N           3.0533   -0.0888    0.0002 N.1     1  LIG1       -0.1908
      8 C           2.3515    0.8179    0.0001 C.1     1  LIG1        0.1023
      9 H           3.1998    3.6567    0.0000 H       1  LIG1        0.0669
     10 C           0.5416    5.2601   -0.0001 C.ar    1  LIG1        0.1259
     11 C          -0.3258    5.9748    0.7646 C.ar    1  LIG1        0.1632
     12 C          -0.2358    7.3422    0.3490 C.ar    1  LIG1        0.1221
     13 C           0.6839    7.4033   -0.6502 C.ar    1  LIG1        0.1051
     14 N           1.1621    6.1307   -0.8674 N.ar    1  LIG1       -0.3453
     15 H           1.8470    5.8803   -1.5428 H       1  LIG1        0.1662
     16 O          -1.0951    5.5004    1.6991 O.3     1  LIG1       -0.5034
     17 H          -0.8097    4.6132    1.9294 H       1  LIG1        0.2923
     18 N          -1.5002    9.2262    1.2642 N.1     1  LIG1       -0.1907
     19 C          -0.9076    8.3433    0.8353 C.1     1  LIG1        0.1051
     20 C           1.1104    8.4170   -1.3433 C.ar    1  LIG1        0.1697
     21 C           1.0610    8.7918   -2.6700 C.ar    1  LIG1        0.0879
     22 C           1.7457   10.0640   -2.7675 C.ar    1  LIG1        0.0865
     23 C           2.1682   10.3825   -1.4932 C.ar    1  LIG1        0.1551
     24 O           1.7884    9.3823   -0.5975 O.2     1  LIG1       -0.4507
     25 C           0.5142    8.1486   -3.6586 C.1     1  LIG1       -0.0646
     26 C           0.0089    7.5544   -4.5721 C.1     1  LIG1       -0.1138
     27 H          -0.4412    7.0251   -5.3858 H       1  LIG1        0.1232
     28 C           1.9151   10.7517   -3.8576 C.1     1  LIG1       -0.0646
     29 C           2.0716   11.3871   -4.8649 C.1     1  LIG1       -0.1138
     30 H           2.2110   11.9532   -5.7621 H       1  LIG1        0.1232
     31 C           3.2609   11.2851    0.3802 C.ar    1  LIG1        0.1508
     32 C           2.8188   11.3697   -0.9527 C.ar    1  LIG1        0.0561
     33 C           3.0952   12.5325   -1.6743 C.ar    1  LIG1       -0.0261
     34 C           3.7973   13.5624   -1.0458 C.ar    1  LIG1        0.0437
     35 C           4.1973   13.3840    0.2912 C.ar    1  LIG1        0.0497
     36 N           3.9393   12.2689    1.0021 N.ar    1  LIG1       -0.2421
     37 H           2.7649   12.6353   -2.7176 H       1  LIG1        0.0644
     38 H           4.8533   14.3141    0.9194 H       1  LIG1        0.0849
     39 N           2.8221    9.2861    1.7209 N.1     1  LIG1       -0.1893
     40 C           3.0277   10.2230    1.0926 C.1     1  LIG1        0.1198
     41 N           4.0791   14.6648   -1.6745 N.pl3   1  LIG1       -0.3568
     42 H           4.8859   14.5244   -2.2483 H       1  LIG1        0.1424
     43 H           3.3038   14.9288   -2.2484 H       1  LIG1        0.1424
@<TRIPOS>BOND
     1    30    29    1
     2    27    26    1
     3    29    28    3
     4    26    25    3
     5    28    22    1
     6    25    21    1
     7    22    21   ar
     8    22    23   ar
     9    37    33    1
    10    21    20   ar
    11    43    41    1
    12    42    41    1
    13    41    34    1
    14    33    34   ar
    15    33    32   ar
    16    15    14    1
    17    23    32    1
    18    23    24   ar
    19    20    13    1
    20    20    24   ar
    21    34    35   ar
    22    32    31   ar
    23    14    13   ar
    24    14    10   ar
    25    13    12   ar
    26     5     4   ar
    27     5     1   ar
    28    10     4    1
    29    10    11   ar
    30     4     3   ar
    31     2     1   ar
    32     2     3   ar
    33     2     8    1
    34     1     6    1
    35     3     9    1
    36     8     7    3
    37    35    38    1
    38    35    36   ar
    39    12    11   ar
    40    12    19    1
    41    31    36   ar
    42    31    40    1
    43    11    16    1
    44    19    18    3
    45    40    39    3
    46    16    17    1
