@<TRIPOS>MOLECULE
mol_data/noopt/geoms/mol2/12dd12dd-12dd12dd-.out
 38 41 0 0 0
SMALL
GASTEIGER

@<TRIPOS>ATOM
      1 C           0.1763    1.8460    0.0000 C.ar    1  LIG1        0.1114
      2 C           1.5558    1.8460    0.0000 C.ar    1  LIG1        0.1075
      3 C           1.9706    3.2334    0.0000 C.ar    1  LIG1        0.1178
      4 C           0.8165    3.9895   -0.0001 C.ar    1  LIG1        0.1896
      5 O          -0.3030    3.1567   -0.0002 O.2     1  LIG1       -0.4571
      6 H          -0.7504    0.9343    0.0000 H       1  LIG1        0.1043
      7 N           3.0533   -0.0888    0.0002 N.1     1  LIG1       -0.1907
      8 C           2.3515    0.8179    0.0001 C.1     1  LIG1        0.1036
      9 N           4.2839    4.0300    0.0000 N.1     1  LIG1       -0.1907
     10 C           3.1998    3.6567    0.0000 C.1     1  LIG1        0.1044
     11 C           0.5416    5.2601   -0.0001 C.ar    1  LIG1        0.1906
     12 C          -0.6119    6.0167   -0.0001 C.ar    1  LIG1        0.1186
     13 C          -0.1979    7.4043   -0.0001 C.ar    1  LIG1        0.1186
     14 C           1.1818    7.4036   -0.0002 C.ar    1  LIG1        0.1906
     15 O           1.6612    6.0932   -0.0003 O.2     1  LIG1       -0.4459
     16 N          -2.9252    5.2200    0.0000 N.1     1  LIG1       -0.1907
     17 C          -1.8411    5.5934   -0.0000 C.1     1  LIG1        0.1044
     18 N          -1.6953    9.3391   -0.0001 N.1     1  LIG1       -0.1907
     19 C          -0.9936    8.4323   -0.0001 C.1     1  LIG1        0.1044
     20 C           2.1085    8.3153   -0.0002 C.ar    1  LIG1        0.1906
     21 C           3.4880    8.3153   -0.0001 C.ar    1  LIG1        0.1186
     22 C           3.9028    9.7027   -0.0001 C.ar    1  LIG1        0.1186
     23 C           2.7487   10.4588   -0.0002 C.ar    1  LIG1        0.1906
     24 O           1.6292    9.6260   -0.0003 O.2     1  LIG1       -0.4459
     25 N           4.9855    6.3805    0.0000 N.1     1  LIG1       -0.1907
     26 C           4.2837    7.2872   -0.0000 C.1     1  LIG1        0.1044
     27 N           6.2161   10.4993   -0.0001 N.1     1  LIG1       -0.1907
     28 C           5.1320   10.1260   -0.0001 C.1     1  LIG1        0.1044
     29 C           2.4738   11.7294   -0.0002 C.ar    1  LIG1        0.1896
     30 C           1.3203   12.4859   -0.0002 C.ar    1  LIG1        0.1178
     31 C           1.7343   13.8736   -0.0002 C.ar    1  LIG1        0.1075
     32 C           3.1141   13.8729   -0.0003 C.ar    1  LIG1        0.1114
     33 O           3.5935   12.5625   -0.0004 O.2     1  LIG1       -0.4571
     34 H           4.0408   14.7846   -0.0002 H       1  LIG1        0.1043
     35 N          -0.9930   11.6893   -0.0001 N.1     1  LIG1       -0.1907
     36 C           0.0911   12.0626   -0.0001 C.1     1  LIG1        0.1044
     37 N           0.2369   15.8084   -0.0002 N.1     1  LIG1       -0.1907
     38 C           0.9387   14.9016   -0.0002 C.1     1  LIG1        0.1036
@<TRIPOS>BOND
     1    33    32   ar
     2    33    29   ar
     3    24    23   ar
     4    24    20   ar
     5    15    14   ar
     6    15    11   ar
     7    32    34    1
     8    32    31   ar
     9    23    29    1
    10    23    22   ar
    11    30    29   ar
    12    30    31   ar
    13    30    36    1
    14     5     4   ar
    15     5     1   ar
    16    37    38    3
    17    38    31    1
    18    14    20    1
    19    14    13   ar
    20    20    21   ar
    21    36    35    3
    22    21    22   ar
    23    21    26    1
    24    18    19    3
    25    12    13   ar
    26    12    11   ar
    27    12    17    1
    28    19    13    1
    29    22    28    1
    30     4    11    1
    31     4     3   ar
    32    28    27    3
    33    17    16    3
    34    26    25    3
    35    10     9    3
    36    10     3    1
    37     6     1    1
    38     1     2   ar
    39     3     2   ar
    40     2     8    1
    41     8     7    3
