@<TRIPOS>MOLECULE
mol_data/noopt/geoms/mol2/12dd6fe(120)6he(40)6ei(20).out
 50 53 0 0 0
SMALL
GASTEIGER

@<TRIPOS>ATOM
      1 C           0.1763    1.8460    0.0000 C.ar    1  LIG1        0.1112
      2 C           1.5558    1.8460    0.0000 C.ar    1  LIG1        0.1074
      3 C           1.9706    3.2334    0.0000 C.ar    1  LIG1        0.1149
      4 C           0.8165    3.9895   -0.0001 C.ar    1  LIG1        0.1585
      5 O          -0.3030    3.1567   -0.0002 O.2     1  LIG1       -0.4601
      6 H          -0.7504    0.9343    0.0000 H       1  LIG1        0.1043
      7 N           3.0533   -0.0888    0.0002 N.1     1  LIG1       -0.1907
      8 C           2.3515    0.8179    0.0001 C.1     1  LIG1        0.1036
      9 N           4.2839    4.0300    0.0000 N.1     1  LIG1       -0.1907
     10 C           3.1998    3.6567    0.0000 C.1     1  LIG1        0.1043
     11 C           0.9847    6.0836   -1.0513 C.ar    1  LIG1        0.2239
     12 C           0.5416    5.2601   -0.0001 C.ar    1  LIG1        0.0810
     13 C          -0.1956    5.8387    1.0347 C.ar    1  LIG1       -0.0284
     14 C          -0.4628    7.2079    0.9854 C.ar    1  LIG1        0.0516
     15 C           0.0235    7.9480   -0.1079 C.ar    1  LIG1        0.0935
     16 N           0.7360    7.4060   -1.1148 N.ar    1  LIG1       -0.2111
     17 H          -0.5578    5.2273    1.8733 H       1  LIG1        0.0639
     18 O           1.6743    5.5911   -2.0372 O.3     1  LIG1       -0.4919
     19 H           2.3701    6.2062   -2.2802 H       1  LIG1        0.2938
     20 C          -1.1447    7.7938    1.9244 C.1     1  LIG1       -0.0675
     21 C          -1.7748    8.3352    2.7920 C.1     1  LIG1       -0.1138
     22 H          -2.3360    8.8174    3.5649 H       1  LIG1        0.1232
     23 C          -1.2286    9.7108   -1.0262 C.ar    1  LIG1        0.1262
     24 C          -0.1995    9.2255   -0.1987 C.ar    1  LIG1        0.0424
     25 C           0.5698   10.1447    0.5171 C.ar    1  LIG1       -0.0317
     26 C           0.2880   11.5053    0.3834 C.ar    1  LIG1        0.0515
     27 C          -0.7619   11.8930   -0.4692 C.ar    1  LIG1        0.0911
     28 N          -1.5142   11.0198   -1.1670 N.ar    1  LIG1       -0.2305
     29 H           1.3831    9.8031    1.1729 H       1  LIG1        0.0638
     30 N          -1.9719    8.8942   -1.7122 N.pl3   1  LIG1       -0.3426
     31 H          -2.5989    9.4184   -2.2885 H       1  LIG1        0.1437
     32 H          -1.3913    8.3192   -2.2886 H       1  LIG1        0.1437
     33 C           0.9754   12.4006    1.0283 C.1     1  LIG1       -0.0675
     34 C           1.6106   13.2279    1.6242 C.1     1  LIG1       -0.1138
     35 H           2.1764   13.9647    2.1551 H       1  LIG1        0.1232
     36 C          -2.3248   13.5198   -1.1244 C.ar    1  LIG1        0.1223
     37 C          -1.0625   13.1479   -0.6267 C.ar    1  LIG1        0.0357
     38 C          -0.1485   14.1541   -0.3084 C.ar    1  LIG1       -0.0455
     39 C          -0.5226   15.4858   -0.4965 C.ar    1  LIG1       -0.0316
     40 C          -1.8079   15.7575   -1.0000 C.ar    1  LIG1        0.0319
     41 N          -2.7022   14.7993   -1.3121 N.ar    1  LIG1       -0.2458
     42 H           0.8476   13.9020    0.0820 H       1  LIG1        0.0628
     43 H          -2.2023   16.9812   -1.1923 H       1  LIG1        0.0832
     44 C          -3.2095   12.6193   -1.4348 C.1     1  LIG1       -0.0491
     45 C          -4.0270   11.7872   -1.7216 C.1     1  LIG1       -0.1124
     46 H          -4.7552   11.0461   -1.9771 H       1  LIG1        0.1232
     47 C           0.2926   16.4591   -0.2154 C.3     1  LIG1       -0.0383
     48 H          -0.2236   17.2034    0.3542 H       1  LIG1        0.0278
     49 H           0.6562   16.8933   -1.1233 H       1  LIG1        0.0278
     50 H           1.1160   16.0815    0.3541 H       1  LIG1        0.0278
@<TRIPOS>BOND
     1    32    30    1
     2    31    30    1
     3    19    18    1
     4    18    11    1
     5    46    45    1
     6    45    44    3
     7    30    23    1
     8    44    36    1
     9    41    36   ar
    10    41    40   ar
    11    43    40    1
    12    28    23   ar
    13    28    27   ar
    14    36    37   ar
    15    49    47    1
    16    16    11   ar
    17    16    15   ar
    18    11    12   ar
    19    23    24   ar
    20    40    39   ar
    21    37    27    1
    22    37    38   ar
    23    39    38   ar
    24    39    47    1
    25    27    26   ar
    26    38    42    1
    27    47    50    1
    28    47    48    1
    29    24    15    1
    30    24    25   ar
    31    15    14   ar
    32     5     4   ar
    33     5     1   ar
    34    12     4    1
    35    12    13   ar
    36     4     3   ar
    37     1     2   ar
    38     1     6    1
    39    10     9    3
    40    10     3    1
    41     2     3   ar
    42     2     8    1
    43     8     7    3
    44    26    25   ar
    45    26    33    1
    46    25    29    1
    47    14    13   ar
    48    14    20    1
    49    33    34    3
    50    13    17    1
    51    34    35    1
    52    20    21    3
    53    21    22    1
