@<TRIPOS>MOLECULE
mol_data/noopt/geoms/mol2/12dd.out
 11 11 0 0 0
SMALL
GASTEIGER

@<TRIPOS>ATOM
      1 C           0.1763    1.8460    0.0000 C.ar    1  LIG1        0.1103
      2 C           1.5558    1.8460    0.0000 C.ar    1  LIG1        0.1067
      3 C           1.9706    3.2334    0.0000 C.ar    1  LIG1        0.1067
      4 C           0.8165    3.9895   -0.0001 C.ar    1  LIG1        0.1103
      5 O          -0.3030    3.1567   -0.0002 O.2     1  LIG1       -0.4684
      6 H          -0.7504    0.9343    0.0000 H       1  LIG1        0.1043
      7 H           0.5416    5.2601   -0.0001 H       1  LIG1        0.1043
      8 N           3.0533   -0.0888    0.0002 N.1     1  LIG1       -0.1907
      9 C           2.3515    0.8179    0.0001 C.1     1  LIG1        0.1036
     10 N           4.2839    4.0300    0.0000 N.1     1  LIG1       -0.1907
     11 C           3.1998    3.6567    0.0000 C.1     1  LIG1        0.1036
@<TRIPOS>BOND
     1     5     4   ar
     2     5     1   ar
     3     4     7    1
     4     4     3   ar
     5     1     2   ar
     6     1     6    1
     7     2     3   ar
     8     2     9    1
     9     3    11    1
    10    10    11    3
    11     9     8    3
