@<TRIPOS>MOLECULE
mol_data/noopt/geoms/mol2/12dd12dd12dd12dd.out
 38 41 0 0 0
SMALL
GASTEIGER

@<TRIPOS>ATOM
      1 C           0.1763    1.8460    0.0000 C.ar    1  LIG1        0.1114
      2 C           1.5558    1.8460    0.0000 C.ar    1  LIG1        0.1075
      3 C           1.9706    3.2334    0.0000 C.ar    1  LIG1        0.1178
      4 C           0.8165    3.9895   -0.0001 C.ar    1  LIG1        0.1896
      5 O          -0.3030    3.1567   -0.0002 O.2     1  LIG1       -0.4571
      6 H          -0.7504    0.9343    0.0000 H       1  LIG1        0.1043
      7 N           3.0533   -0.0888    0.0002 N.1     1  LIG1       -0.1907
      8 C           2.3515    0.8179    0.0001 C.1     1  LIG1        0.1036
      9 N           4.2839    4.0300    0.0000 N.1     1  LIG1       -0.1907
     10 C           3.1998    3.6567    0.0000 C.1     1  LIG1        0.1044
     11 C           0.5416    5.2601   -0.0001 C.ar    1  LIG1        0.1906
     12 C           1.2792    6.4258   -0.0001 C.ar    1  LIG1        0.1186
     13 C           0.3286    7.5182   -0.0001 C.ar    1  LIG1        0.1186
     14 C          -0.9274    6.9472   -0.0002 C.ar    1  LIG1        0.1906
     15 O          -0.8223    5.5559   -0.0003 O.2     1  LIG1       -0.4459
     16 N           3.7149    6.6566    0.0001 N.1     1  LIG1       -0.1907
     17 C           2.5734    6.5485   -0.0000 C.1     1  LIG1        0.1044
     18 N           0.8924    9.8990   -0.0001 N.1     1  LIG1       -0.1907
     19 C           0.6282    8.7832   -0.0001 C.1     1  LIG1        0.1044
     20 C          -2.1481    7.3943   -0.0002 C.ar    1  LIG1        0.1906
     21 C          -2.7387    8.6410   -0.0002 C.ar    1  LIG1        0.1186
     22 C          -4.1701    8.4218   -0.0002 C.ar    1  LIG1        0.1186
     23 C          -4.3593    7.0551   -0.0003 C.ar    1  LIG1        0.1906
     24 O          -3.1273    6.4000   -0.0004 O.2     1  LIG1       -0.4459
     25 N          -1.6314   10.8227   -0.0000 N.1     1  LIG1       -0.1907
     26 C          -2.1504    9.8002   -0.0001 C.1     1  LIG1        0.1044
     27 N          -5.8805   10.1712   -0.0002 N.1     1  LIG1       -0.1907
     28 C          -5.0789    9.3514   -0.0002 C.1     1  LIG1        0.1044
     29 C          -5.3898    6.2627   -0.0003 C.ar    1  LIG1        0.1896
     30 C          -6.7591    6.4302   -0.0003 C.ar    1  LIG1        0.1178
     31 C          -7.3393    5.1034   -0.0003 C.ar    1  LIG1        0.1075
     32 C          -6.2855    4.2128   -0.0004 C.ar    1  LIG1        0.1114
     33 O          -5.0732    4.9035   -0.0005 O.2     1  LIG1       -0.4571
     34 H          -6.1669    2.9182   -0.0004 H       1  LIG1        0.1043
     35 N          -8.0106    8.5325   -0.0001 N.1     1  LIG1       -0.1907
     36 C          -7.4241    7.5472   -0.0002 C.1     1  LIG1        0.1044
     37 N          -9.7322    4.5935   -0.0003 N.1     1  LIG1       -0.1907
     38 C          -8.6107    4.8325   -0.0003 C.1     1  LIG1        0.1036
@<TRIPOS>BOND
     1    33    32   ar
     2    33    29   ar
     3    34    32    1
     4    32    31   ar
     5    24    23   ar
     6    24    20   ar
     7    38    37    3
     8    38    31    1
     9    31    30   ar
    10    30    29   ar
    11    30    36    1
    12    29    23    1
    13    15    14   ar
    14    15    11   ar
    15    23    22   ar
    16    21    20   ar
    17    21    22   ar
    18    21    26    1
    19    20    14    1
    20    22    28    1
    21    27    28    3
    22    36    35    3
    23     5     4   ar
    24     5     1   ar
    25    14    13   ar
    26    18    19    3
    27     4    11    1
    28     4     3   ar
    29    11    12   ar
    30    12    13   ar
    31    12    17    1
    32    26    25    3
    33    13    19    1
    34    10     9    3
    35    10     3    1
    36     6     1    1
    37    17    16    3
    38     1     2   ar
    39     3     2   ar
    40     2     8    1
    41     8     7    3
