@<TRIPOS>MOLECULE
mol_data/noopt/geoms/mol2/12dd12dd-4dd12dd.out
 41 45 0 0 0
SMALL
GASTEIGER

@<TRIPOS>ATOM
      1 C           0.1763    1.8460    0.0000 C.ar    1  LIG1        0.1104
      2 C           1.5558    1.8460    0.0000 C.ar    1  LIG1        0.0953
      3 C           1.9706    3.2334    0.0000 C.ar    1  LIG1        0.0464
      4 C           0.8165    3.9895   -0.0001 C.ar    1  LIG1        0.1775
      5 O          -0.3030    3.1567   -0.0002 O.2     1  LIG1       -0.4581
      6 H          -0.7504    0.9343    0.0000 H       1  LIG1        0.1043
      7 N           3.0533   -0.0888    0.0002 N.1     1  LIG1       -0.1908
      8 C           2.3515    0.8179    0.0001 C.1     1  LIG1        0.1027
      9 N           4.2839    4.0300    0.0000 N.3     1  LIG1       -0.1261
     10 C           3.1998    3.6567    0.0000 C.3     1  LIG1        0.1395
     11 C           0.5416    5.2601   -0.0001 C.ar    1  LIG1        0.1895
     12 C          -0.6119    6.0167   -0.0001 C.ar    1  LIG1        0.1185
     13 C          -0.1979    7.4043   -0.0001 C.ar    1  LIG1        0.1155
     14 C           1.1818    7.4036   -0.0002 C.ar    1  LIG1        0.1548
     15 O           1.6612    6.0932   -0.0003 O.2     1  LIG1       -0.4490
     16 N          -2.9252    5.2200    0.0000 N.1     1  LIG1       -0.1907
     17 C          -1.8411    5.5934   -0.0000 C.1     1  LIG1        0.1044
     18 N          -1.6953    9.3391   -0.0001 N.1     1  LIG1       -0.1907
     19 C          -0.9936    8.4323   -0.0001 C.1     1  LIG1        0.1043
     20 C           3.4666    7.9365    0.0006 C.ar    1  LIG1       -0.0084
     21 C           4.4321    8.9616    0.0022 C.ar    1  LIG1       -0.0439
     22 C           2.1085    8.3153   -0.0002 C.ar    1  LIG1        0.0250
     23 C           4.0641   10.3052    0.0023 C.ar    1  LIG1        0.0363
     24 H           5.4858    8.6915    0.0030 H       1  LIG1        0.0628
     25 C           1.7405    9.6564   -0.0000 C.ar    1  LIG1       -0.0326
     26 C           2.7146   10.6603    0.0011 C.ar    1  LIG1        0.0631
     27 H           0.6867    9.9230   -0.0005 H       1  LIG1        0.0638
     28 N           4.2284    5.6115   -0.0000 N.3     1  LIG1       -0.1262
     29 C           3.8714    6.7011    0.0003 C.3     1  LIG1        0.1351
     30 N           2.0560   13.0165    0.0017 N.1     1  LIG1       -0.1908
     31 C           2.3647   11.9123    0.0014 C.1     1  LIG1        0.0999
     32 C           4.9819   11.2258    0.0036 C.ar    1  LIG1        0.1546
     33 C           6.3613   11.2392    0.0046 C.ar    1  LIG1        0.1147
     34 C           6.7627   12.6306    0.0059 C.ar    1  LIG1        0.1074
     35 C           5.6013   13.3755    0.0055 C.ar    1  LIG1        0.1112
     36 O           4.4899   12.5318    0.0040 O.2     1  LIG1       -0.4602
     37 H           5.3141   14.6433    0.0062 H       1  LIG1        0.1043
     38 N           7.8775    9.3190    0.0045 N.1     1  LIG1       -0.1907
     39 C           7.1669   10.2189    0.0046 C.1     1  LIG1        0.1043
     40 N           9.0681   13.4496    0.0082 N.1     1  LIG1       -0.1907
     41 C           7.9877   13.0658    0.0071 C.1     1  LIG1        0.1036
@<TRIPOS>BOND
     1    27    25    1
     2    15    14   ar
     3    15    11   ar
     4     5     4   ar
     5     5     1   ar
     6    14    22    1
     7    14    13   ar
     8    22    25   ar
     9    22    20   ar
    10    18    19    3
    11    12    13   ar
    12    12    11   ar
    13    12    17    1
    14    19    13    1
    15     4    11    1
    16     4     3   ar
    17    17    16    3
    18    25    26   ar
    19    28     9    1
    20    28    29    1
    21    10     9    1
    22    10     3    1
    23     6     1    1
    24     1     2   ar
    25     3     2   ar
    26     2     8    1
    27     8     7    3
    28    29    20    1
    29    20    21   ar
    30    26    31    1
    31    26    23   ar
    32    31    30    3
    33    21    23   ar
    34    21    24    1
    35    23    32    1
    36    32    36   ar
    37    32    33   ar
    38    36    35   ar
    39    38    39    3
    40    39    33    1
    41    33    34   ar
    42    35    34   ar
    43    35    37    1
    44    34    41    1
    45    41    40    3
