@<TRIPOS>MOLECULE
mol_data/noopt/geoms/mol2/12dd13fd(150)6ei(290)12el(220).out
 48 51 0 0 0
SMALL
GASTEIGER

@<TRIPOS>ATOM
      1 C           0.1763    1.8460    0.0000 C.ar    1  LIG1        0.1113
      2 C           1.5558    1.8460    0.0000 C.ar    1  LIG1        0.1074
      3 C           1.9706    3.2334    0.0000 C.ar    1  LIG1        0.1163
      4 C           0.8165    3.9895   -0.0001 C.ar    1  LIG1        0.1731
      5 O          -0.3030    3.1567   -0.0002 O.2     1  LIG1       -0.4587
      6 H          -0.7504    0.9343    0.0000 H       1  LIG1        0.1043
      7 N           3.0533   -0.0888    0.0002 N.1     1  LIG1       -0.1907
      8 C           2.3515    0.8179    0.0001 C.1     1  LIG1        0.1036
      9 N           4.2839    4.0300    0.0000 N.1     1  LIG1       -0.1907
     10 C           3.1998    3.6567    0.0000 C.1     1  LIG1        0.1043
     11 C           0.5416    5.2601   -0.0001 C.ar    1  LIG1        0.1271
     12 C          -0.5376    5.9290    0.4856 C.ar    1  LIG1        0.1632
     13 C          -0.3324    7.3213    0.2211 C.ar    1  LIG1        0.1191
     14 C           0.8640    7.4422   -0.4130 C.ar    1  LIG1        0.0709
     15 N           1.4022    6.1826   -0.5509 N.ar    1  LIG1       -0.3477
     16 H           2.2741    5.9727   -0.9795 H       1  LIG1        0.1661
     17 O          -1.5656    5.3986    1.0790 O.3     1  LIG1       -0.5034
     18 H          -1.4040    4.4637    1.2252 H       1  LIG1        0.2923
     19 N          -1.8500    9.1506    0.8013 N.1     1  LIG1       -0.1907
     20 C          -1.1388    8.2933    0.5294 C.1     1  LIG1        0.1050
     21 C           1.6577    9.6181   -0.0211 C.ar    1  LIG1        0.1231
     22 C           1.4824    8.4975   -0.8534 C.ar    1  LIG1        0.0338
     23 C           1.9864    8.5479   -2.1544 C.ar    1  LIG1       -0.0449
     24 C           2.6423    9.7055   -2.5765 C.ar    1  LIG1       -0.0207
     25 C           2.7678   10.7746   -1.6704 C.ar    1  LIG1        0.1116
     26 N           2.2879   10.7429   -0.4119 N.ar    1  LIG1       -0.2344
     27 H           1.8676    7.6921   -2.8339 H       1  LIG1        0.0628
     28 C           1.2063    9.6189    1.1980 C.1     1  LIG1       -0.0491
     29 C           0.7892    9.6196    2.3245 C.1     1  LIG1       -0.1124
     30 H           0.4177    9.6202    3.3279 H       1  LIG1        0.1232
     31 C           3.1292    9.8020   -3.7784 C.3     1  LIG1       -0.0376
     32 H           3.5503   10.7760   -3.9155 H       1  LIG1        0.0278
     33 H           2.3480    9.6473   -4.4931 H       1  LIG1        0.0278
     34 H           3.8898    9.0620   -3.9155 H       1  LIG1        0.0278
     35 C           3.3703   11.8732   -2.0168 C.ar    1  LIG1        0.1722
     36 C           3.0692   12.9453   -2.8310 C.ar    1  LIG1        0.1135
     37 C           4.2034   13.8436   -2.7704 C.ar    1  LIG1        0.1736
     38 C           5.1227   13.2606   -1.9227 C.ar    1  LIG1        0.1354
     39 O           4.6319   12.0449   -1.4452 O.2     1  LIG1       -0.4564
     40 H           6.3044   13.5743   -1.4808 H       1  LIG1        0.1068
     41 C           1.9881   13.1369   -3.5270 C.1     1  LIG1       -0.0621
     42 C           0.9891   13.3139   -4.1701 C.1     1  LIG1       -0.1137
     43 H           0.0992   13.4716   -4.7429 H       1  LIG1        0.1232
     44 O           4.3088   14.9746   -3.4028 O.3     1  LIG1       -0.4907
     45 C           5.6897   15.2647   -3.6350 C.3     1  LIG1        0.0790
     46 H           5.7759   16.1955   -4.1556 H       1  LIG1        0.0660
     47 H           6.2026   15.3311   -2.6983 H       1  LIG1        0.0660
     48 H           6.1238   14.4846   -4.2248 H       1  LIG1        0.0660
@<TRIPOS>BOND
     1    43    42    1
     2    33    31    1
     3    48    45    1
     4    42    41    3
     5    46    45    1
     6    32    31    1
     7    34    31    1
     8    31    24    1
     9    45    44    1
    10    45    47    1
    11    41    36    1
    12    44    37    1
    13    27    23    1
    14    36    37   ar
    15    36    35   ar
    16    37    38   ar
    17    24    23   ar
    18    24    25   ar
    19    23    22   ar
    20    35    25    1
    21    35    39   ar
    22    38    40    1
    23    38    39   ar
    24    25    26   ar
    25    16    15    1
    26    22    14    1
    27    22    21   ar
    28    15    14   ar
    29    15    11   ar
    30    14    13   ar
    31    26    21   ar
    32    21    28    1
    33     5     4   ar
    34     5     1   ar
    35     4    11    1
    36     4     3   ar
    37    11    12   ar
    38     2     3   ar
    39     2     1   ar
    40     2     8    1
    41     3    10    1
    42     6     1    1
    43     9    10    3
    44     8     7    3
    45    13    12   ar
    46    13    20    1
    47    12    17    1
    48    20    19    3
    49    17    18    1
    50    28    29    3
    51    29    30    1
