@<TRIPOS>MOLECULE
mol_data/noopt/geoms/mol2/12dd12dd-12dd-12dd.out
 38 42 0 0 0
SMALL
GASTEIGER

@<TRIPOS>ATOM
      1 C           0.1763    1.8460    0.0000 C.ar    1  LIG1        0.1104
      2 C           1.5558    1.8460    0.0000 C.ar    1  LIG1        0.0958
      3 C           1.9706    3.2334    0.0000 C.ar    1  LIG1        0.0535
      4 C           0.8165    3.9895   -0.0001 C.ar    1  LIG1        0.1780
      5 O          -0.3030    3.1567   -0.0002 O.2     1  LIG1       -0.4581
      6 H          -0.7504    0.9343    0.0000 H       1  LIG1        0.1043
      7 N           3.0533   -0.0888    0.0002 N.1     1  LIG1       -0.1908
      8 C           2.3515    0.8179    0.0001 C.1     1  LIG1        0.1027
      9 N           4.2839    4.0300    0.0000 N.2     1  LIG1       -0.1738
     10 C           3.1998    3.6567    0.0000 C.3     1  LIG1        0.1790
     11 C           0.5416    5.2601   -0.0001 C.ar    1  LIG1        0.1897
     12 C          -0.6119    6.0167   -0.0001 C.ar    1  LIG1        0.1186
     13 C          -0.1979    7.4043   -0.0001 C.ar    1  LIG1        0.1186
     14 C           1.1818    7.4036   -0.0002 C.ar    1  LIG1        0.1906
     15 O           1.6612    6.0932   -0.0003 O.2     1  LIG1       -0.4459
     16 N          -2.9252    5.2200    0.0000 N.1     1  LIG1       -0.1907
     17 C          -1.8411    5.5934   -0.0000 C.1     1  LIG1        0.1044
     18 N          -1.6953    9.3391   -0.0001 N.1     1  LIG1       -0.1907
     19 C          -0.9936    8.4323   -0.0001 C.1     1  LIG1        0.1044
     20 C           2.1085    8.3153   -0.0002 C.ar    1  LIG1        0.1906
     21 C           2.1310    9.6946   -0.0002 C.ar    1  LIG1        0.1186
     22 C           3.5250   10.0867   -0.0001 C.ar    1  LIG1        0.1186
     23 C           4.2622    8.9204   -0.0002 C.ar    1  LIG1        0.1897
     24 O           3.4112    7.8147   -0.0003 O.2     1  LIG1       -0.4459
     25 N           0.2209   11.2234   -0.0000 N.1     1  LIG1       -0.1907
     26 C           1.1161   10.5069   -0.0001 C.1     1  LIG1        0.1044
     27 N           4.3593   12.3867   -0.0001 N.1     1  LIG1       -0.1907
     28 C           3.9683   11.3088   -0.0001 C.1     1  LIG1        0.1044
     29 C           5.5281    8.6248   -0.0002 C.ar    1  LIG1        0.1780
     30 C           6.2658    7.4591   -0.0001 C.ar    1  LIG1        0.0535
     31 C           7.6600    7.8504   -0.0001 C.ar    1  LIG1        0.0958
     32 C           7.6818    9.2300   -0.0002 C.ar    1  LIG1        0.1104
     33 O           6.3794    9.7307   -0.0003 O.2     1  LIG1       -0.4581
     34 H           8.6085   10.1417   -0.0002 H       1  LIG1        0.1043
     35 N           5.4315    5.1591    0.0000 N.2     1  LIG1       -0.1738
     36 C           5.8225    6.2370   -0.0000 C.3     1  LIG1        0.1790
     37 N           9.5701    6.3216   -0.0000 N.1     1  LIG1       -0.1908
     38 C           8.6749    7.0381   -0.0001 C.1     1  LIG1        0.1027
@<TRIPOS>BOND
     1    33    32   ar
     2    33    29   ar
     3    24    23   ar
     4    24    20   ar
     5    15    14   ar
     6    15    11   ar
     7    32    34    1
     8    32    31   ar
     9     5     4   ar
    10     5     1   ar
    11    23    29    1
    12    23    22   ar
    13    14    20    1
    14    14    13   ar
    15    29    30   ar
    16    21    20   ar
    17    21    22   ar
    18    21    26    1
    19    30    31   ar
    20    30    36    1
    21    18    19    3
    22    12    13   ar
    23    12    11   ar
    24    12    17    1
    25    22    28    1
    26    19    13    1
    27    28    27    3
    28    11     4    1
    29     4     3   ar
    30    31    38    1
    31    26    25    3
    32    38    37    3
    33    17    16    3
    34    36    35    1
    35    10     9    1
    36    10     3    1
    37     9    35    2
    38     6     1    1
    39     3     2   ar
    40     2     1   ar
    41     2     8    1
    42     8     7    3
