@<TRIPOS>MOLECULE
mol_data/noopt/geoms/mol2/12dd12dd12dd-12dd-.out
 38 41 0 0 0
SMALL
GASTEIGER

@<TRIPOS>ATOM
      1 C           0.1763    1.8460    0.0000 C.ar    1  LIG1        0.1114
      2 C           1.5558    1.8460    0.0000 C.ar    1  LIG1        0.1075
      3 C           1.9706    3.2334    0.0000 C.ar    1  LIG1        0.1178
      4 C           0.8165    3.9895   -0.0001 C.ar    1  LIG1        0.1896
      5 O          -0.3030    3.1567   -0.0002 O.2     1  LIG1       -0.4571
      6 H          -0.7504    0.9343    0.0000 H       1  LIG1        0.1043
      7 N           3.0533   -0.0888    0.0002 N.1     1  LIG1       -0.1907
      8 C           2.3515    0.8179    0.0001 C.1     1  LIG1        0.1036
      9 N           4.2839    4.0300    0.0000 N.1     1  LIG1       -0.1907
     10 C           3.1998    3.6567    0.0000 C.1     1  LIG1        0.1044
     11 C           0.5416    5.2601   -0.0001 C.ar    1  LIG1        0.1906
     12 C           1.2792    6.4258   -0.0001 C.ar    1  LIG1        0.1186
     13 C           0.3286    7.5182   -0.0001 C.ar    1  LIG1        0.1186
     14 C          -0.9274    6.9472   -0.0002 C.ar    1  LIG1        0.1906
     15 O          -0.8223    5.5559   -0.0003 O.2     1  LIG1       -0.4459
     16 N           3.7149    6.6566    0.0001 N.1     1  LIG1       -0.1907
     17 C           2.5734    6.5485   -0.0000 C.1     1  LIG1        0.1044
     18 N           0.8924    9.8990   -0.0001 N.1     1  LIG1       -0.1907
     19 C           0.6282    8.7832   -0.0001 C.1     1  LIG1        0.1044
     20 C          -2.1481    7.3943   -0.0002 C.ar    1  LIG1        0.1906
     21 C          -3.4042    6.8241   -0.0002 C.ar    1  LIG1        0.1186
     22 C          -4.3554    7.9160   -0.0002 C.ar    1  LIG1        0.1186
     23 C          -3.6171    9.0815   -0.0003 C.ar    1  LIG1        0.1906
     24 O          -2.2534    8.7859   -0.0004 O.2     1  LIG1       -0.4459
     25 N          -3.9680    4.4434   -0.0001 N.1     1  LIG1       -0.1907
     26 C          -3.7038    5.5591   -0.0001 C.1     1  LIG1        0.1044
     27 N          -6.7911    7.6851   -0.0002 N.1     1  LIG1       -0.1907
     28 C          -5.6496    7.7933   -0.0002 C.1     1  LIG1        0.1044
     29 C          -3.8920   10.3521   -0.0003 C.ar    1  LIG1        0.1896
     30 C          -5.0455   11.1087   -0.0003 C.ar    1  LIG1        0.1178
     31 C          -4.6315   12.4963   -0.0002 C.ar    1  LIG1        0.1075
     32 C          -3.2517   12.4956   -0.0003 C.ar    1  LIG1        0.1114
     33 O          -2.7723   11.1852   -0.0004 O.2     1  LIG1       -0.4571
     34 H          -2.3250   13.4073   -0.0003 H       1  LIG1        0.1043
     35 N          -7.3588   10.3120   -0.0001 N.1     1  LIG1       -0.1907
     36 C          -6.2747   10.6854   -0.0002 C.1     1  LIG1        0.1044
     37 N          -6.1289   14.4311   -0.0002 N.1     1  LIG1       -0.1907
     38 C          -5.4271   13.5243   -0.0002 C.1     1  LIG1        0.1036
@<TRIPOS>BOND
     1    33    32   ar
     2    33    29   ar
     3    24    23   ar
     4    24    20   ar
     5    15    14   ar
     6    15    11   ar
     7    32    34    1
     8    32    31   ar
     9    23    29    1
    10    23    22   ar
    11    30    29   ar
    12    30    31   ar
    13    30    36    1
    14    27    28    3
    15    21    22   ar
    16    21    20   ar
    17    21    26    1
    18    31    38    1
    19    28    22    1
    20    38    37    3
    21    20    14    1
    22    14    13   ar
    23     5     4   ar
    24     5     1   ar
    25    36    35    3
    26    26    25    3
    27    18    19    3
    28    19    13    1
    29    13    12   ar
    30    12    11   ar
    31    12    17    1
    32    11     4    1
    33     4     3   ar
    34    10     3    1
    35    10     9    3
    36     2     3   ar
    37     2     1   ar
    38     2     8    1
    39     6     1    1
    40    17    16    3
    41     8     7    3
