@<TRIPOS>MOLECULE
mol_data/noopt/geoms/mol2/12dd12dd-12dd.out
 29 31 0 0 0
SMALL
GASTEIGER

@<TRIPOS>ATOM
      1 C           0.1763    1.8460    0.0000 C.ar    1  LIG1        0.1114
      2 C           1.5558    1.8460    0.0000 C.ar    1  LIG1        0.1075
      3 C           1.9706    3.2334    0.0000 C.ar    1  LIG1        0.1178
      4 C           0.8165    3.9895   -0.0001 C.ar    1  LIG1        0.1896
      5 O          -0.3030    3.1567   -0.0002 O.2     1  LIG1       -0.4571
      6 H          -0.7504    0.9343    0.0000 H       1  LIG1        0.1043
      7 N           3.0533   -0.0888    0.0002 N.1     1  LIG1       -0.1907
      8 C           2.3515    0.8179    0.0001 C.1     1  LIG1        0.1036
      9 N           4.2839    4.0300    0.0000 N.1     1  LIG1       -0.1907
     10 C           3.1998    3.6567    0.0000 C.1     1  LIG1        0.1044
     11 C           0.5416    5.2601   -0.0001 C.ar    1  LIG1        0.1906
     12 C          -0.6119    6.0167   -0.0001 C.ar    1  LIG1        0.1186
     13 C          -0.1979    7.4043   -0.0001 C.ar    1  LIG1        0.1186
     14 C           1.1818    7.4036   -0.0002 C.ar    1  LIG1        0.1906
     15 O           1.6612    6.0932   -0.0003 O.2     1  LIG1       -0.4459
     16 N          -2.9252    5.2200    0.0000 N.1     1  LIG1       -0.1907
     17 C          -1.8411    5.5934   -0.0000 C.1     1  LIG1        0.1044
     18 N          -1.6953    9.3391   -0.0001 N.1     1  LIG1       -0.1907
     19 C          -0.9936    8.4323   -0.0001 C.1     1  LIG1        0.1044
     20 C           2.1085    8.3153   -0.0002 C.ar    1  LIG1        0.1896
     21 C           3.4880    8.3153   -0.0001 C.ar    1  LIG1        0.1178
     22 C           3.9028    9.7027   -0.0001 C.ar    1  LIG1        0.1075
     23 C           2.7487   10.4588   -0.0002 C.ar    1  LIG1        0.1114
     24 O           1.6292    9.6260   -0.0003 O.2     1  LIG1       -0.4571
     25 H           2.4738   11.7294   -0.0002 H       1  LIG1        0.1043
     26 N           4.9855    6.3805    0.0000 N.1     1  LIG1       -0.1907
     27 C           4.2837    7.2872   -0.0000 C.1     1  LIG1        0.1044
     28 N           6.2161   10.4993   -0.0001 N.1     1  LIG1       -0.1907
     29 C           5.1320   10.1260   -0.0001 C.1     1  LIG1        0.1036
@<TRIPOS>BOND
     1    24    23   ar
     2    24    20   ar
     3    15    14   ar
     4    15    11   ar
     5    23    25    1
     6    23    22   ar
     7     5     4   ar
     8     5     1   ar
     9    14    20    1
    10    14    13   ar
    11    20    21   ar
    12    21    22   ar
    13    21    27    1
    14    18    19    3
    15    12    13   ar
    16    12    11   ar
    17    12    17    1
    18    19    13    1
    19    22    29    1
    20     4    11    1
    21     4     3   ar
    22    29    28    3
    23    17    16    3
    24    27    26    3
    25    10     9    3
    26    10     3    1
    27     6     1    1
    28     3     2   ar
    29     2     1   ar
    30     2     8    1
    31     8     7    3
