@<TRIPOS>MOLECULE
mol_data/noopt/geoms/mol2/12dd12dd-.out
 20 21 0 0 0
SMALL
GASTEIGER

@<TRIPOS>ATOM
      1 C           0.1763    1.8460    0.0000 C.ar    1  LIG1        0.1114
      2 C           1.5558    1.8460    0.0000 C.ar    1  LIG1        0.1075
      3 C           1.9706    3.2334    0.0000 C.ar    1  LIG1        0.1178
      4 C           0.8165    3.9895   -0.0001 C.ar    1  LIG1        0.1896
      5 O          -0.3030    3.1567   -0.0002 O.2     1  LIG1       -0.4571
      6 H          -0.7504    0.9343    0.0000 H       1  LIG1        0.1043
      7 N           3.0533   -0.0888    0.0002 N.1     1  LIG1       -0.1907
      8 C           2.3515    0.8179    0.0001 C.1     1  LIG1        0.1036
      9 N           4.2839    4.0300    0.0000 N.1     1  LIG1       -0.1907
     10 C           3.1998    3.6567    0.0000 C.1     1  LIG1        0.1044
     11 C           0.5416    5.2601   -0.0001 C.ar    1  LIG1        0.1896
     12 C          -0.6119    6.0167   -0.0001 C.ar    1  LIG1        0.1178
     13 C          -0.1979    7.4043   -0.0001 C.ar    1  LIG1        0.1075
     14 C           1.1818    7.4036   -0.0002 C.ar    1  LIG1        0.1114
     15 O           1.6612    6.0932   -0.0003 O.2     1  LIG1       -0.4571
     16 H           2.1085    8.3153   -0.0002 H       1  LIG1        0.1043
     17 N          -2.9252    5.2200    0.0000 N.1     1  LIG1       -0.1907
     18 C          -1.8411    5.5934   -0.0000 C.1     1  LIG1        0.1044
     19 N          -1.6953    9.3391   -0.0001 N.1     1  LIG1       -0.1907
     20 C          -0.9936    8.4323   -0.0001 C.1     1  LIG1        0.1036
@<TRIPOS>BOND
     1    15    14   ar
     2    15    11   ar
     3     5     4   ar
     4     5     1   ar
     5    14    16    1
     6    14    13   ar
     7    19    20    3
     8    12    13   ar
     9    12    11   ar
    10    12    18    1
    11    20    13    1
    12    11     4    1
    13     4     3   ar
    14    18    17    3
    15    10     9    3
    16    10     3    1
    17     1     6    1
    18     1     2   ar
    19     3     2   ar
    20     2     8    1
    21     8     7    3
