@<TRIPOS>MOLECULE
mol_data/noopt/geoms/mol2/12dd13aa(210)4da(260)6dh(60).out
 42 45 0 0 0
SMALL
GASTEIGER

@<TRIPOS>ATOM
      1 C           0.1763    1.8460    0.0000 C.ar    1  LIG1        0.1113
      2 C           1.5558    1.8460    0.0000 C.ar    1  LIG1        0.1074
      3 C           1.9706    3.2334    0.0000 C.ar    1  LIG1        0.1162
      4 C           0.8165    3.9895   -0.0001 C.ar    1  LIG1        0.1694
      5 O          -0.3030    3.1567   -0.0002 O.2     1  LIG1       -0.4588
      6 H          -0.7504    0.9343    0.0000 H       1  LIG1        0.1043
      7 N           3.0533   -0.0888    0.0002 N.1     1  LIG1       -0.1907
      8 C           2.3515    0.8179    0.0001 C.1     1  LIG1        0.1036
      9 N           4.2839    4.0300    0.0000 N.1     1  LIG1       -0.1907
     10 C           3.1998    3.6567    0.0000 C.1     1  LIG1        0.1043
     11 C           0.5416    5.2601   -0.0001 C.ar    1  LIG1        0.0839
     12 C          -0.5381    5.9289   -0.4849 C.ar    1  LIG1       -0.0328
     13 C          -0.3316    7.3215   -0.2229 C.ar    1  LIG1       -0.0357
     14 C           0.8644    7.4423    0.4121 C.ar    1  LIG1        0.0482
     15 N           1.4025    6.1827    0.5501 N.ar    1  LIG1       -0.3517
     16 H           2.2741    5.9727    0.9794 H       1  LIG1        0.1660
     17 H          -1.5661    5.3985   -1.0781 H       1  LIG1        0.0640
     18 H          -1.1370    8.2937   -0.5330 H       1  LIG1        0.0639
     19 C           1.8412    9.5258   -0.0447 C.ar    1  LIG1        0.0614
     20 C           2.5117   10.6475    0.4802 C.ar    1  LIG1       -0.0359
     21 C           1.4834    8.4977    0.8512 C.ar    1  LIG1        0.0157
     22 C           2.8131   10.7437    1.8368 C.ar    1  LIG1       -0.0139
     23 H           2.7972   11.4523   -0.1936 H       1  LIG1        0.0637
     24 C           1.7840    8.5932    2.2057 C.ar    1  LIG1       -0.0508
     25 C           2.4503    9.7158    2.7080 C.ar    1  LIG1       -0.0532
     26 H           1.4977    7.7870    2.8763 H       1  LIG1        0.0625
     27 N           1.3634    9.4647   -2.4434 N.1     1  LIG1       -0.1908
     28 C           1.5873    9.4934   -1.3192 C.1     1  LIG1        0.0998
     29 H           2.7288    9.7995    3.9751 H       1  LIG1        0.0624
     30 C           3.4342   12.9907    1.5481 C.ar    1  LIG1        0.1478
     31 C           3.4330   11.7938    2.2874 C.ar    1  LIG1        0.0198
     32 C           4.1095   11.7635    3.5083 C.ar    1  LIG1       -0.0291
     33 C           4.7587   12.9193    3.9456 C.ar    1  LIG1        0.0436
     34 C           4.7033   14.0681    3.1352 C.ar    1  LIG1        0.0497
     35 N           4.0552   14.1149    1.9549 N.ar    1  LIG1       -0.2422
     36 H           4.1314   10.8460    4.1133 H       1  LIG1        0.0643
     37 H           5.2920   15.1685    3.4994 H       1  LIG1        0.0849
     38 N           2.2751   13.1365   -0.6015 N.1     1  LIG1       -0.1893
     39 C           2.8183   13.0682    0.4059 C.1     1  LIG1        0.1197
     40 N           5.4024   12.9422    5.0748 N.pl3   1  LIG1       -0.3568
     41 H           6.0057   12.1466    5.1308 H       1  LIG1        0.1424
     42 H           5.9477   13.7786    5.1308 H       1  LIG1        0.1424
@<TRIPOS>BOND
     1    27    28    3
     2    28    19    1
     3    17    12    1
     4    38    39    3
     5    18    13    1
     6    12    13   ar
     7    12    11   ar
     8    13    14   ar
     9    23    20    1
    10    19    20   ar
    11    19    21   ar
    12     5     4   ar
    13     5     1   ar
    14    11     4    1
    15    11    15   ar
    16     4     3   ar
    17    10     9    3
    18    10     3    1
    19     6     1    1
    20     3     2   ar
    21     1     2   ar
    22     2     8    1
    23     8     7    3
    24    39    30    1
    25    14    15   ar
    26    14    21    1
    27    20    22   ar
    28    15    16    1
    29    21    24   ar
    30    30    35   ar
    31    30    31   ar
    32    22    31    1
    33    22    25   ar
    34    35    34   ar
    35    24    25   ar
    36    24    26    1
    37    31    32   ar
    38    25    29    1
    39    34    37    1
    40    34    33   ar
    41    32    33   ar
    42    32    36    1
    43    33    40    1
    44    40    41    1
    45    40    42    1
