@<TRIPOS>MOLECULE
mol_data/noopt/geoms/mol2/12dd4fe(340)6ld(20)13li(210).out
 53 56 0 0 0
SMALL
GASTEIGER

@<TRIPOS>ATOM
      1 C           0.1763    1.8460    0.0000 C.ar    1  LIG1        0.1112
      2 C           1.5558    1.8460    0.0000 C.ar    1  LIG1        0.1074
      3 C           1.9706    3.2334    0.0000 C.ar    1  LIG1        0.1148
      4 C           0.8165    3.9895   -0.0001 C.ar    1  LIG1        0.1569
      5 O          -0.3030    3.1567   -0.0002 O.2     1  LIG1       -0.4602
      6 H          -0.7504    0.9343    0.0000 H       1  LIG1        0.1043
      7 N           3.0533   -0.0888    0.0002 N.1     1  LIG1       -0.1907
      8 C           2.3515    0.8179    0.0001 C.1     1  LIG1        0.1036
      9 N           4.2839    4.0300    0.0000 N.1     1  LIG1       -0.1907
     10 C           3.1998    3.6567    0.0000 C.1     1  LIG1        0.1043
     11 C           1.5161    6.1896   -0.4175 C.ar    1  LIG1        0.1282
     12 C           1.1697    7.5545   -0.3977 C.ar    1  LIG1       -0.0104
     13 C           0.5416    5.2600   -0.0001 C.ar    1  LIG1        0.0611
     14 C          -0.0907    7.9774    0.0183 C.ar    1  LIG1        0.0061
     15 H           1.9068    8.2886   -0.7155 H       1  LIG1        0.0661
     16 C          -0.7169    5.6817    0.4153 C.ar    1  LIG1       -0.0315
     17 C          -1.0420    7.0421    0.4274 C.ar    1  LIG1        0.0334
     18 H          -1.4510    4.9455    0.7325 H       1  LIG1        0.0638
     19 O           2.7077    5.8562   -0.8161 O.3     1  LIG1       -0.5060
     20 H           3.2453    6.6455   -0.9143 H       1  LIG1        0.2922
     21 C          -2.2200    7.4304    0.8168 C.1     1  LIG1       -0.0690
     22 C          -3.3084    7.7892    1.1767 C.1     1  LIG1       -0.1139
     23 H          -4.2780    8.1088    1.4972 H       1  LIG1        0.1232
     24 C          -1.6465    9.6899   -0.3879 C.ar    1  LIG1        0.2231
     25 C          -0.3767    9.2455    0.0238 C.ar    1  LIG1        0.0462
     26 C           0.5606   10.1947    0.4355 C.ar    1  LIG1       -0.0294
     27 C           0.2015   11.5436    0.4221 C.ar    1  LIG1        0.0800
     28 C          -1.0930   11.8896   -0.0068 C.ar    1  LIG1        0.1118
     29 N          -2.0098   10.9870   -0.4071 N.ar    1  LIG1       -0.2095
     30 H           1.5633    9.8853    0.7630 H       1  LIG1        0.0639
     31 O          -2.5529    8.8443   -0.7798 O.3     1  LIG1       -0.4792
     32 C          -3.8052    9.5195   -0.9237 C.3     1  LIG1        0.0804
     33 H          -4.5509    8.8233   -1.2464 H       1  LIG1        0.0660
     34 H          -4.0936    9.9406    0.0168 H       1  LIG1        0.0660
     35 H          -3.7083   10.3001   -1.6491 H       1  LIG1        0.0660
     36 N           1.7765   13.2788    1.1253 N.1     1  LIG1       -0.1908
     37 C           1.0384   12.4656    0.7957 C.1     1  LIG1        0.1014
     38 C          -1.4742   13.1321   -0.0369 C.ar    1  LIG1        0.1088
     39 C          -2.6032   13.6963   -0.5420 C.ar    1  LIG1        0.1496
     40 C          -2.5168   15.1068   -0.3105 C.ar    1  LIG1        0.0092
     41 C          -1.3397   15.3423    0.3274 C.ar    1  LIG1        0.0087
     42 N          -0.6980   14.1361    0.4965 N.ar    1  LIG1       -0.3562
     43 H           0.1852   14.0102    0.9347 H       1  LIG1        0.1655
     44 H          -0.8149   16.4558    0.7456 H       1  LIG1        0.0811
     45 O          -3.5787   13.0678   -1.1281 O.3     1  LIG1       -0.4927
     46 C          -4.6669   13.9704   -1.3433 C.3     1  LIG1        0.0789
     47 H          -5.4695   13.4528   -1.8258 H       1  LIG1        0.0660
     48 H          -5.0039   14.3535   -0.4027 H       1  LIG1        0.0660
     49 H          -4.3415   14.7802   -1.9623 H       1  LIG1        0.0660
     50 C          -3.3995   16.0005   -0.6466 C.3     1  LIG1       -0.0348
     51 H          -4.3548   15.7245   -0.2515 H       1  LIG1        0.0279
     52 H          -3.4585   16.0601   -1.7133 H       1  LIG1        0.0279
     53 H          -3.1116   16.9523   -0.2515 H       1  LIG1        0.0279
@<TRIPOS>BOND
     1    49    46    1
     2    47    46    1
     3    52    50    1
     4    35    32    1
     5    46    45    1
     6    46    48    1
     7    33    32    1
     8    45    39    1
     9    32    31    1
    10    32    34    1
    11    20    19    1
    12    19    11    1
    13    31    24    1
    14    15    12    1
    15    50    40    1
    16    50    53    1
    17    50    51    1
    18    39    40   ar
    19    39    38   ar
    20    11    12   ar
    21    11    13   ar
    22    29    24   ar
    23    29    28   ar
    24    12    14   ar
    25    24    25   ar
    26    40    41   ar
    27    38    28    1
    28    38    42   ar
    29    28    27   ar
    30     5     4   ar
    31     5     1   ar
    32    13     4    1
    33    13    16   ar
    34     4     3   ar
    35     1     2   ar
    36     1     6    1
    37     2     3   ar
    38     2     8    1
    39     3    10    1
    40     9    10    3
    41     8     7    3
    42    14    25    1
    43    14    17   ar
    44    25    26   ar
    45    41    42   ar
    46    41    44    1
    47    16    17   ar
    48    16    18    1
    49    27    26   ar
    50    27    37    1
    51    17    21    1
    52    26    30    1
    53    42    43    1
    54    37    36    3
    55    21    22    3
    56    22    23    1
