@<TRIPOS>MOLECULE
mol_data/noopt/geoms/mol2/12de12hh-13aa13id.out
 43 46 0 0 0
SMALL
GASTEIGER

@<TRIPOS>ATOM
      1 C           0.1763    1.8460    0.0000 C.ar    1  LIG1        0.1113
      2 C           1.5558    1.8460    0.0000 C.ar    1  LIG1        0.1055
      3 C           1.9706    3.2334    0.0000 C.ar    1  LIG1        0.0908
      4 C           0.8165    3.9895   -0.0001 C.ar    1  LIG1        0.1882
      5 O          -0.3030    3.1567   -0.0002 O.2     1  LIG1       -0.4572
      6 H          -0.7504    0.9343    0.0000 H       1  LIG1        0.1043
      7 N           3.0533   -0.0888    0.0002 N.1     1  LIG1       -0.1907
      8 C           2.3515    0.8179    0.0001 C.1     1  LIG1        0.1036
      9 C           3.1998    3.6567    0.0000 C.1     1  LIG1       -0.0645
     10 C           4.3355    4.0478    0.0000 C.1     1  LIG1       -0.1138
     11 H           5.3472    4.3962    0.0000 H       1  LIG1        0.1232
     12 C           0.5416    5.2601   -0.0001 C.ar    1  LIG1        0.1942
     13 C           1.2792    6.4258   -0.0001 C.ar    1  LIG1        0.0958
     14 C           0.3286    7.5182   -0.0001 C.ar    1  LIG1        0.0942
     15 C          -0.9274    6.9472   -0.0002 C.ar    1  LIG1        0.1743
     16 O          -0.8223    5.5559   -0.0003 O.2     1  LIG1       -0.4464
     17 N           2.5735    6.5485   -0.0000 N.pl3   1  LIG1       -0.3535
     18 H           2.9823    5.7671   -0.4714 H       1  LIG1        0.1425
     19 H           2.8283    7.3927   -0.4714 H       1  LIG1        0.1425
     20 N           0.6282    8.7832   -0.0001 N.pl3   1  LIG1       -0.3535
     21 H           1.4995    8.9194   -0.4715 H       1  LIG1        0.1425
     22 H          -0.0895    9.2957   -0.4715 H       1  LIG1        0.1425
     23 C          -2.1481    7.3944   -0.0002 C.ar    1  LIG1        0.0845
     24 C          -2.6205    8.6690   -0.0006 C.ar    1  LIG1       -0.0327
     25 C          -4.0506    8.5952    0.0007 C.ar    1  LIG1       -0.0343
     26 C          -4.3892    7.2786    0.0001 C.ar    1  LIG1        0.0637
     27 N          -3.2275    6.5399   -0.0000 N.ar    1  LIG1       -0.3506
     28 H          -3.1762    5.5473   -0.0006 H       1  LIG1        0.1660
     29 H          -1.9029    9.7530   -0.0005 H       1  LIG1        0.0640
     30 H          -4.8760    9.5995    0.0019 H       1  LIG1        0.0639
     31 C          -5.5574    6.7081    0.0006 C.ar    1  LIG1        0.0671
     32 C          -6.8038    7.2504    0.0173 C.ar    1  LIG1       -0.0064
     33 C          -7.7413    6.1680    0.0101 C.ar    1  LIG1        0.0725
     34 C          -7.0266    5.0118   -0.0123 C.ar    1  LIG1        0.0199
     35 N          -5.6891    5.3379   -0.0177 N.ar    1  LIG1       -0.3581
     36 H          -4.9378    4.6872   -0.0331 H       1  LIG1        0.1654
     37 H          -7.4244    3.7743   -0.0264 H       1  LIG1        0.0820
     38 C          -7.0883    8.5190    0.0375 C.3     1  LIG1       -0.0364
     39 H          -8.0171    8.6681    0.5475 H       1  LIG1        0.0279
     40 H          -7.1699    8.8824   -0.9656 H       1  LIG1        0.0279
     41 H          -6.3122    9.0505    0.5474 H       1  LIG1        0.0279
     42 N         -10.1805    6.3570    0.0330 N.1     1  LIG1       -0.1908
     43 C          -9.0373    6.2684    0.0223 C.1     1  LIG1        0.1009
@<TRIPOS>BOND
     1    40    38    1
     2    22    20    1
     3    21    20    1
     4    19    17    1
     5    18    17    1
     6    36    35    1
     7    37    34    1
     8    35    34   ar
     9    35    31   ar
    10    34    33   ar
    11    28    27    1
    12    24    29    1
    13    24    23   ar
    14    24    25   ar
    15    16    15   ar
    16    16    12   ar
    17     5     4   ar
    18     5     1   ar
    19    15    23    1
    20    15    14   ar
    21    23    27   ar
    22    12    13   ar
    23    12     4    1
    24    20    14    1
    25    14    13   ar
    26    13    17    1
    27     4     3   ar
    28    27    26   ar
    29     1     2   ar
    30     1     6    1
    31     2     3   ar
    32     2     8    1
    33    11    10    1
    34    10     9    3
    35     9     3    1
    36    26    31    1
    37    26    25   ar
    38     8     7    3
    39    31    32   ar
    40    25    30    1
    41    33    32   ar
    42    33    43    1
    43    32    38    1
    44    43    42    3
    45    38    41    1
    46    38    39    1
