@<TRIPOS>MOLECULE
mol_data/noopt/geoms/mol2/12de13ff(140)4hf(270)6ad(200).out
 45 48 0 0 0
SMALL
GASTEIGER

@<TRIPOS>ATOM
      1 C           0.1763    1.8460    0.0000 C.ar    1  LIG1        0.1112
      2 C           1.5558    1.8460    0.0000 C.ar    1  LIG1        0.1054
      3 C           1.9706    3.2334    0.0000 C.ar    1  LIG1        0.0893
      4 C           0.8165    3.9895   -0.0001 C.ar    1  LIG1        0.1712
      5 O          -0.3030    3.1567   -0.0002 O.2     1  LIG1       -0.4588
      6 H          -0.7504    0.9343    0.0000 H       1  LIG1        0.1043
      7 N           3.0533   -0.0888    0.0002 N.1     1  LIG1       -0.1907
      8 C           2.3515    0.8179    0.0001 C.1     1  LIG1        0.1036
      9 C           3.1998    3.6567    0.0000 C.1     1  LIG1       -0.0645
     10 C           4.3355    4.0478    0.0000 C.1     1  LIG1       -0.1138
     11 H           5.3472    4.3962    0.0000 H       1  LIG1        0.1232
     12 C           0.5416    5.2601   -0.0001 C.ar    1  LIG1        0.1295
     13 C          -0.4449    5.9490    0.6324 C.ar    1  LIG1        0.1879
     14 C          -0.2902    7.3304    0.2884 C.ar    1  LIG1        0.1849
     15 C           0.7852    7.4252   -0.5379 C.ar    1  LIG1        0.0947
     16 N           1.2971    6.1599   -0.7175 N.ar    1  LIG1       -0.3458
     17 H           2.0873    5.9323   -1.2760 H       1  LIG1        0.1662
     18 O          -1.3597    5.4432    1.4054 O.3     1  LIG1       -0.5018
     19 H          -1.1472    4.5266    1.5959 H       1  LIG1        0.2924
     20 O          -1.0377    8.3152    0.6904 O.3     1  LIG1       -0.5019
     21 H          -1.9427    8.0107    0.7895 H       1  LIG1        0.2924
     22 C           1.3620    8.5430   -2.5182 C.ar    1  LIG1        0.0347
     23 C           1.9528    9.6860   -3.0908 C.ar    1  LIG1       -0.0292
     24 C           1.3196    8.4622   -1.1113 C.ar    1  LIG1        0.0261
     25 C           2.4781   10.7050   -2.2995 C.ar    1  LIG1        0.0268
     26 H           1.9962    9.7685   -4.1745 H       1  LIG1        0.0643
     27 C           1.8439    9.4793   -0.3208 C.ar    1  LIG1       -0.0086
     28 C           2.4263   10.6071   -0.9085 C.ar    1  LIG1        0.1253
     29 H           1.7992    9.3936    0.7619 H       1  LIG1        0.0661
     30 N           0.8889    7.6255   -3.3085 N.pl3   1  LIG1       -0.3574
     31 H           0.1733    8.0193   -3.8854 H       1  LIG1        0.1423
     32 H           1.6246    7.2708   -3.8854 H       1  LIG1        0.1423
     33 O           2.9149   11.5546   -0.1645 O.3     1  LIG1       -0.5061
     34 H           2.2310   12.2029    0.0189 H       1  LIG1        0.2922
     35 C           4.4065   11.9517   -2.7951 C.ar    1  LIG1        0.0354
     36 C           3.0162   11.7464   -2.8616 C.ar    1  LIG1        0.0050
     37 C           2.2358   12.6830   -3.5419 C.ar    1  LIG1       -0.0336
     38 C           2.8645   13.7832   -4.1275 C.ar    1  LIG1        0.0704
     39 C           4.2613   13.9013   -4.0067 C.ar    1  LIG1        0.0449
     40 N           5.0295   13.0072   -3.3542 N.ar    1  LIG1       -0.2614
     41 H           1.1462   12.5568   -3.6140 H       1  LIG1        0.0637
     42 H           4.8922   14.9077   -4.5348 H       1  LIG1        0.0842
     43 H           5.1749   11.1075   -2.1731 H       1  LIG1        0.0836
     44 N           1.5804   15.4766   -5.3397 N.1     1  LIG1       -0.1908
     45 C           2.1822   14.6830   -4.7716 C.1     1  LIG1        0.1007
@<TRIPOS>BOND
     1    44    45    3
     2    45    38    1
     3    42    39    1
     4    26    23    1
     5    38    39   ar
     6    38    37   ar
     7    39    40   ar
     8    32    30    1
     9    31    30    1
    10    41    37    1
    11    37    36   ar
    12    40    35   ar
    13    30    22    1
    14    23    22   ar
    15    23    25   ar
    16    36    35   ar
    17    36    25    1
    18    35    43    1
    19    22    24   ar
    20    25    28   ar
    21    17    16    1
    22    24    15    1
    23    24    27   ar
    24    28    27   ar
    25    28    33    1
    26    16    15   ar
    27    16    12   ar
    28    15    14   ar
    29    27    29    1
    30    33    34    1
    31     5     4   ar
    32     5     1   ar
    33     4    12    1
    34     4     3   ar
    35    12    13   ar
    36     6     1    1
    37     9     3    1
    38     9    10    3
    39     2     3   ar
    40     2     1   ar
    41     2     8    1
    42    10    11    1
    43     8     7    3
    44    14    13   ar
    45    14    20    1
    46    13    18    1
    47    20    21    1
    48    18    19    1
