@<TRIPOS>MOLECULE
mol_data/noopt/geoms/mol2/12de12aa(270)4dd(230)4ie(20).out
 46 49 0 0 0
SMALL
GASTEIGER

@<TRIPOS>ATOM
      1 C           0.1763    1.8460    0.0000 C.ar    1  LIG1        0.1113
      2 C           1.5558    1.8460    0.0000 C.ar    1  LIG1        0.1055
      3 C           1.9706    3.2334    0.0000 C.ar    1  LIG1        0.0908
      4 C           0.8165    3.9895   -0.0001 C.ar    1  LIG1        0.1863
      5 O          -0.3030    3.1567   -0.0002 O.2     1  LIG1       -0.4572
      6 H          -0.7504    0.9343    0.0000 H       1  LIG1        0.1043
      7 N           3.0533   -0.0888    0.0002 N.1     1  LIG1       -0.1907
      8 C           2.3515    0.8179    0.0001 C.1     1  LIG1        0.1036
      9 C           3.1998    3.6567    0.0000 C.1     1  LIG1       -0.0645
     10 C           4.3355    4.0478    0.0000 C.1     1  LIG1       -0.1138
     11 H           5.3472    4.3962    0.0000 H       1  LIG1        0.1232
     12 C           0.5416    5.2601   -0.0001 C.ar    1  LIG1        0.1718
     13 C           0.3337    6.2212   -0.9676 C.ar    1  LIG1       -0.0121
     14 C           0.0654    7.4612   -0.2695 C.ar    1  LIG1       -0.0151
     15 C           0.1271    7.1754    1.0789 C.ar    1  LIG1        0.1371
     16 O           0.4193    5.8245    1.2704 O.2     1  LIG1       -0.4517
     17 H           0.3663    6.0709   -2.2584 H       1  LIG1        0.0657
     18 H          -0.1827    8.6078   -0.8297 H       1  LIG1        0.0656
     19 C          -1.0342    8.8296    2.2700 C.ar    1  LIG1        0.0630
     20 C          -1.1513    9.5395    3.4807 C.ar    1  LIG1       -0.0356
     21 C          -0.0199    7.8548    2.1774 C.ar    1  LIG1        0.0350
     22 C          -0.2978    9.2910    4.5532 C.ar    1  LIG1       -0.0112
     23 H          -1.9271   10.2963    3.5735 H       1  LIG1        0.0637
     24 C           0.8325    7.6062    3.2478 C.ar    1  LIG1       -0.0441
     25 C           0.6999    8.3217    4.4424 C.ar    1  LIG1       -0.0133
     26 H           1.6069    6.8495    3.1517 H       1  LIG1        0.0628
     27 N          -2.5886    9.3496    0.4536 N.1     1  LIG1       -0.1908
     28 C          -1.8601    9.1059    1.3049 C.1     1  LIG1        0.0999
     29 N           2.2052    7.8765    6.3191 N.3     1  LIG1       -0.2407
     30 C           1.4997    8.0852    5.4396 C.3     1  LIG1        0.1098
     31 C           0.6881   10.2088    6.4740 C.ar    1  LIG1       -0.0393
     32 C           0.4876   10.9424    7.6593 C.ar    1  LIG1       -0.0568
     33 C          -0.4343    9.9650    5.6564 C.ar    1  LIG1       -0.0132
     34 C          -0.7737   11.4139    8.0164 C.ar    1  LIG1       -0.0460
     35 H           1.3400   11.1417    8.3049 H       1  LIG1        0.0621
     36 C          -1.6937   10.4354    6.0124 C.ar    1  LIG1       -0.0383
     37 C          -1.8725   11.1626    7.1937 C.ar    1  LIG1        0.0253
     38 H          -2.5435   10.2342    5.3651 H       1  LIG1        0.0636
     39 H          -0.9228   12.0880    9.1179 H       1  LIG1        0.0630
     40 C           1.8888    9.7954    6.1941 C.3     1  LIG1       -0.0231
     41 H           2.6052   10.4727    6.6099 H       1  LIG1        0.0316
     42 H           2.0128    9.7527    5.1321 H       1  LIG1        0.0316
     43 H           2.0363    8.8206    6.6099 H       1  LIG1        0.1417
     44 C          -3.0521   11.5997    7.5214 C.1     1  LIG1       -0.0696
     45 C          -4.1421   12.0036    7.8242 C.1     1  LIG1       -0.1139
     46 H          -5.1130   12.3634    8.0940 H       1  LIG1        0.1232
@<TRIPOS>BOND
     1    17    13    1
     2    13    14   ar
     3    13    12   ar
     4    18    14    1
     5    14    15   ar
     6     5     4   ar
     7     5     1   ar
     8     4    12    1
     9     4     3   ar
    10    12    16   ar
    11     1     6    1
    12     1     2   ar
    13    11    10    1
    14    10     9    3
    15     9     3    1
    16     3     2   ar
    17     2     8    1
    18     8     7    3
    19    27    28    3
    20    15    16   ar
    21    15    21    1
    22    28    19    1
    23    21    19   ar
    24    21    24   ar
    25    19    20   ar
    26    26    24    1
    27    24    25   ar
    28    20    23    1
    29    20    22   ar
    30    25    22   ar
    31    25    30    1
    32    22    33    1
    33    42    40    1
    34    38    36    1
    35    30    29    1
    36    33    36   ar
    37    33    31   ar
    38    36    37   ar
    39    40    31    1
    40    40    41    1
    41    29    43    1
    42    31    32   ar
    43    37    44    1
    44    37    34   ar
    45    44    45    3
    46    32    34   ar
    47    32    35    1
    48    45    46    1
    49    34    39    1
