@<TRIPOS>MOLECULE
mol_data/noopt/geoms/mol2/12df4ii-12id-4da.out
 49 53 0 0 0
SMALL
GASTEIGER

@<TRIPOS>ATOM
      1 C           0.1763    1.8460    0.0000 C.ar    1  LIG1        0.1136
      2 C           1.5558    1.8460    0.0000 C.ar    1  LIG1        0.1314
      3 C           1.9706    3.2334    0.0000 C.ar    1  LIG1        0.1804
      4 C           0.8165    3.9895   -0.0001 C.ar    1  LIG1        0.1775
      5 O          -0.3030    3.1567   -0.0002 O.2     1  LIG1       -0.4578
      6 H          -0.7504    0.9343    0.0000 H       1  LIG1        0.1044
      7 N           3.0533   -0.0888    0.0002 N.1     1  LIG1       -0.1906
      8 C           2.3515    0.8179    0.0001 C.1     1  LIG1        0.1060
      9 O           3.1998    3.6567    0.0000 O.3     1  LIG1       -0.5024
     10 H           3.2081    4.6167    0.0000 H       1  LIG1        0.2923
     11 C           1.5877    6.2051    0.0220 C.ar    1  LIG1       -0.0390
     12 C           1.2377    7.5692    0.0226 C.ar    1  LIG1       -0.0472
     13 C           0.5416    5.2600   -0.0001 C.ar    1  LIG1        0.0241
     14 C          -0.0943    7.9766    0.0015 C.ar    1  LIG1        0.0207
     15 H           2.0291    8.3151    0.0396 H       1  LIG1        0.0627
     16 C          -0.7883    5.6663   -0.0212 C.ar    1  LIG1       -0.0471
     17 C          -1.1157    7.0262   -0.0206 C.ar    1  LIG1       -0.0391
     18 H          -1.5769    4.9183   -0.0379 H       1  LIG1        0.0627
     19 C           2.8482    5.8865    0.0420 C.3     1  LIG1       -0.0390
     20 H           3.4005    6.6480    0.5518 H       1  LIG1        0.0278
     21 H           3.2090    5.7953   -0.9612 H       1  LIG1        0.0278
     22 H           2.9723    4.9539    0.5518 H       1  LIG1        0.0278
     23 C          -2.3610    7.4000   -0.0402 C.3     1  LIG1       -0.0390
     24 H          -2.9611    6.6680    0.4588 H       1  LIG1        0.0278
     25 H          -2.6880    7.4982   -1.0543 H       1  LIG1        0.0278
     26 H          -2.4586    8.3416    0.4587 H       1  LIG1        0.0278
     27 C          -0.3815    9.2445    0.0026 C.ar    1  LIG1        0.1392
     28 C           0.3447   10.4173    0.0034 C.ar    1  LIG1        0.0011
     29 C          -0.6164   11.5004    0.0044 C.ar    1  LIG1        0.0294
     30 C          -1.8669   10.9173    0.0041 C.ar    1  LIG1        0.1414
     31 O          -1.7482    9.5271    0.0028 O.2     1  LIG1       -0.4542
     32 C           1.6380   10.5526    0.0034 C.3     1  LIG1       -0.0358
     33 H           1.9019   11.4586    0.5078 H       1  LIG1        0.0279
     34 H           1.9927   10.5897   -1.0055 H       1  LIG1        0.0279
     35 H           2.0836    9.7207    0.5077 H       1  LIG1        0.0279
     36 N          -0.0758   13.8865    0.0063 N.3     1  LIG1       -0.1261
     37 C          -0.3292   12.7683    0.0054 C.3     1  LIG1        0.1384
     38 C          -3.3445   12.7396    0.0057 C.ar    1  LIG1       -0.0092
     39 C          -4.6885   13.1602    0.0079 C.ar    1  LIG1       -0.0559
     40 C          -3.0918   11.3525    0.0047 C.ar    1  LIG1        0.0228
     41 C          -5.7362   12.2421    0.0083 C.ar    1  LIG1       -0.0614
     42 H          -4.9059   14.2260    0.0089 H       1  LIG1        0.0621
     43 C          -4.1374   10.4355    0.0051 C.ar    1  LIG1       -0.0507
     44 C          -5.4659   10.8731    0.0068 C.ar    1  LIG1       -0.0611
     45 H          -3.9167    9.3711    0.0043 H       1  LIG1        0.0625
     46 H          -6.9654   12.6654    0.0102 H       1  LIG1        0.0618
     47 N          -1.5860   14.4407    0.0046 N.3     1  LIG1       -0.1262
     48 C          -2.4101   13.6434    0.0052 C.3     1  LIG1        0.1351
     49 H          -6.4392   10.0113    0.0074 H       1  LIG1        0.0618
@<TRIPOS>BOND
     1    25    23    1
     2    34    32    1
     3    21    19    1
     4    23    17    1
     5    23    26    1
     6    23    24    1
     7    18    16    1
     8    16    17   ar
     9    16    13   ar
    10    17    14   ar
    11     5     4   ar
    12     5     1   ar
    13     4    13    1
    14     4     3   ar
    15    13    11   ar
    16     1     2   ar
    17     1     6    1
    18    10     9    1
    19     9     3    1
    20     2     3   ar
    21     2     8    1
    22     8     7    3
    23    14    27    1
    24    14    12   ar
    25    27    31   ar
    26    27    28   ar
    27    31    30   ar
    28    32    28    1
    29    32    35    1
    30    32    33    1
    31    28    29   ar
    32    30    29   ar
    33    30    40    1
    34    45    43    1
    35    29    37    1
    36    47    48    1
    37    47    36    1
    38    40    43   ar
    39    40    38   ar
    40    43    44   ar
    41    48    38    1
    42    37    36    1
    43    38    39   ar
    44    44    49    1
    45    44    41   ar
    46    39    41   ar
    47    39    42    1
    48    41    46    1
    49    11    12   ar
    50    11    19    1
    51    12    15    1
    52    19    22    1
    53    19    20    1
