@<TRIPOS>MOLECULE
mol_data/noopt/geoms/mol2/12df13hh13dl4fd-13ei6ii-6ie12hf.out
 100 107 0 0 0
SMALL
GASTEIGER

@<TRIPOS>ATOM
      1 C           0.1763    1.8460    0.0000 C.ar    1  LIG1        0.1137
      2 C           1.5558    1.8460    0.0000 C.ar    1  LIG1        0.1315
      3 C           1.9706    3.2334    0.0000 C.ar    1  LIG1        0.1819
      4 C           0.8165    3.9895   -0.0001 C.ar    1  LIG1        0.1952
      5 O          -0.3030    3.1567   -0.0002 O.2     1  LIG1       -0.4563
      6 H          -0.7504    0.9343    0.0000 H       1  LIG1        0.1044
      7 N           3.0533   -0.0888    0.0002 N.1     1  LIG1       -0.1906
      8 C           2.3515    0.8179    0.0001 C.1     1  LIG1        0.1060
      9 O           3.1998    3.6567    0.0000 O.3     1  LIG1       -0.5023
     10 H           3.2081    4.6167    0.0000 H       1  LIG1        0.2923
     11 C           0.5416    5.2601   -0.0001 C.ar    1  LIG1        0.1090
     12 C           1.3660    6.3408    0.0161 C.ar    1  LIG1        0.0750
     13 C           0.5390    7.5098    0.0084 C.ar    1  LIG1        0.0734
     14 C          -0.7545    7.0921   -0.0139 C.ar    1  LIG1        0.0876
     15 N          -0.7574    5.7154   -0.0188 N.ar    1  LIG1       -0.3475
     16 H          -1.5687    5.1413   -0.0340 H       1  LIG1        0.1662
     17 N           2.6656    6.3141    0.0365 N.pl3   1  LIG1       -0.3548
     18 H           2.9894    5.4907   -0.4296 H       1  LIG1        0.1424
     19 H           3.0231    7.1233   -0.4296 H       1  LIG1        0.1424
     20 N           0.9462    8.7444    0.0202 N.pl3   1  LIG1       -0.3548
     21 H           1.8273    8.8092   -0.4482 H       1  LIG1        0.1424
     22 H           0.2765    9.3207   -0.4483 H       1  LIG1        0.1424
     23 C          -1.8611    7.7741   -0.0284 C.ar    1  LIG1        0.0865
     24 C          -2.0691    9.1175   -0.0386 C.ar    1  LIG1        0.1206
     25 C          -3.4850    9.3309   -0.0520 C.ar    1  LIG1        0.1633
     26 C          -4.0800    8.1086   -0.0512 C.ar    1  LIG1        0.0941
     27 N          -3.0894    7.1527   -0.0363 N.ar    1  LIG1       -0.3489
     28 H          -3.2377    6.1698   -0.0325 H       1  LIG1        0.1661
     29 N          -0.3381   10.8465   -0.0322 N.1     1  LIG1       -0.1907
     30 C          -1.1493   10.0362   -0.0352 C.1     1  LIG1        0.1050
     31 O          -4.0930   10.4800   -0.0634 O.3     1  LIG1       -0.4917
     32 C          -3.1248   11.5323   -0.0677 C.3     1  LIG1        0.0789
     33 H          -3.6256   12.4778   -0.0772 H       1  LIG1        0.0660
     34 H          -2.5157   11.4601    0.8092 H       1  LIG1        0.0660
     35 H          -2.5084   11.4464   -0.9380 H       1  LIG1        0.0660
     36 C          -6.3248    8.7904   -0.0437 C.ar    1  LIG1        0.1268
     37 C          -7.6738    8.3861   -0.0534 C.ar    1  LIG1       -0.0091
     38 C          -5.3385    7.7831   -0.0607 C.ar    1  LIG1        0.0446
     39 C          -8.0274    7.0389   -0.0795 C.ar    1  LIG1        0.0203
     40 H          -8.4509    9.1470   -0.0405 H       1  LIG1        0.0661
     41 C          -5.6910    6.4380   -0.0867 C.ar    1  LIG1       -0.0310
     42 C          -7.0366    6.0564   -0.0964 C.ar    1  LIG1        0.0617
     43 H          -4.9119    5.6800   -0.0993 H       1  LIG1        0.0638
     44 O          -6.0571   10.0624   -0.0195 O.3     1  LIG1       -0.5061
     45 H          -6.8767   10.5622   -0.0135 H       1  LIG1        0.2922
     46 N          -7.6454    3.6872   -0.1419 N.1     1  LIG1       -0.1908
     47 C          -7.3601    4.7975   -0.1206 C.1     1  LIG1        0.0998
     48 C          -9.2827    6.7011   -0.0879 C.ar    1  LIG1        0.0641
     49 C         -10.4032    7.4708   -0.0774 C.ar    1  LIG1        0.0534
     50 C         -11.5295    6.5866   -0.0936 C.ar    1  LIG1       -0.0092
     51 C         -11.0478    5.3156   -0.1151 C.ar    1  LIG1        0.0528
     52 N          -9.6727    5.3811   -0.1112 N.ar    1  LIG1       -0.3529
     53 H          -9.0589    4.5994   -0.1240 H       1  LIG1        0.1659
     54 C         -10.4412    8.7700   -0.0550 C.1     1  LIG1       -0.0673
     55 C         -10.4764    9.9705   -0.0344 C.1     1  LIG1       -0.1138
     56 H         -10.5077   11.0399   -0.0160 H       1  LIG1        0.1232
     57 C         -12.7831    6.9319   -0.0892 C.3     1  LIG1       -0.0365
     58 H         -13.3574    6.1839    0.4165 H       1  LIG1        0.0279
     59 H         -13.1304    7.0275   -1.0968 H       1  LIG1        0.0279
     60 H         -12.8933    7.8685    0.4164 H       1  LIG1        0.0279
     61 C         -10.9524    2.9690   -0.1676 C.ar    1  LIG1        0.0480
     62 C         -11.6738    4.1764   -0.1355 C.ar    1  LIG1        0.0199
     63 C         -13.0687    4.1196   -0.1257 C.ar    1  LIG1       -0.0460
     64 C         -13.6905    2.8700   -0.1484 C.ar    1  LIG1       -0.0238
     65 C         -12.8828    1.7185   -0.1802 C.ar    1  LIG1        0.0759
     66 N         -11.5360    1.7550   -0.1898 N.ar    1  LIG1       -0.2509
     67 H         -13.6661    5.0420   -0.1018 H       1  LIG1        0.0628
     68 C          -9.6522    2.9704   -0.1777 C.3     1  LIG1       -0.0217
     69 H          -9.2925    3.8444    0.3240 H       1  LIG1        0.0293
     70 H          -9.3033    2.9708   -1.1893 H       1  LIG1        0.0293
     71 H          -9.2907    2.0971    0.3239 H       1  LIG1        0.0293
     72 C         -14.9865    2.7638   -0.1408 C.3     1  LIG1       -0.0377
     73 H         -15.2676    1.8642    0.3657 H       1  LIG1        0.0278
     74 H         -15.3479    2.7341   -1.1475 H       1  LIG1        0.0278
     75 H         -15.4103    3.6057    0.3657 H       1  LIG1        0.0278
     76 C         -12.5986   -0.6131   -0.2139 C.ar    1  LIG1        0.0483
     77 C         -13.4150    0.5326   -0.2021 C.ar    1  LIG1        0.0228
     78 C         -14.8008    0.3640   -0.2141 C.ar    1  LIG1       -0.0333
     79 C         -15.3199   -0.9316   -0.2375 C.ar    1  LIG1        0.0543
     80 C         -14.4220   -2.0147   -0.2480 C.ar    1  LIG1        0.1235
     81 N         -13.0825   -1.8702   -0.2365 N.ar    1  LIG1       -0.2468
     82 H         -15.4705    1.2356   -0.2065 H       1  LIG1        0.0637
     83 C         -11.3027   -0.5074   -0.2034 C.3     1  LIG1       -0.0217
     84 H         -11.0223    0.3921    0.3039 H       1  LIG1        0.0293
     85 H         -10.9391   -0.4776   -1.2093 H       1  LIG1        0.0293
     86 H         -10.8802   -1.3495    0.3038 H       1  LIG1        0.0293
     87 C         -16.6028   -1.1414   -0.2496 C.1     1  LIG1       -0.0674
     88 C         -17.7882   -1.3353   -0.2608 C.1     1  LIG1       -0.1138
     89 H         -18.8441   -1.5080   -0.2708 H       1  LIG1        0.1232
     90 C         -14.8570   -3.2396   -0.2696 C.ar    1  LIG1        0.1783
     91 C         -16.0977   -3.8424   -0.2860 C.ar    1  LIG1        0.1146
     92 C         -15.8643   -5.2714   -0.3071 C.ar    1  LIG1        0.1763
     93 C         -14.4958   -5.4470   -0.3023 C.ar    1  LIG1        0.1359
     94 O         -13.8530   -4.2089   -0.2794 O.2     1  LIG1       -0.4557
     95 H         -13.6932   -6.4696   -0.3139 H       1  LIG1        0.1068
     96 N         -17.2627   -3.2655   -0.2833 N.pl3   1  LIG1       -0.3522
     97 H         -17.1999   -2.3854   -0.7541 H       1  LIG1        0.1425
     98 H         -17.9246   -3.8488   -0.7541 H       1  LIG1        0.1425
     99 O         -16.7848   -6.1892   -0.3266 O.3     1  LIG1       -0.5024
    100 H         -16.3728   -7.0562   -0.3314 H       1  LIG1        0.2923
@<TRIPOS>BOND
     1    85    83    1
     2    70    68    1
     3    74    72    1
     4    59    57    1
     5    35    32    1
     6    98    96    1
     7    97    96    1
     8    22    20    1
     9    21    20    1
    10    19    17    1
    11    18    17    1
    12   100    99    1
    13    99    92    1
    14    95    93    1
    15    92    93   ar
    16    92    91   ar
    17    93    94   ar
    18    91    96    1
    19    91    90   ar
    20    94    90   ar
    21    89    88    1
    22    90    80    1
    23    88    87    3
    24    87    79    1
    25    80    79   ar
    26    80    81   ar
    27    79    78   ar
    28    81    76   ar
    29    78    82    1
    30    78    77   ar
    31    76    83    1
    32    76    77   ar
    33    83    86    1
    34    83    84    1
    35    77    65    1
    36    66    65   ar
    37    66    61   ar
    38    65    64   ar
    39    68    61    1
    40    68    71    1
    41    68    69    1
    42    61    62   ar
    43    64    72    1
    44    64    63   ar
    45    46    47    3
    46    72    75    1
    47    72    73    1
    48    62    63   ar
    49    62    51    1
    50    63    67    1
    51    53    52    1
    52    47    42    1
    53    51    52   ar
    54    51    50   ar
    55    52    48   ar
    56    43    41    1
    57    42    41   ar
    58    42    39   ar
    59    50    57    1
    60    50    49   ar
    61    57    60    1
    62    57    58    1
    63    48    39    1
    64    48    49   ar
    65    41    38   ar
    66    39    37   ar
    67    49    54    1
    68    33    32    1
    69    32    31    1
    70    32    34    1
    71    31    25    1
    72    38    26    1
    73    38    36   ar
    74    54    55    3
    75    37    36   ar
    76    37    40    1
    77    25    26   ar
    78    25    24   ar
    79    26    27   ar
    80    36    44    1
    81    24    30    1
    82    24    23   ar
    83    27    28    1
    84    27    23   ar
    85    30    29    3
    86    55    56    1
    87    16    15    1
    88    23    14    1
    89    44    45    1
    90    15    14   ar
    91    15    11   ar
    92    14    13   ar
    93     5     4   ar
    94     5     1   ar
    95     4    11    1
    96     4     3   ar
    97    11    12   ar
    98     2     3   ar
    99     2     1   ar
   100     2     8    1
   101     3     9    1
   102     6     1    1
   103     9    10    1
   104     8     7    3
   105    13    12   ar
   106    13    20    1
   107    12    17    1
