@<TRIPOS>MOLECULE
mol_data/noopt/geoms/mol2/12df12aa(200)4ii(200)13hl(120).out
 48 51 0 0 0
SMALL
GASTEIGER

@<TRIPOS>ATOM
      1 C           0.1763    1.8460    0.0000 C.ar    1  LIG1        0.1138
      2 C           1.5558    1.8460    0.0000 C.ar    1  LIG1        0.1315
      3 C           1.9706    3.2334    0.0000 C.ar    1  LIG1        0.1835
      4 C           0.8165    3.9895   -0.0001 C.ar    1  LIG1        0.2121
      5 O          -0.3030    3.1567   -0.0002 O.2     1  LIG1       -0.4547
      6 H          -0.7504    0.9343    0.0000 H       1  LIG1        0.1044
      7 N           3.0533   -0.0888    0.0002 N.1     1  LIG1       -0.1906
      8 C           2.3515    0.8179    0.0001 C.1     1  LIG1        0.1060
      9 O           3.1998    3.6567    0.0000 O.3     1  LIG1       -0.5023
     10 H           3.2081    4.6167    0.0000 H       1  LIG1        0.2923
     11 C           0.5416    5.2601   -0.0001 C.ar    1  LIG1        0.1743
     12 C          -0.5673    6.0263   -0.2940 C.ar    1  LIG1       -0.0120
     13 C          -0.1855    7.4070   -0.0819 C.ar    1  LIG1       -0.0151
     14 C           1.1320    7.3928    0.3277 C.ar    1  LIG1        0.1361
     15 O           1.6025    6.0805    0.3860 O.2     1  LIG1       -0.4516
     16 H          -1.7368    5.6159   -0.6862 H       1  LIG1        0.0657
     17 H          -0.9553    8.4406   -0.2521 H       1  LIG1        0.0656
     18 C           1.7329    9.6580    0.4370 C.ar    1  LIG1       -0.0392
     19 C           2.7146   10.5944    0.8145 C.ar    1  LIG1       -0.0487
     20 C           2.0079    8.2935    0.6614 C.ar    1  LIG1        0.0205
     21 C           3.9175   10.1924    1.3908 C.ar    1  LIG1        0.0034
     22 H           2.5229   11.6524    0.6501 H       1  LIG1        0.0627
     23 C           3.2086    7.8916    1.2367 C.ar    1  LIG1       -0.0473
     24 C           4.1712    8.8371    1.6054 C.ar    1  LIG1       -0.0406
     25 H           3.3972    6.8335    1.3994 H       1  LIG1        0.0627
     26 C           0.6299   10.0940   -0.0961 C.3     1  LIG1       -0.0390
     27 H          -0.1861    9.4771    0.2178 H       1  LIG1        0.0278
     28 H           0.7119   10.0615   -1.1625 H       1  LIG1        0.0278
     29 H           0.4563   11.1021    0.2177 H       1  LIG1        0.0278
     30 C           5.2921    8.4554    2.1427 C.3     1  LIG1       -0.0391
     31 H           5.6838    9.2449    2.7494 H       1  LIG1        0.0278
     32 H           5.9942    8.2164    1.3714 H       1  LIG1        0.0278
     33 H           5.1206    7.5909    2.7494 H       1  LIG1        0.0278
     34 C           4.8017   11.0840    1.7275 C.ar    1  LIG1        0.0714
     35 C           4.8516   11.9145    2.8025 C.ar    1  LIG1        0.0925
     36 C           6.0454   12.6963    2.6838 C.ar    1  LIG1        0.1585
     37 C           6.6734   12.3080    1.5424 C.ar    1  LIG1        0.0463
     38 N           5.9151   11.3213    0.9536 N.ar    1  LIG1       -0.3561
     39 H           6.1368   10.8540    0.1047 H       1  LIG1        0.1655
     40 H           7.7843   12.7212    1.0083 H       1  LIG1        0.0845
     41 N           3.9743   11.9844    3.7593 N.pl3   1  LIG1       -0.3535
     42 H           3.4684   12.8438    3.6855 H       1  LIG1        0.1425
     43 H           3.3386   11.2160    3.6855 H       1  LIG1        0.1425
     44 O           6.4565   13.6096    3.5127 O.3     1  LIG1       -0.4918
     45 C           7.8366   13.3917    3.8170 C.3     1  LIG1        0.0789
     46 H           8.1746   14.1436    4.4991 H       1  LIG1        0.0660
     47 H           7.9555   12.4262    4.2629 H       1  LIG1        0.0660
     48 H           8.4126   13.4420    2.9167 H       1  LIG1        0.0660
@<TRIPOS>BOND
     1    28    26    1
     2    16    12    1
     3    12    13   ar
     4    12    11   ar
     5    17    13    1
     6    26    29    1
     7    26    27    1
     8    26    18    1
     9    13    14   ar
    10     5     4   ar
    11     5     1   ar
    12     4    11    1
    13     4     3   ar
    14    11    15   ar
    15    10     9    1
    16     1     6    1
    17     1     2   ar
    18     9     3    1
    19     3     2   ar
    20     2     8    1
    21     8     7    3
    22    39    38    1
    23    14    15   ar
    24    14    20    1
    25    18    20   ar
    26    18    19   ar
    27    22    19    1
    28    20    23   ar
    29    19    21   ar
    30    38    37   ar
    31    38    34   ar
    32    40    37    1
    33    23    25    1
    34    23    24   ar
    35    32    30    1
    36    21    24   ar
    37    21    34    1
    38    37    36   ar
    39    24    30    1
    40    34    35   ar
    41    30    33    1
    42    30    31    1
    43    36    35   ar
    44    36    44    1
    45    35    41    1
    46    48    45    1
    47    44    45    1
    48    43    41    1
    49    42    41    1
    50    45    47    1
    51    45    46    1
