@<TRIPOS>MOLECULE
mol_data/noopt/geoms/mol2/12df4ei4if-13al.out
 52 55 0 0 0
SMALL
GASTEIGER

@<TRIPOS>ATOM
      1 C           0.1763    1.8460    0.0000 C.ar    1  LIG1        0.1136
      2 C           1.5558    1.8460    0.0000 C.ar    1  LIG1        0.1314
      3 C           1.9706    3.2334    0.0000 C.ar    1  LIG1        0.1804
      4 C           0.8165    3.9895   -0.0001 C.ar    1  LIG1        0.1785
      5 O          -0.3030    3.1567   -0.0002 O.2     1  LIG1       -0.4578
      6 H          -0.7504    0.9343    0.0000 H       1  LIG1        0.1044
      7 N           3.0533   -0.0888    0.0002 N.1     1  LIG1       -0.1906
      8 C           2.3515    0.8179    0.0001 C.1     1  LIG1        0.1060
      9 O           3.1998    3.6567    0.0000 O.3     1  LIG1       -0.5024
     10 H           3.2081    4.6167    0.0000 H       1  LIG1        0.2923
     11 C           1.5879    6.2051    0.0007 C.ar    1  LIG1        0.0360
     12 C           1.2379    7.5692    0.0022 C.ar    1  LIG1       -0.0377
     13 C           0.5416    5.2600   -0.0001 C.ar    1  LIG1        0.0366
     14 C          -0.0943    7.9766    0.0023 C.ar    1  LIG1       -0.0134
     15 H           2.0295    8.3152    0.0030 H       1  LIG1        0.0636
     16 C          -0.7885    5.6662    0.0000 C.ar    1  LIG1       -0.0463
     17 C          -1.1159    7.0261    0.0011 C.ar    1  LIG1       -0.0420
     18 H          -1.5772    4.9182   -0.0005 H       1  LIG1        0.0628
     19 C           2.8482    5.8866    0.0003 C.1     1  LIG1       -0.0689
     20 C           4.0128    5.5923    0.0000 C.1     1  LIG1       -0.1139
     21 H           5.0502    5.3302   -0.0002 H       1  LIG1        0.1232
     22 C          -2.3613    7.4000    0.0014 C.3     1  LIG1       -0.0391
     23 H          -2.9540    6.6657    0.5059 H       1  LIG1        0.0278
     24 H          -2.7032    7.5025   -1.0074 H       1  LIG1        0.0278
     25 H          -2.4516    8.3393    0.5058 H       1  LIG1        0.0278
     26 C           0.6554   10.1996    0.0264 C.ar    1  LIG1       -0.0419
     27 C           0.2921   11.5602    0.0284 C.ar    1  LIG1       -0.0456
     28 C          -0.3815    9.2445    0.0036 C.ar    1  LIG1       -0.0112
     29 C          -1.0437   11.9548    0.0080 C.ar    1  LIG1        0.0401
     30 H           1.0764   12.3138    0.0460 H       1  LIG1        0.0628
     31 C          -1.7153    9.6378   -0.0168 C.ar    1  LIG1       -0.0116
     32 C          -2.0559   10.9944   -0.0148 C.ar    1  LIG1        0.1265
     33 H          -2.4966    8.8822   -0.0341 H       1  LIG1        0.0660
     34 C           1.9189    9.8932    0.0458 C.3     1  LIG1       -0.0391
     35 H           2.4641   10.6599    0.5555 H       1  LIG1        0.0278
     36 H           2.2802    9.8056   -0.9576 H       1  LIG1        0.0278
     37 H           2.0523    8.9618    0.5555 H       1  LIG1        0.0278
     38 O          -3.3045   11.3562   -0.0338 O.3     1  LIG1       -0.5061
     39 H          -3.8640   10.5761   -0.0385 H       1  LIG1        0.2922
     40 C          -1.3433   13.2198    0.0104 C.ar    1  LIG1        0.0536
     41 C          -0.5399   14.3163    0.0282 C.ar    1  LIG1        0.0055
     42 C          -1.3895   15.4690    0.0229 C.ar    1  LIG1        0.1379
     43 C          -2.6746   15.0262    0.0003 C.ar    1  LIG1        0.0444
     44 N          -2.6509   13.6498   -0.0070 N.ar    1  LIG1       -0.3575
     45 H          -3.4509   13.0601   -0.0229 H       1  LIG1        0.1654
     46 H          -3.7943   15.6867   -0.0125 H       1  LIG1        0.0844
     47 H           0.7599   14.3147    0.0481 H       1  LIG1        0.0675
     48 O          -1.0064   16.7112    0.0367 O.3     1  LIG1       -0.4936
     49 C           0.4224   16.7700    0.0417 C.3     1  LIG1        0.0789
     50 H           0.7373   17.7925    0.0528 H       1  LIG1        0.0660
     51 H           0.7968   16.2720    0.9116 H       1  LIG1        0.0660
     52 H           0.8022   16.2894   -0.8356 H       1  LIG1        0.0660
@<TRIPOS>BOND
     1    24    22    1
     2    36    34    1
     3    52    49    1
     4    39    38    1
     5    33    31    1
     6    38    32    1
     7    45    44    1
     8    31    32   ar
     9    31    28   ar
    10    32    29   ar
    11    46    43    1
    12    44    43   ar
    13    44    40   ar
    14    18    16    1
    15    21    20    1
    16     5     4   ar
    17     5     1   ar
    18    13     4    1
    19    13    16   ar
    20    13    11   ar
    21     4     3   ar
    22     1     2   ar
    23     1     6    1
    24     2     3   ar
    25     2     8    1
    26     3     9    1
    27     9    10    1
    28    16    17   ar
    29    20    19    3
    30     8     7    3
    31    43    42   ar
    32    19    11    1
    33    11    12   ar
    34    17    22    1
    35    17    14   ar
    36    22    25    1
    37    22    23    1
    38    12    14   ar
    39    12    15    1
    40    14    28    1
    41    28    26   ar
    42    29    40    1
    43    29    27   ar
    44    40    41   ar
    45    42    41   ar
    46    42    48    1
    47    26    27   ar
    48    26    34    1
    49    41    47    1
    50    27    30    1
    51    48    49    1
    52    49    50    1
    53    49    51    1
    54    34    37    1
    55    34    35    1
