@<TRIPOS>MOLECULE
mol_data/noopt/geoms/mol2/12df12ae(150)13li(290)6ii(260).out
 50 53 0 0 0
SMALL
GASTEIGER

@<TRIPOS>ATOM
      1 C           0.1763    1.8460    0.0000 C.ar    1  LIG1        0.1138
      2 C           1.5558    1.8460    0.0000 C.ar    1  LIG1        0.1315
      3 C           1.9706    3.2334    0.0000 C.ar    1  LIG1        0.1835
      4 C           0.8165    3.9895   -0.0001 C.ar    1  LIG1        0.2121
      5 O          -0.3030    3.1567   -0.0002 O.2     1  LIG1       -0.4547
      6 H          -0.7504    0.9343    0.0000 H       1  LIG1        0.1044
      7 N           3.0533   -0.0888    0.0002 N.1     1  LIG1       -0.1906
      8 C           2.3515    0.8179    0.0001 C.1     1  LIG1        0.1060
      9 O           3.1998    3.6567    0.0000 O.3     1  LIG1       -0.5023
     10 H           3.2081    4.6167    0.0000 H       1  LIG1        0.2923
     11 C           0.5416    5.2601   -0.0001 C.ar    1  LIG1        0.1755
     12 C          -0.5101    6.0387    0.4365 C.ar    1  LIG1        0.0035
     13 C          -0.1696    7.4104    0.1215 C.ar    1  LIG1        0.0726
     14 C           1.0684    7.3790   -0.4870 C.ar    1  LIG1        0.1708
     15 O           1.5276    6.0643   -0.5733 O.2     1  LIG1       -0.4487
     16 H          -1.6035    5.6448    1.0191 H       1  LIG1        0.0669
     17 C          -0.9063    8.4512    0.3743 C.1     1  LIG1       -0.0658
     18 C          -1.5870    9.4129    0.6080 C.1     1  LIG1       -0.1138
     19 H          -2.1934   10.2696    0.8161 H       1  LIG1        0.1232
     20 C           1.8795    8.2657   -0.9828 C.ar    1  LIG1        0.1262
     21 C           2.4626    8.3400   -2.2086 C.ar    1  LIG1        0.1518
     22 C           3.2677    9.5241   -2.2281 C.ar    1  LIG1        0.0173
     23 C           3.1398   10.1223   -1.0141 C.ar    1  LIG1        0.0552
     24 N           2.2912    9.3549   -0.2484 N.ar    1  LIG1       -0.3485
     25 H           2.0184    9.5558    0.6861 H       1  LIG1        0.1661
     26 O           2.3153    7.4898   -3.1809 O.3     1  LIG1       -0.4926
     27 C           0.9330    7.4078   -3.5380 C.3     1  LIG1        0.0789
     28 H           0.8122    6.7080   -4.3384 H       1  LIG1        0.0660
     29 H           0.3646    7.0830   -2.6915 H       1  LIG1        0.0660
     30 H           0.5877    8.3709   -3.8511 H       1  LIG1        0.0660
     31 C           3.9889    9.9518   -3.2220 C.3     1  LIG1       -0.0342
     32 H           4.0728   11.0172   -3.1693 H       1  LIG1        0.0279
     33 H           3.5235    9.6759   -4.1452 H       1  LIG1        0.0279
     34 H           4.9639    9.5142   -3.1693 H       1  LIG1        0.0279
     35 C           3.9668   11.3368    0.8187 C.ar    1  LIG1        0.0473
     36 C           3.6722   11.2143   -0.5515 C.ar    1  LIG1        0.0199
     37 C           3.9646   12.2877   -1.3949 C.ar    1  LIG1       -0.0466
     38 C           4.5361   13.4371   -0.8462 C.ar    1  LIG1       -0.0317
     39 C           4.7935   13.4645    0.5367 C.ar    1  LIG1        0.0308
     40 N           4.5180   12.4380    1.3648 N.ar    1  LIG1       -0.2593
     41 H           3.7476   12.2291   -2.4709 H       1  LIG1        0.0628
     42 H           5.3247   14.5119    1.0941 H       1  LIG1        0.0832
     43 C           3.7130   10.3644    1.6438 C.3     1  LIG1       -0.0217
     44 H           4.5695   10.1866    2.2600 H       1  LIG1        0.0293
     45 H           3.4817    9.4782    1.0904 H       1  LIG1        0.0293
     46 H           2.8788   10.6280    2.2599 H       1  LIG1        0.0293
     47 C           4.8268   14.4637   -1.5894 C.3     1  LIG1       -0.0383
     48 H           4.1445   15.2608   -1.3794 H       1  LIG1        0.0278
     49 H           4.7494   14.1906   -2.6211 H       1  LIG1        0.0278
     50 H           5.8257   14.7846   -1.3794 H       1  LIG1        0.0278
@<TRIPOS>BOND
     1    28    27    1
     2    33    31    1
     3    30    27    1
     4    27    26    1
     5    27    29    1
     6    31    34    1
     7    31    32    1
     8    31    22    1
     9    26    21    1
    10    49    47    1
    11    41    37    1
    12    22    21   ar
    13    22    23   ar
    14    21    20   ar
    15    47    50    1
    16    47    48    1
    17    47    38    1
    18    37    38   ar
    19    37    36   ar
    20    23    36    1
    21    23    24   ar
    22    20    14    1
    23    20    24   ar
    24    38    39   ar
    25    15    14   ar
    26    15    11   ar
    27    36    35   ar
    28    14    13   ar
    29    24    25    1
    30     5     4   ar
    31     5     1   ar
    32     4    11    1
    33     4     3   ar
    34    11    12   ar
    35     6     1    1
    36     1     2   ar
    37     2     3   ar
    38     2     8    1
    39     3     9    1
    40    10     9    1
    41     8     7    3
    42    13    17    1
    43    13    12   ar
    44    17    18    3
    45    12    16    1
    46    39    42    1
    47    39    40   ar
    48    18    19    1
    49    35    40   ar
    50    35    43    1
    51    45    43    1
    52    43    46    1
    53    43    44    1
