@<TRIPOS>MOLECULE
mol_data/noopt/geoms/mol2/12dg12dg12dg.out
 29 31 0 0 0
SMALL
GASTEIGER

@<TRIPOS>ATOM
      1 C           0.1763    1.8460    0.0000 C.ar    1  LIG1        0.1112
      2 C           1.5558    1.8460    0.0000 C.ar    1  LIG1        0.1033
      3 C           1.9706    3.2334    0.0000 C.ar    1  LIG1        0.0712
      4 C           0.8165    3.9895   -0.0001 C.ar    1  LIG1        0.1854
      5 O          -0.3030    3.1567   -0.0002 O.2     1  LIG1       -0.4573
      6 H          -0.7504    0.9343    0.0000 H       1  LIG1        0.1043
      7 N           3.0533   -0.0888    0.0002 N.1     1  LIG1       -0.1907
      8 C           2.3515    0.8179    0.0001 C.1     1  LIG1        0.1034
      9 S           3.1997    3.6567    0.0000 S.3     1  LIG1       -0.1376
     10 H           3.2111    4.9666    0.0000 H       1  LIG1        0.1073
     11 C           0.5416    5.2601   -0.0001 C.ar    1  LIG1        0.1902
     12 C           1.2791    6.4258    0.0147 C.ar    1  LIG1        0.1144
     13 C           0.3286    7.5182    0.0040 C.ar    1  LIG1        0.0719
     14 C          -0.9273    6.9473   -0.0167 C.ar    1  LIG1        0.1864
     15 O          -0.8221    5.5559   -0.0197 O.2     1  LIG1       -0.4461
     16 N           3.7145    6.6566    0.0520 N.1     1  LIG1       -0.1907
     17 C           2.5732    6.5484    0.0345 C.1     1  LIG1        0.1042
     18 S           0.6281    8.7831    0.0126 S.3     1  LIG1       -0.1376
     19 H          -0.4728    9.4931    0.0155 H       1  LIG1        0.1073
     20 C          -2.1478    7.3944   -0.0335 C.ar    1  LIG1        0.1892
     21 C          -2.7383    8.6411   -0.0462 C.ar    1  LIG1        0.1136
     22 C          -4.1697    8.4219   -0.0626 C.ar    1  LIG1        0.0607
     23 C          -4.3589    7.0552   -0.0589 C.ar    1  LIG1        0.1071
     24 O          -3.1271    6.4001   -0.0412 O.2     1  LIG1       -0.4573
     25 H          -5.3894    6.2628   -0.0679 H       1  LIG1        0.1041
     26 N          -1.6309   10.8227   -0.0423 N.1     1  LIG1       -0.1907
     27 C          -2.1499    9.8003   -0.0441 C.1     1  LIG1        0.1042
     28 S          -5.0783    9.3515   -0.0777 S.3     1  LIG1       -0.1383
     29 H          -6.2670    8.8009   -0.0828 H       1  LIG1        0.1072
@<TRIPOS>BOND
     1    29    28    1
     2    28    22    1
     3    25    23    1
     4    22    23   ar
     5    22    21   ar
     6    23    24   ar
     7    21    27    1
     8    21    20   ar
     9    27    26    3
    10    24    20   ar
    11    20    14    1
    12    15    14   ar
    13    15    11   ar
    14    14    13   ar
    15     5     4   ar
    16     5     1   ar
    17     4    11    1
    18     4     3   ar
    19    11    12   ar
    20    10     9    1
    21     2     3   ar
    22     2     1   ar
    23     2     8    1
    24     3     9    1
    25     6     1    1
    26     8     7    3
    27    13    18    1
    28    13    12   ar
    29    18    19    1
    30    12    17    1
    31    17    16    3
