@<TRIPOS>MOLECULE
mol_data/noopt/geoms/mol2/12dg.out
 11 11 0 0 0
SMALL
GASTEIGER

@<TRIPOS>ATOM
      1 C           0.1763    1.8460    0.0000 C.ar    1  LIG1        0.1101
      2 C           1.5558    1.8460    0.0000 C.ar    1  LIG1        0.1025
      3 C           1.9706    3.2334    0.0000 C.ar    1  LIG1        0.0600
      4 C           0.8165    3.9895   -0.0001 C.ar    1  LIG1        0.1061
      5 O          -0.3030    3.1567   -0.0002 O.2     1  LIG1       -0.4686
      6 H          -0.7504    0.9343    0.0000 H       1  LIG1        0.1043
      7 H           0.5416    5.2601   -0.0001 H       1  LIG1        0.1041
      8 N           3.0533   -0.0888    0.0002 N.1     1  LIG1       -0.1907
      9 C           2.3515    0.8179    0.0001 C.1     1  LIG1        0.1034
     10 S           3.1997    3.6567    0.0000 S.3     1  LIG1       -0.1384
     11 H           3.2111    4.9666    0.0000 H       1  LIG1        0.1072
@<TRIPOS>BOND
     1     5     4   ar
     2     5     1   ar
     3     4     7    1
     4     4     3   ar
     5     1     2   ar
     6     1     6    1
     7     2     3   ar
     8     2     9    1
     9     3    10    1
    10    10    11    1
    11     9     8    3
