@<TRIPOS>MOLECULE
mol_data/noopt/geoms/mol2/12dg12dg.out
 20 21 0 0 0
SMALL
GASTEIGER

@<TRIPOS>ATOM
      1 C           0.1763    1.8460    0.0000 C.ar    1  LIG1        0.1112
      2 C           1.5558    1.8460    0.0000 C.ar    1  LIG1        0.1033
      3 C           1.9706    3.2334    0.0000 C.ar    1  LIG1        0.0712
      4 C           0.8165    3.9895   -0.0001 C.ar    1  LIG1        0.1853
      5 O          -0.3030    3.1567   -0.0002 O.2     1  LIG1       -0.4573
      6 H          -0.7504    0.9343    0.0000 H       1  LIG1        0.1043
      7 N           3.0533   -0.0888    0.0002 N.1     1  LIG1       -0.1907
      8 C           2.3515    0.8179    0.0001 C.1     1  LIG1        0.1034
      9 S           3.1997    3.6567    0.0000 S.3     1  LIG1       -0.1376
     10 H           3.2111    4.9666    0.0000 H       1  LIG1        0.1073
     11 C           0.5416    5.2601   -0.0001 C.ar    1  LIG1        0.1892
     12 C           1.2791    6.4258    0.0147 C.ar    1  LIG1        0.1136
     13 C           0.3286    7.5182    0.0040 C.ar    1  LIG1        0.0607
     14 C          -0.9273    6.9473   -0.0167 C.ar    1  LIG1        0.1071
     15 O          -0.8221    5.5559   -0.0197 O.2     1  LIG1       -0.4573
     16 H          -2.1478    7.3944   -0.0335 H       1  LIG1        0.1041
     17 N           3.7145    6.6566    0.0520 N.1     1  LIG1       -0.1907
     18 C           2.5732    6.5484    0.0345 C.1     1  LIG1        0.1042
     19 S           0.6281    8.7831    0.0126 S.3     1  LIG1       -0.1383
     20 H          -0.4728    9.4931    0.0155 H       1  LIG1        0.1072
@<TRIPOS>BOND
     1    16    14    1
     2    15    14   ar
     3    15    11   ar
     4    14    13   ar
     5     5     4   ar
     6     5     1   ar
     7     4    11    1
     8     4     3   ar
     9    11    12   ar
    10     1     6    1
    11     1     2   ar
    12    10     9    1
    13     9     3    1
    14     3     2   ar
    15     2     8    1
    16     8     7    3
    17    13    19    1
    18    13    12   ar
    19    19    20    1
    20    12    18    1
    21    18    17    3
