@<TRIPOS>MOLECULE
mol_data/noopt/geoms/mol2/12dg12dg-12dg-12dg.out
 38 41 0 0 0
SMALL
GASTEIGER

@<TRIPOS>ATOM
      1 C           0.1763    1.8460    0.0000 C.ar    1  LIG1        0.1112
      2 C           1.5558    1.8460    0.0000 C.ar    1  LIG1        0.1033
      3 C           1.9706    3.2334    0.0000 C.ar    1  LIG1        0.0712
      4 C           0.8165    3.9895   -0.0001 C.ar    1  LIG1        0.1854
      5 O          -0.3030    3.1567   -0.0002 O.2     1  LIG1       -0.4573
      6 H          -0.7504    0.9343    0.0000 H       1  LIG1        0.1043
      7 N           3.0533   -0.0888    0.0002 N.1     1  LIG1       -0.1907
      8 C           2.3515    0.8179    0.0001 C.1     1  LIG1        0.1034
      9 S           3.1997    3.6567    0.0000 S.3     1  LIG1       -0.1376
     10 H           3.2111    4.9666    0.0000 H       1  LIG1        0.1073
     11 C           0.5416    5.2601   -0.0001 C.ar    1  LIG1        0.1902
     12 C           1.2792    6.4258   -0.0001 C.ar    1  LIG1        0.1144
     13 C           0.3286    7.5182   -0.0001 C.ar    1  LIG1        0.0719
     14 C          -0.9274    6.9472   -0.0002 C.ar    1  LIG1        0.1864
     15 O          -0.8223    5.5559   -0.0003 O.2     1  LIG1       -0.4461
     16 N           3.7149    6.6566    0.0001 N.1     1  LIG1       -0.1907
     17 C           2.5734    6.5485   -0.0000 C.1     1  LIG1        0.1042
     18 S           0.6282    8.7832   -0.0001 S.3     1  LIG1       -0.1376
     19 H          -0.4727    9.4932   -0.0001 H       1  LIG1        0.1073
     20 C          -2.1481    7.3943   -0.0002 C.ar    1  LIG1        0.1902
     21 C          -2.7388    8.6409    0.0146 C.ar    1  LIG1        0.1144
     22 C          -4.1701    8.4218    0.0039 C.ar    1  LIG1        0.0719
     23 C          -4.3592    7.0552   -0.0168 C.ar    1  LIG1        0.1864
     24 O          -3.1273    6.4001   -0.0198 O.2     1  LIG1       -0.4461
     25 N          -1.6315   10.8223    0.0519 N.1     1  LIG1       -0.1907
     26 C          -2.1504    9.8000    0.0344 C.1     1  LIG1        0.1042
     27 S          -5.0789    9.3513    0.0125 S.3     1  LIG1       -0.1376
     28 H          -6.2676    8.8006    0.0154 H       1  LIG1        0.1073
     29 C          -5.3897    6.2629   -0.0336 C.ar    1  LIG1        0.1892
     30 C          -6.7590    6.4303   -0.0315 C.ar    1  LIG1        0.1136
     31 C          -7.3391    5.1038   -0.0586 C.ar    1  LIG1        0.0607
     32 C          -6.2853    4.2134   -0.0755 C.ar    1  LIG1        0.1071
     33 O          -5.0730    4.9040   -0.0607 O.2     1  LIG1       -0.4573
     34 H          -6.1666    2.9191   -0.1013 H       1  LIG1        0.1041
     35 N          -8.0106    8.5322    0.0096 N.1     1  LIG1       -0.1907
     36 C          -7.4241    7.5471   -0.0097 C.1     1  LIG1        0.1042
     37 S          -8.6105    4.8329   -0.0652 S.3     1  LIG1       -0.1383
     38 H          -8.7808    3.5340   -0.0674 H       1  LIG1        0.1072
@<TRIPOS>BOND
     1    34    32    1
     2    32    33   ar
     3    32    31   ar
     4    38    37    1
     5    37    31    1
     6    33    29   ar
     7    31    30   ar
     8    29    30   ar
     9    29    23    1
    10    30    36    1
    11    24    23   ar
    12    24    20   ar
    13    23    22   ar
    14    36    35    3
    15    15    14   ar
    16    15    11   ar
    17    20    14    1
    18    20    21   ar
    19    14    13   ar
    20     5     4   ar
    21     5     1   ar
    22    13    18    1
    23    13    12   ar
    24    18    19    1
    25     4    11    1
    26     4     3   ar
    27    12    11   ar
    28    12    17    1
    29     2     3   ar
    30     2     1   ar
    31     2     8    1
    32     3     9    1
    33     6     1    1
    34     9    10    1
    35    17    16    3
    36     8     7    3
    37    22    27    1
    38    22    21   ar
    39    27    28    1
    40    21    26    1
    41    26    25    3
