@<TRIPOS>MOLECULE
mol_data/noopt/geoms/mol2/12dg12dg-12dg12dg.out
 38 41 0 0 0
SMALL
GASTEIGER

@<TRIPOS>ATOM
      1 C           0.1763    1.8460    0.0000 C.ar    1  LIG1        0.1112
      2 C           1.5558    1.8460    0.0000 C.ar    1  LIG1        0.1033
      3 C           1.9706    3.2334    0.0000 C.ar    1  LIG1        0.0712
      4 C           0.8165    3.9895   -0.0001 C.ar    1  LIG1        0.1854
      5 O          -0.3030    3.1567   -0.0002 O.2     1  LIG1       -0.4573
      6 H          -0.7504    0.9343    0.0000 H       1  LIG1        0.1043
      7 N           3.0533   -0.0888    0.0002 N.1     1  LIG1       -0.1907
      8 C           2.3515    0.8179    0.0001 C.1     1  LIG1        0.1034
      9 S           3.1997    3.6567    0.0000 S.3     1  LIG1       -0.1376
     10 H           3.2111    4.9666    0.0000 H       1  LIG1        0.1073
     11 C           0.5416    5.2601   -0.0001 C.ar    1  LIG1        0.1902
     12 C           1.2792    6.4258   -0.0001 C.ar    1  LIG1        0.1144
     13 C           0.3286    7.5182   -0.0001 C.ar    1  LIG1        0.0719
     14 C          -0.9274    6.9472   -0.0002 C.ar    1  LIG1        0.1864
     15 O          -0.8223    5.5559   -0.0003 O.2     1  LIG1       -0.4461
     16 N           3.7149    6.6566    0.0001 N.1     1  LIG1       -0.1907
     17 C           2.5734    6.5485   -0.0000 C.1     1  LIG1        0.1042
     18 S           0.6282    8.7832   -0.0001 S.3     1  LIG1       -0.1376
     19 H          -0.4727    9.4932   -0.0001 H       1  LIG1        0.1073
     20 C          -2.1481    7.3943   -0.0002 C.ar    1  LIG1        0.1902
     21 C          -2.7387    8.6410   -0.0002 C.ar    1  LIG1        0.1144
     22 C          -4.1701    8.4218   -0.0002 C.ar    1  LIG1        0.0719
     23 C          -4.3593    7.0551   -0.0003 C.ar    1  LIG1        0.1864
     24 O          -3.1273    6.4000   -0.0004 O.2     1  LIG1       -0.4461
     25 N          -1.6314   10.8227   -0.0000 N.1     1  LIG1       -0.1907
     26 C          -2.1504    9.8002   -0.0001 C.1     1  LIG1        0.1042
     27 S          -5.0789    9.3513   -0.0002 S.3     1  LIG1       -0.1376
     28 H          -6.2676    8.8007   -0.0002 H       1  LIG1        0.1073
     29 C          -5.3898    6.2627   -0.0003 C.ar    1  LIG1        0.1892
     30 C          -6.7590    6.4301    0.0145 C.ar    1  LIG1        0.1136
     31 C          -7.3393    5.1034    0.0038 C.ar    1  LIG1        0.0607
     32 C          -6.2856    4.2129   -0.0169 C.ar    1  LIG1        0.1071
     33 O          -5.0733    4.9036   -0.0199 O.2     1  LIG1       -0.4573
     34 H          -6.1671    2.9184   -0.0337 H       1  LIG1        0.1041
     35 N          -8.0103    8.5321    0.0518 N.1     1  LIG1       -0.1907
     36 C          -7.4239    7.5470    0.0343 C.1     1  LIG1        0.1042
     37 S          -8.6106    4.8324    0.0124 S.3     1  LIG1       -0.1383
     38 H          -8.7809    3.5335    0.0153 H       1  LIG1        0.1072
@<TRIPOS>BOND
     1    34    32    1
     2    33    32   ar
     3    33    29   ar
     4    32    31   ar
     5    24    23   ar
     6    24    20   ar
     7    23    29    1
     8    23    22   ar
     9    29    30   ar
    10    15    14   ar
    11    15    11   ar
    12    27    22    1
    13    27    28    1
    14    14    20    1
    15    14    13   ar
    16    20    21   ar
    17    21    22   ar
    18    21    26    1
    19     5     4   ar
    20     5     1   ar
    21    19    18    1
    22    12    13   ar
    23    12    11   ar
    24    12    17    1
    25    18    13    1
    26    11     4    1
    27    26    25    3
    28     4     3   ar
    29     1     6    1
    30     1     2   ar
    31    17    16    3
    32    10     9    1
    33     9     3    1
    34     3     2   ar
    35     2     8    1
    36     8     7    3
    37    31    37    1
    38    31    30   ar
    39    37    38    1
    40    30    36    1
    41    36    35    3
