@<TRIPOS>MOLECULE
mol_data/noopt/geoms/mol2/12dg12dg-12dg.out
 29 31 0 0 0
SMALL
GASTEIGER

@<TRIPOS>ATOM
      1 C           0.1763    1.8460    0.0000 C.ar    1  LIG1        0.1112
      2 C           1.5558    1.8460    0.0000 C.ar    1  LIG1        0.1033
      3 C           1.9706    3.2334    0.0000 C.ar    1  LIG1        0.0712
      4 C           0.8165    3.9895   -0.0001 C.ar    1  LIG1        0.1854
      5 O          -0.3030    3.1567   -0.0002 O.2     1  LIG1       -0.4573
      6 H          -0.7504    0.9343    0.0000 H       1  LIG1        0.1043
      7 N           3.0533   -0.0888    0.0002 N.1     1  LIG1       -0.1907
      8 C           2.3515    0.8179    0.0001 C.1     1  LIG1        0.1034
      9 S           3.1997    3.6567    0.0000 S.3     1  LIG1       -0.1376
     10 H           3.2111    4.9666    0.0000 H       1  LIG1        0.1073
     11 C           0.5416    5.2601   -0.0001 C.ar    1  LIG1        0.1902
     12 C           1.2792    6.4258   -0.0001 C.ar    1  LIG1        0.1144
     13 C           0.3286    7.5182   -0.0001 C.ar    1  LIG1        0.0719
     14 C          -0.9274    6.9472   -0.0002 C.ar    1  LIG1        0.1864
     15 O          -0.8223    5.5559   -0.0003 O.2     1  LIG1       -0.4461
     16 N           3.7149    6.6566    0.0001 N.1     1  LIG1       -0.1907
     17 C           2.5734    6.5485   -0.0000 C.1     1  LIG1        0.1042
     18 S           0.6282    8.7832   -0.0001 S.3     1  LIG1       -0.1376
     19 H          -0.4727    9.4932   -0.0001 H       1  LIG1        0.1073
     20 C          -2.1481    7.3943   -0.0002 C.ar    1  LIG1        0.1892
     21 C          -2.7387    8.6410   -0.0002 C.ar    1  LIG1        0.1136
     22 C          -4.1701    8.4218   -0.0002 C.ar    1  LIG1        0.0607
     23 C          -4.3593    7.0551   -0.0003 C.ar    1  LIG1        0.1071
     24 O          -3.1273    6.4000   -0.0004 O.2     1  LIG1       -0.4573
     25 H          -5.3898    6.2627   -0.0003 H       1  LIG1        0.1041
     26 N          -1.6314   10.8227   -0.0000 N.1     1  LIG1       -0.1907
     27 C          -2.1504    9.8002   -0.0001 C.1     1  LIG1        0.1042
     28 S          -5.0789    9.3513   -0.0002 S.3     1  LIG1       -0.1383
     29 H          -6.2676    8.8007   -0.0002 H       1  LIG1        0.1072
@<TRIPOS>BOND
     1    24    23   ar
     2    24    20   ar
     3    25    23    1
     4    23    22   ar
     5    15    14   ar
     6    15    11   ar
     7    29    28    1
     8    28    22    1
     9    22    21   ar
    10    21    20   ar
    11    21    27    1
    12    20    14    1
    13    14    13   ar
    14     5     4   ar
    15     5     1   ar
    16    12    13   ar
    17    12    11   ar
    18    12    17    1
    19    13    18    1
    20    11     4    1
    21    27    26    3
    22    18    19    1
    23     4     3   ar
    24     1     2   ar
    25     1     6    1
    26     2     3   ar
    27     2     8    1
    28     3     9    1
    29    17    16    3
    30     9    10    1
    31     8     7    3
