@<TRIPOS>MOLECULE
mol_data/noopt/geoms/mol2/12dg12dg12dg12dg-.out
 38 41 0 0 0
SMALL
GASTEIGER

@<TRIPOS>ATOM
      1 C           0.1763    1.8460    0.0000 C.ar    1  LIG1        0.1112
      2 C           1.5558    1.8460    0.0000 C.ar    1  LIG1        0.1033
      3 C           1.9706    3.2334    0.0000 C.ar    1  LIG1        0.0712
      4 C           0.8165    3.9895   -0.0001 C.ar    1  LIG1        0.1854
      5 O          -0.3030    3.1567   -0.0002 O.2     1  LIG1       -0.4573
      6 H          -0.7504    0.9343    0.0000 H       1  LIG1        0.1043
      7 N           3.0533   -0.0888    0.0002 N.1     1  LIG1       -0.1907
      8 C           2.3515    0.8179    0.0001 C.1     1  LIG1        0.1034
      9 S           3.1997    3.6567    0.0000 S.3     1  LIG1       -0.1376
     10 H           3.2111    4.9666    0.0000 H       1  LIG1        0.1073
     11 C           0.5416    5.2601   -0.0001 C.ar    1  LIG1        0.1902
     12 C           1.2791    6.4258    0.0147 C.ar    1  LIG1        0.1144
     13 C           0.3286    7.5182    0.0040 C.ar    1  LIG1        0.0719
     14 C          -0.9273    6.9473   -0.0167 C.ar    1  LIG1        0.1864
     15 O          -0.8221    5.5559   -0.0197 O.2     1  LIG1       -0.4461
     16 N           3.7145    6.6566    0.0520 N.1     1  LIG1       -0.1907
     17 C           2.5732    6.5484    0.0345 C.1     1  LIG1        0.1042
     18 S           0.6281    8.7831    0.0126 S.3     1  LIG1       -0.1376
     19 H          -0.4728    9.4931    0.0155 H       1  LIG1        0.1073
     20 C          -2.1478    7.3944   -0.0335 C.ar    1  LIG1        0.1902
     21 C          -2.7383    8.6411   -0.0462 C.ar    1  LIG1        0.1144
     22 C          -4.1697    8.4219   -0.0626 C.ar    1  LIG1        0.0719
     23 C          -4.3589    7.0552   -0.0589 C.ar    1  LIG1        0.1864
     24 O          -3.1271    6.4001   -0.0412 O.2     1  LIG1       -0.4461
     25 N          -1.6309   10.8227   -0.0423 N.1     1  LIG1       -0.1907
     26 C          -2.1499    9.8003   -0.0441 C.1     1  LIG1        0.1042
     27 S          -5.0783    9.3515   -0.0777 S.3     1  LIG1       -0.1376
     28 H          -6.2670    8.8009   -0.0828 H       1  LIG1        0.1073
     29 C          -5.3894    6.2628   -0.0679 C.ar    1  LIG1        0.1892
     30 C          -6.7587    6.4303   -0.0747 C.ar    1  LIG1        0.1136
     31 C          -7.3389    5.1036   -0.0834 C.ar    1  LIG1        0.0607
     32 C          -6.2851    4.2130   -0.0815 C.ar    1  LIG1        0.1071
     33 O          -5.0728    4.9036   -0.0721 O.2     1  LIG1       -0.4573
     34 H          -6.1665    2.9184   -0.0863 H       1  LIG1        0.1041
     35 N          -8.0101    8.5327   -0.0725 N.1     1  LIG1       -0.1907
     36 C          -7.4236    7.5474   -0.0735 C.1     1  LIG1        0.1042
     37 S          -8.6103    4.8327   -0.0916 S.3     1  LIG1       -0.1383
     38 H          -8.7806    3.5338   -0.0943 H       1  LIG1        0.1072
@<TRIPOS>BOND
     1    38    37    1
     2    37    31    1
     3    34    32    1
     4    31    32   ar
     5    31    30   ar
     6    28    27    1
     7    32    33   ar
     8    27    22    1
     9    30    36    1
    10    30    29   ar
    11    36    35    3
    12    33    29   ar
    13    29    23    1
    14    22    23   ar
    15    22    21   ar
    16    23    24   ar
    17    21    26    1
    18    21    20   ar
    19    26    25    3
    20    24    20   ar
    21    20    14    1
    22    15    14   ar
    23    15    11   ar
    24    14    13   ar
    25     5     4   ar
    26     5     1   ar
    27     4    11    1
    28     4     3   ar
    29    11    12   ar
    30     2     1   ar
    31     2     3   ar
    32     2     8    1
    33     1     6    1
    34     3     9    1
    35     9    10    1
    36     8     7    3
    37    13    18    1
    38    13    12   ar
    39    18    19    1
    40    12    17    1
    41    17    16    3
