@<TRIPOS>MOLECULE
mol_data/noopt/geoms/mol2/12dh12dh12dh12dh-.out
 42 45 0 0 0
SMALL
GASTEIGER

@<TRIPOS>ATOM
      1 C           0.1763    1.8460    0.0000 C.ar    1  LIG1        0.1119
      2 C           1.5558    1.8460    0.0000 C.ar    1  LIG1        0.1107
      3 C           1.9706    3.2334    0.0000 C.ar    1  LIG1        0.0917
      4 C           0.8165    3.9895   -0.0001 C.ar    1  LIG1        0.1928
      5 O          -0.3030    3.1567   -0.0002 O.2     1  LIG1       -0.4566
      6 H          -0.7504    0.9343    0.0000 H       1  LIG1        0.1043
      7 N           3.0533   -0.0888    0.0002 N.1     1  LIG1       -0.1907
      8 C           2.3515    0.8179    0.0001 C.1     1  LIG1        0.1042
      9 N           3.1998    3.6567   -0.0000 N.pl3   1  LIG1       -0.3540
     10 H           3.7808    2.9932   -0.4714 H       1  LIG1        0.1425
     11 H           3.2491    4.5372   -0.4714 H       1  LIG1        0.1425
     12 C           0.5416    5.2601   -0.0001 C.ar    1  LIG1        0.1917
     13 C           1.2792    6.4258   -0.0001 C.ar    1  LIG1        0.1219
     14 C           0.3286    7.5182   -0.0001 C.ar    1  LIG1        0.0925
     15 C          -0.9274    6.9472   -0.0002 C.ar    1  LIG1        0.1939
     16 O          -0.8223    5.5559   -0.0003 O.2     1  LIG1       -0.4453
     17 N           3.7149    6.6566    0.0001 N.1     1  LIG1       -0.1907
     18 C           2.5734    6.5485   -0.0000 C.1     1  LIG1        0.1050
     19 N           0.6282    8.7832   -0.0001 N.pl3   1  LIG1       -0.3539
     20 H           1.4995    8.9194   -0.4715 H       1  LIG1        0.1425
     21 H          -0.0895    9.2957   -0.4715 H       1  LIG1        0.1425
     22 C          -2.1481    7.3943   -0.0002 C.ar    1  LIG1        0.1918
     23 C          -2.7387    8.6410   -0.0002 C.ar    1  LIG1        0.1219
     24 C          -4.1701    8.4218   -0.0002 C.ar    1  LIG1        0.0925
     25 C          -4.3593    7.0551   -0.0003 C.ar    1  LIG1        0.1938
     26 O          -3.1273    6.4000   -0.0004 O.2     1  LIG1       -0.4453
     27 N          -1.6314   10.8227   -0.0000 N.1     1  LIG1       -0.1907
     28 C          -2.1504    9.8002   -0.0001 C.1     1  LIG1        0.1050
     29 N          -5.0790    9.3514   -0.0002 N.pl3   1  LIG1       -0.3539
     30 H          -4.7281   10.1605   -0.4716 H       1  LIG1        0.1425
     31 H          -5.8958    9.0190   -0.4716 H       1  LIG1        0.1425
     32 C          -5.3898    6.2627   -0.0003 C.ar    1  LIG1        0.1907
     33 C          -5.5796    4.8963   -0.0003 C.ar    1  LIG1        0.1211
     34 C          -7.0109    4.6763   -0.0003 C.ar    1  LIG1        0.0812
     35 C          -7.6010    5.9235   -0.0004 C.ar    1  LIG1        0.1146
     36 O          -6.6221    6.9178   -0.0005 O.2     1  LIG1       -0.4565
     37 H          -8.8217    6.3706   -0.0004 H       1  LIG1        0.1049
     38 N          -3.8692    3.1469   -0.0002 N.1     1  LIG1       -0.1907
     39 C          -4.6708    3.9667   -0.0002 C.1     1  LIG1        0.1049
     40 N          -7.5993    3.5171   -0.0003 N.pl3   1  LIG1       -0.3545
     41 H          -8.4782    3.5894   -0.4717 H       1  LIG1        0.1424
     42 H          -7.0221    2.8503   -0.4718 H       1  LIG1        0.1424
@<TRIPOS>BOND
     1    42    40    1
     2    41    40    1
     3    31    29    1
     4    30    29    1
     5    21    19    1
     6    20    19    1
     7    11     9    1
     8    10     9    1
     9    36    35   ar
    10    36    32   ar
    11    26    25   ar
    12    26    22   ar
    13    35    37    1
    14    35    34   ar
    15    33    34   ar
    16    33    32   ar
    17    33    39    1
    18    40    34    1
    19    32    25    1
    20    16    15   ar
    21    16    12   ar
    22    25    24   ar
    23    39    38    3
    24    24    29    1
    25    24    23   ar
    26    22    23   ar
    27    22    15    1
    28     5     4   ar
    29     5     1   ar
    30    23    28    1
    31    15    14   ar
    32    12     4    1
    33    12    13   ar
    34     4     3   ar
    35    13    14   ar
    36    13    18    1
    37    14    19    1
    38    28    27    3
    39     9     3    1
    40     6     1    1
    41    18    17    3
    42     1     2   ar
    43     3     2   ar
    44     2     8    1
    45     8     7    3
