@<TRIPOS>MOLECULE
mol_data/noopt/geoms/mol2/12dh12dh.out
 22 23 0 0 0
SMALL
GASTEIGER

@<TRIPOS>ATOM
      1 C           0.1763    1.8460    0.0000 C.ar    1  LIG1        0.1119
      2 C           1.5558    1.8460    0.0000 C.ar    1  LIG1        0.1107
      3 C           1.9706    3.2334    0.0000 C.ar    1  LIG1        0.0917
      4 C           0.8165    3.9895   -0.0001 C.ar    1  LIG1        0.1928
      5 O          -0.3030    3.1567   -0.0002 O.2     1  LIG1       -0.4566
      6 H          -0.7504    0.9343    0.0000 H       1  LIG1        0.1043
      7 N           3.0533   -0.0888    0.0002 N.1     1  LIG1       -0.1907
      8 C           2.3515    0.8179    0.0001 C.1     1  LIG1        0.1042
      9 N           3.1998    3.6567   -0.0000 N.pl3   1  LIG1       -0.3540
     10 H           3.7808    2.9932   -0.4714 H       1  LIG1        0.1425
     11 H           3.2491    4.5372   -0.4714 H       1  LIG1        0.1425
     12 C           0.5416    5.2601   -0.0001 C.ar    1  LIG1        0.1907
     13 C           1.2792    6.4258   -0.0001 C.ar    1  LIG1        0.1211
     14 C           0.3286    7.5182   -0.0001 C.ar    1  LIG1        0.0812
     15 C          -0.9274    6.9472   -0.0002 C.ar    1  LIG1        0.1146
     16 O          -0.8223    5.5559   -0.0003 O.2     1  LIG1       -0.4565
     17 H          -2.1481    7.3943   -0.0002 H       1  LIG1        0.1049
     18 N           3.7149    6.6566    0.0001 N.1     1  LIG1       -0.1907
     19 C           2.5734    6.5485   -0.0000 C.1     1  LIG1        0.1049
     20 N           0.6282    8.7832   -0.0001 N.pl3   1  LIG1       -0.3545
     21 H           1.4995    8.9194   -0.4715 H       1  LIG1        0.1424
     22 H          -0.0895    9.2957   -0.4715 H       1  LIG1        0.1424
@<TRIPOS>BOND
     1    22    20    1
     2    21    20    1
     3    11     9    1
     4    10     9    1
     5    16    15   ar
     6    16    12   ar
     7     5     4   ar
     8     5     1   ar
     9    17    15    1
    10    15    14   ar
    11    12    13   ar
    12    12     4    1
    13    20    14    1
    14    14    13   ar
    15    13    19    1
    16     4     3   ar
    17     1     6    1
    18     1     2   ar
    19     9     3    1
    20    19    18    3
    21     3     2   ar
    22     2     8    1
    23     8     7    3
