@<TRIPOS>MOLECULE
mol_data/noopt/geoms/mol2/12dh12dl12if-4hi.out
 50 53 0 0 0
SMALL
GASTEIGER

@<TRIPOS>ATOM
      1 C           0.1763    1.8460    0.0000 C.ar    1  LIG1        0.1119
      2 C           1.5558    1.8460    0.0000 C.ar    1  LIG1        0.1107
      3 C           1.9706    3.2334    0.0000 C.ar    1  LIG1        0.0917
      4 C           0.8165    3.9895   -0.0001 C.ar    1  LIG1        0.1929
      5 O          -0.3030    3.1567   -0.0002 O.2     1  LIG1       -0.4566
      6 H          -0.7504    0.9343    0.0000 H       1  LIG1        0.1043
      7 N           3.0533   -0.0888    0.0002 N.1     1  LIG1       -0.1907
      8 C           2.3515    0.8179    0.0001 C.1     1  LIG1        0.1042
      9 N           3.1998    3.6567   -0.0000 N.pl3   1  LIG1       -0.3540
     10 H           3.7808    2.9932   -0.4714 H       1  LIG1        0.1425
     11 H           3.2491    4.5372   -0.4714 H       1  LIG1        0.1425
     12 C           0.5416    5.2601   -0.0001 C.ar    1  LIG1        0.1936
     13 C           1.2791    6.4258    0.0147 C.ar    1  LIG1        0.1428
     14 C           0.3286    7.5182    0.0040 C.ar    1  LIG1        0.1869
     15 C          -0.9273    6.9473   -0.0167 C.ar    1  LIG1        0.2137
     16 O          -0.8221    5.5559   -0.0197 O.2     1  LIG1       -0.4434
     17 N           3.7145    6.6566    0.0520 N.1     1  LIG1       -0.1906
     18 C           2.5732    6.5484    0.0345 C.1     1  LIG1        0.1068
     19 O           0.6281    8.7832    0.0126 O.3     1  LIG1       -0.4900
     20 C           2.0498    8.9371    0.0157 C.3     1  LIG1        0.0790
     21 H           2.2959    9.9784    0.0225 H       1  LIG1        0.0660
     22 H           2.4574    8.4686    0.8870 H       1  LIG1        0.0660
     23 H           2.4600    8.4795   -0.8602 H       1  LIG1        0.0660
     24 C          -2.1478    7.3944   -0.0335 C.ar    1  LIG1        0.1808
     25 C          -2.7386    8.6410   -0.0314 C.ar    1  LIG1        0.0406
     26 C          -4.1697    8.4219   -0.0585 C.ar    1  LIG1        0.1664
     27 C          -4.3586    7.0553   -0.0754 C.ar    1  LIG1        0.1790
     28 O          -3.1268    6.4002   -0.0606 O.2     1  LIG1       -0.4475
     29 C          -2.1503    9.8004   -0.0096 C.3     1  LIG1       -0.0325
     30 H          -2.7718   10.5062    0.5008 H       1  LIG1        0.0280
     31 H          -1.9813   10.1336   -1.0123 H       1  LIG1        0.0280
     32 H          -1.2136    9.7156    0.5007 H       1  LIG1        0.0280
     33 O          -5.0785    9.3515   -0.0651 O.3     1  LIG1       -0.5030
     34 H          -5.9496    8.9480   -0.0667 H       1  LIG1        0.2923
     35 C          -6.6909    6.8038   -0.1143 C.ar    1  LIG1        0.0355
     36 C          -7.7735    5.9035   -0.1407 C.ar    1  LIG1       -0.0401
     37 C          -5.3889    6.2629   -0.1012 C.ar    1  LIG1        0.0418
     38 C          -7.5711    4.5253   -0.1541 C.ar    1  LIG1       -0.0571
     39 H          -8.7865    6.2995   -0.1511 H       1  LIG1        0.0636
     40 C          -5.1863    4.8871   -0.1145 C.ar    1  LIG1       -0.0463
     41 C          -6.2747    4.0090   -0.1411 C.ar    1  LIG1       -0.0497
     42 H          -4.1726    4.4946   -0.1038 H       1  LIG1        0.0628
     43 H          -8.5937    3.7229   -0.1786 H       1  LIG1        0.0621
     44 N          -6.9429    8.0791   -0.1032 N.pl3   1  LIG1       -0.3574
     45 H          -6.2072    8.5683   -0.5718 H       1  LIG1        0.1423
     46 H          -7.8092    8.2518   -0.5718 H       1  LIG1        0.1423
     47 C          -6.0792    2.7236   -0.1533 C.3     1  LIG1       -0.0397
     48 H          -5.1611    2.4977    0.3478 H       1  LIG1        0.0278
     49 H          -6.0269    2.3803   -1.1655 H       1  LIG1        0.0278
     50 H          -6.8886    2.2349    0.3477 H       1  LIG1        0.0278
@<TRIPOS>BOND
     1    49    47    1
     2    31    29    1
     3    23    20    1
     4    46    44    1
     5    45    44    1
     6    11     9    1
     7    10     9    1
     8    43    38    1
     9    38    41   ar
    10    38    36   ar
    11    47    41    1
    12    47    50    1
    13    47    48    1
    14    39    36    1
    15    41    40   ar
    16    36    35   ar
    17    40    42    1
    18    40    37   ar
    19    35    44    1
    20    35    37   ar
    21    37    27    1
    22    27    28   ar
    23    27    26   ar
    24    34    33    1
    25    33    26    1
    26    28    24   ar
    27    26    25   ar
    28    24    25   ar
    29    24    15    1
    30    25    29    1
    31    16    15   ar
    32    16    12   ar
    33    15    14   ar
    34    29    32    1
    35    29    30    1
    36     5     4   ar
    37     5     1   ar
    38    12     4    1
    39    12    13   ar
    40     4     3   ar
    41     1     2   ar
    42     1     6    1
    43     2     3   ar
    44     2     8    1
    45     3     9    1
    46     8     7    3
    47    14    19    1
    48    14    13   ar
    49    19    20    1
    50    13    18    1
    51    20    21    1
    52    20    22    1
    53    18    17    3
