@<TRIPOS>MOLECULE
mol_data/noopt/geoms/mol2/12dh12dh-12dh.out
 32 34 0 0 0
SMALL
GASTEIGER

@<TRIPOS>ATOM
      1 C           0.1763    1.8460    0.0000 C.ar    1  LIG1        0.1119
      2 C           1.5558    1.8460    0.0000 C.ar    1  LIG1        0.1107
      3 C           1.9706    3.2334    0.0000 C.ar    1  LIG1        0.0917
      4 C           0.8165    3.9895   -0.0001 C.ar    1  LIG1        0.1928
      5 O          -0.3030    3.1567   -0.0002 O.2     1  LIG1       -0.4566
      6 H          -0.7504    0.9343    0.0000 H       1  LIG1        0.1043
      7 N           3.0533   -0.0888    0.0002 N.1     1  LIG1       -0.1907
      8 C           2.3515    0.8179    0.0001 C.1     1  LIG1        0.1042
      9 N           3.1998    3.6567   -0.0000 N.pl3   1  LIG1       -0.3540
     10 H           3.7808    2.9932   -0.4714 H       1  LIG1        0.1425
     11 H           3.2491    4.5372   -0.4714 H       1  LIG1        0.1425
     12 C           0.5416    5.2601   -0.0001 C.ar    1  LIG1        0.1917
     13 C          -0.6119    6.0167   -0.0001 C.ar    1  LIG1        0.1219
     14 C          -0.1979    7.4043   -0.0001 C.ar    1  LIG1        0.0925
     15 C           1.1818    7.4036   -0.0002 C.ar    1  LIG1        0.1938
     16 O           1.6612    6.0932   -0.0003 O.2     1  LIG1       -0.4453
     17 N          -2.9252    5.2200    0.0000 N.1     1  LIG1       -0.1907
     18 C          -1.8411    5.5934   -0.0000 C.1     1  LIG1        0.1050
     19 N          -0.9936    8.4324   -0.0001 N.pl3   1  LIG1       -0.3539
     20 H          -0.5519    9.1957   -0.4715 H       1  LIG1        0.1425
     21 H          -1.8433    8.1962   -0.4716 H       1  LIG1        0.1425
     22 C           2.1085    8.3153   -0.0002 C.ar    1  LIG1        0.1907
     23 C           3.4880    8.3153   -0.0001 C.ar    1  LIG1        0.1211
     24 C           3.9028    9.7027   -0.0001 C.ar    1  LIG1        0.0812
     25 C           2.7487   10.4588   -0.0002 C.ar    1  LIG1        0.1146
     26 O           1.6292    9.6260   -0.0003 O.2     1  LIG1       -0.4565
     27 H           2.4738   11.7294   -0.0002 H       1  LIG1        0.1049
     28 N           4.9855    6.3805    0.0000 N.1     1  LIG1       -0.1907
     29 C           4.2837    7.2872   -0.0000 C.1     1  LIG1        0.1049
     30 N           5.1320   10.1260   -0.0001 N.pl3   1  LIG1       -0.3545
     31 H           5.7130    9.4625   -0.4715 H       1  LIG1        0.1424
     32 H           5.1813   11.0065   -0.4715 H       1  LIG1        0.1424
@<TRIPOS>BOND
     1    21    19    1
     2    20    19    1
     3    32    30    1
     4    31    30    1
     5    11     9    1
     6    10     9    1
     7    26    25   ar
     8    26    22   ar
     9    16    15   ar
    10    16    12   ar
    11    25    27    1
    12    25    24   ar
    13     5     4   ar
    14     5     1   ar
    15    15    22    1
    16    15    14   ar
    17    22    23   ar
    18    23    24   ar
    19    23    29    1
    20    13    14   ar
    21    13    12   ar
    22    13    18    1
    23    19    14    1
    24    24    30    1
    25    12     4    1
    26     4     3   ar
    27    18    17    3
    28    29    28    3
    29     1     6    1
    30     1     2   ar
    31     9     3    1
    32     3     2   ar
    33     2     8    1
    34     8     7    3
