@<TRIPOS>MOLECULE
mol_data/noopt/geoms/mol2/12dh12dh-4dh12dh.out
 45 48 0 0 0
SMALL
GASTEIGER

@<TRIPOS>ATOM
      1 C           0.1763    1.8460    0.0000 C.ar    1  LIG1        0.1119
      2 C           1.5558    1.8460    0.0000 C.ar    1  LIG1        0.1107
      3 C           1.9706    3.2334    0.0000 C.ar    1  LIG1        0.0917
      4 C           0.8165    3.9895   -0.0001 C.ar    1  LIG1        0.1928
      5 O          -0.3030    3.1567   -0.0002 O.2     1  LIG1       -0.4566
      6 H          -0.7504    0.9343    0.0000 H       1  LIG1        0.1043
      7 N           3.0533   -0.0888    0.0002 N.1     1  LIG1       -0.1907
      8 C           2.3515    0.8179    0.0001 C.1     1  LIG1        0.1042
      9 N           3.1998    3.6567   -0.0000 N.pl3   1  LIG1       -0.3540
     10 H           3.7808    2.9932   -0.4714 H       1  LIG1        0.1425
     11 H           3.2491    4.5372   -0.4714 H       1  LIG1        0.1425
     12 C           0.5416    5.2601   -0.0001 C.ar    1  LIG1        0.1916
     13 C          -0.6119    6.0167   -0.0001 C.ar    1  LIG1        0.1218
     14 C          -0.1979    7.4043   -0.0001 C.ar    1  LIG1        0.0894
     15 C           1.1818    7.4036   -0.0002 C.ar    1  LIG1        0.1590
     16 O           1.6612    6.0932   -0.0003 O.2     1  LIG1       -0.4484
     17 N          -2.9252    5.2200    0.0000 N.1     1  LIG1       -0.1907
     18 C          -1.8411    5.5934   -0.0000 C.1     1  LIG1        0.1050
     19 N          -0.9936    8.4324   -0.0001 N.pl3   1  LIG1       -0.3540
     20 H          -0.5519    9.1957   -0.4715 H       1  LIG1        0.1425
     21 H          -1.8433    8.1962   -0.4716 H       1  LIG1        0.1425
     22 C           3.4666    7.9365    0.0006 C.ar    1  LIG1        0.0633
     23 C           4.4321    8.9616    0.0022 C.ar    1  LIG1       -0.0312
     24 C           2.1085    8.3153   -0.0002 C.ar    1  LIG1        0.0383
     25 C           4.0641   10.3052    0.0023 C.ar    1  LIG1        0.0405
     26 H           5.4858    8.6915    0.0030 H       1  LIG1        0.0638
     27 C           1.7405    9.6564   -0.0000 C.ar    1  LIG1       -0.0284
     28 C           2.7146   10.6603    0.0011 C.ar    1  LIG1        0.0361
     29 H           0.6867    9.9230   -0.0005 H       1  LIG1        0.0644
     30 N           4.2284    5.6115   -0.0000 N.1     1  LIG1       -0.1908
     31 C           3.8714    6.7011    0.0003 C.1     1  LIG1        0.0999
     32 N           2.3646   11.9123    0.0014 N.pl3   1  LIG1       -0.3574
     33 H           3.0613   12.4532   -0.4699 H       1  LIG1        0.1423
     34 H           1.4886   12.0136   -0.4700 H       1  LIG1        0.1423
     35 C           4.9819   11.2258    0.0036 C.ar    1  LIG1        0.1557
     36 C           6.3613   11.2392    0.0046 C.ar    1  LIG1        0.1180
     37 C           6.7627   12.6306    0.0059 C.ar    1  LIG1        0.0811
     38 C           5.6013   13.3755    0.0055 C.ar    1  LIG1        0.1145
     39 O           4.4899   12.5318    0.0040 O.2     1  LIG1       -0.4597
     40 H           5.3141   14.6433    0.0062 H       1  LIG1        0.1049
     41 N           7.8775    9.3190    0.0045 N.1     1  LIG1       -0.1907
     42 C           7.1669   10.2189    0.0046 C.1     1  LIG1        0.1048
     43 N           7.9877   13.0658    0.0071 N.pl3   1  LIG1       -0.3545
     44 H           8.5755   12.4081   -0.4640 H       1  LIG1        0.1424
     45 H           8.0289   13.9469   -0.4640 H       1  LIG1        0.1424
@<TRIPOS>BOND
     1    21    19    1
     2    20    19    1
     3    11     9    1
     4    10     9    1
     5    34    32    1
     6    33    32    1
     7    45    43    1
     8    44    43    1
     9    29    27    1
    10    16    15   ar
    11    16    12   ar
    12     5     4   ar
    13     5     1   ar
    14    15    24    1
    15    15    14   ar
    16    24    27   ar
    17    24    22   ar
    18    13    14   ar
    19    13    12   ar
    20    13    18    1
    21    19    14    1
    22    12     4    1
    23     4     3   ar
    24    18    17    3
    25    27    28   ar
    26    30    31    3
    27     1     6    1
    28     1     2   ar
    29     2     3   ar
    30     2     8    1
    31     3     9    1
    32     8     7    3
    33    31    22    1
    34    22    23   ar
    35    28    32    1
    36    28    25   ar
    37    23    25   ar
    38    23    26    1
    39    25    35    1
    40    35    39   ar
    41    35    36   ar
    42    39    38   ar
    43    41    42    3
    44    42    36    1
    45    36    37   ar
    46    38    37   ar
    47    38    40    1
    48    37    43    1
