@<TRIPOS>MOLECULE
mol_data/noopt/geoms/mol2/12dh12dh12dh-12dh.out
 42 45 0 0 0
SMALL
GASTEIGER

@<TRIPOS>ATOM
      1 C           0.1763    1.8460    0.0000 C.ar    1  LIG1        0.1119
      2 C           1.5558    1.8460    0.0000 C.ar    1  LIG1        0.1107
      3 C           1.9706    3.2334    0.0000 C.ar    1  LIG1        0.0917
      4 C           0.8165    3.9895   -0.0001 C.ar    1  LIG1        0.1928
      5 O          -0.3030    3.1567   -0.0002 O.2     1  LIG1       -0.4566
      6 H          -0.7504    0.9343    0.0000 H       1  LIG1        0.1043
      7 N           3.0533   -0.0888    0.0002 N.1     1  LIG1       -0.1907
      8 C           2.3515    0.8179    0.0001 C.1     1  LIG1        0.1042
      9 N           3.1998    3.6567   -0.0000 N.pl3   1  LIG1       -0.3540
     10 H           3.7808    2.9932   -0.4714 H       1  LIG1        0.1425
     11 H           3.2491    4.5372   -0.4714 H       1  LIG1        0.1425
     12 C           0.5416    5.2601   -0.0001 C.ar    1  LIG1        0.1917
     13 C           1.2792    6.4258   -0.0001 C.ar    1  LIG1        0.1219
     14 C           0.3286    7.5182   -0.0001 C.ar    1  LIG1        0.0925
     15 C          -0.9274    6.9472   -0.0002 C.ar    1  LIG1        0.1939
     16 O          -0.8223    5.5559   -0.0003 O.2     1  LIG1       -0.4453
     17 N           3.7149    6.6566    0.0001 N.1     1  LIG1       -0.1907
     18 C           2.5734    6.5485   -0.0000 C.1     1  LIG1        0.1050
     19 N           0.6282    8.7832   -0.0001 N.pl3   1  LIG1       -0.3539
     20 H           1.4995    8.9194   -0.4715 H       1  LIG1        0.1425
     21 H          -0.0895    9.2957   -0.4715 H       1  LIG1        0.1425
     22 C          -2.1481    7.3943   -0.0002 C.ar    1  LIG1        0.1918
     23 C          -3.4042    6.8241   -0.0002 C.ar    1  LIG1        0.1219
     24 C          -4.3554    7.9160   -0.0002 C.ar    1  LIG1        0.0925
     25 C          -3.6171    9.0815   -0.0003 C.ar    1  LIG1        0.1938
     26 O          -2.2534    8.7859   -0.0004 O.2     1  LIG1       -0.4453
     27 N          -3.9680    4.4434   -0.0001 N.1     1  LIG1       -0.1907
     28 C          -3.7038    5.5591   -0.0001 C.1     1  LIG1        0.1050
     29 N          -5.6496    7.7933   -0.0002 N.pl3   1  LIG1       -0.3539
     30 H          -6.0585    8.5747   -0.4716 H       1  LIG1        0.1425
     31 H          -5.9044    6.9491   -0.4717 H       1  LIG1        0.1425
     32 C          -3.8920   10.3521   -0.0003 C.ar    1  LIG1        0.1907
     33 C          -3.1543   11.5178   -0.0002 C.ar    1  LIG1        0.1211
     34 C          -4.1049   12.6102   -0.0002 C.ar    1  LIG1        0.0812
     35 C          -5.3610   12.0393   -0.0003 C.ar    1  LIG1        0.1146
     36 O          -5.2558   10.6479   -0.0004 O.2     1  LIG1       -0.4565
     37 H          -6.5817   12.4864   -0.0003 H       1  LIG1        0.1049
     38 N          -0.7186   11.7487   -0.0001 N.1     1  LIG1       -0.1907
     39 C          -1.8601   11.6405   -0.0001 C.1     1  LIG1        0.1049
     40 N          -3.8054   13.8752   -0.0002 N.pl3   1  LIG1       -0.3545
     41 H          -2.9340   14.0114   -0.4716 H       1  LIG1        0.1424
     42 H          -4.5230   14.3877   -0.4716 H       1  LIG1        0.1424
@<TRIPOS>BOND
     1    31    29    1
     2    30    29    1
     3    42    40    1
     4    41    40    1
     5    21    19    1
     6    20    19    1
     7    11     9    1
     8    10     9    1
     9    36    35   ar
    10    36    32   ar
    11    26    25   ar
    12    26    22   ar
    13    35    37    1
    14    35    34   ar
    15    16    15   ar
    16    16    12   ar
    17    25    32    1
    18    25    24   ar
    19    32    33   ar
    20    33    34   ar
    21    33    39    1
    22    23    24   ar
    23    23    22   ar
    24    23    28    1
    25    29    24    1
    26    34    40    1
    27    22    15    1
    28    15    14   ar
    29     5     4   ar
    30     5     1   ar
    31    28    27    3
    32    39    38    3
    33    19    14    1
    34    14    13   ar
    35    13    12   ar
    36    13    18    1
    37    12     4    1
    38     4     3   ar
    39     9     3    1
    40     2     3   ar
    41     2     1   ar
    42     2     8    1
    43     6     1    1
    44    18    17    3
    45     8     7    3
