@<TRIPOS>MOLECULE
mol_data/noopt/geoms/mol2/12dh12dh-12dh-12dh-.out
 42 45 0 0 0
SMALL
GASTEIGER

@<TRIPOS>ATOM
      1 C           0.1763    1.8460    0.0000 C.ar    1  LIG1        0.1119
      2 C           1.5558    1.8460    0.0000 C.ar    1  LIG1        0.1107
      3 C           1.9706    3.2334    0.0000 C.ar    1  LIG1        0.0917
      4 C           0.8165    3.9895   -0.0001 C.ar    1  LIG1        0.1928
      5 O          -0.3030    3.1567   -0.0002 O.2     1  LIG1       -0.4566
      6 H          -0.7504    0.9343    0.0000 H       1  LIG1        0.1043
      7 N           3.0533   -0.0888    0.0002 N.1     1  LIG1       -0.1907
      8 C           2.3515    0.8179    0.0001 C.1     1  LIG1        0.1042
      9 N           3.1998    3.6567   -0.0000 N.pl3   1  LIG1       -0.3540
     10 H           3.7808    2.9932   -0.4714 H       1  LIG1        0.1425
     11 H           3.2491    4.5372   -0.4714 H       1  LIG1        0.1425
     12 C           0.5416    5.2601   -0.0001 C.ar    1  LIG1        0.1917
     13 C          -0.6119    6.0167   -0.0001 C.ar    1  LIG1        0.1219
     14 C          -0.1979    7.4043   -0.0001 C.ar    1  LIG1        0.0925
     15 C           1.1818    7.4036   -0.0002 C.ar    1  LIG1        0.1939
     16 O           1.6612    6.0932   -0.0003 O.2     1  LIG1       -0.4453
     17 N          -2.9252    5.2200    0.0000 N.1     1  LIG1       -0.1907
     18 C          -1.8411    5.5934   -0.0000 C.1     1  LIG1        0.1050
     19 N          -0.9936    8.4324   -0.0001 N.pl3   1  LIG1       -0.3539
     20 H          -0.5519    9.1957   -0.4715 H       1  LIG1        0.1425
     21 H          -1.8433    8.1962   -0.4716 H       1  LIG1        0.1425
     22 C           2.1085    8.3153   -0.0002 C.ar    1  LIG1        0.1918
     23 C           2.1310    9.6946   -0.0002 C.ar    1  LIG1        0.1219
     24 C           3.5250   10.0867   -0.0001 C.ar    1  LIG1        0.0925
     25 C           4.2622    8.9204   -0.0002 C.ar    1  LIG1        0.1938
     26 O           3.4112    7.8147   -0.0003 O.2     1  LIG1       -0.4453
     27 N           0.2209   11.2234   -0.0000 N.1     1  LIG1       -0.1907
     28 C           1.1161   10.5069   -0.0001 C.1     1  LIG1        0.1050
     29 N           3.9683   11.3088   -0.0001 N.pl3   1  LIG1       -0.3539
     30 H           4.8495   11.3437   -0.4715 H       1  LIG1        0.1425
     31 H           3.3145   11.9006   -0.4715 H       1  LIG1        0.1425
     32 C           5.5281    8.6248   -0.0002 C.ar    1  LIG1        0.1907
     33 C           6.7057    9.3433   -0.0002 C.ar    1  LIG1        0.1211
     34 C           7.7825    8.3750   -0.0001 C.ar    1  LIG1        0.0812
     35 C           7.1911    7.1285   -0.0002 C.ar    1  LIG1        0.1146
     36 O           5.8017    7.2563   -0.0003 O.2     1  LIG1       -0.4565
     37 H           7.6182    5.9007   -0.0001 H       1  LIG1        0.1049
     38 N           6.9763   11.7749   -0.0000 N.1     1  LIG1       -0.1907
     39 C           6.8495   10.6354   -0.0001 C.1     1  LIG1        0.1049
     40 N           9.0522    8.6539   -0.0001 N.pl3   1  LIG1       -0.3545
     41 H           9.5529    7.9279   -0.4715 H       1  LIG1        0.1424
     42 H           9.2026    9.5229   -0.4715 H       1  LIG1        0.1424
@<TRIPOS>BOND
     1    21    19    1
     2    31    29    1
     3    20    19    1
     4    42    40    1
     5    30    29    1
     6    41    40    1
     7    11     9    1
     8    10     9    1
     9    26    25   ar
    10    26    22   ar
    11    36    35   ar
    12    36    32   ar
    13    16    15   ar
    14    16    12   ar
    15     5     4   ar
    16     5     1   ar
    17    25    32    1
    18    25    24   ar
    19    35    37    1
    20    35    34   ar
    21    15    22    1
    22    15    14   ar
    23    32    33   ar
    24    23    22   ar
    25    23    24   ar
    26    23    28    1
    27    33    34   ar
    28    33    39    1
    29    13    14   ar
    30    13    12   ar
    31    13    18    1
    32    24    29    1
    33    19    14    1
    34    34    40    1
    35     4    12    1
    36     4     3   ar
    37    28    27    3
    38    39    38    3
    39    18    17    3
    40     2     3   ar
    41     2     1   ar
    42     2     8    1
    43     3     9    1
    44     6     1    1
    45     8     7    3
