@<TRIPOS>MOLECULE
mol_data/noopt/geoms/mol2/12dh12dh-12dh12dh-.out
 42 45 0 0 0
SMALL
GASTEIGER

@<TRIPOS>ATOM
      1 C           0.1763    1.8460    0.0000 C.ar    1  LIG1        0.1119
      2 C           1.5558    1.8460    0.0000 C.ar    1  LIG1        0.1107
      3 C           1.9706    3.2334    0.0000 C.ar    1  LIG1        0.0917
      4 C           0.8165    3.9895   -0.0001 C.ar    1  LIG1        0.1928
      5 O          -0.3030    3.1567   -0.0002 O.2     1  LIG1       -0.4566
      6 H          -0.7504    0.9343    0.0000 H       1  LIG1        0.1043
      7 N           3.0533   -0.0888    0.0002 N.1     1  LIG1       -0.1907
      8 C           2.3515    0.8179    0.0001 C.1     1  LIG1        0.1042
      9 N           3.1998    3.6567   -0.0000 N.pl3   1  LIG1       -0.3540
     10 H           3.7808    2.9932   -0.4714 H       1  LIG1        0.1425
     11 H           3.2491    4.5372   -0.4714 H       1  LIG1        0.1425
     12 C           0.5416    5.2601   -0.0001 C.ar    1  LIG1        0.1917
     13 C          -0.6119    6.0167   -0.0001 C.ar    1  LIG1        0.1219
     14 C          -0.1979    7.4043   -0.0001 C.ar    1  LIG1        0.0925
     15 C           1.1818    7.4036   -0.0002 C.ar    1  LIG1        0.1939
     16 O           1.6612    6.0932   -0.0003 O.2     1  LIG1       -0.4453
     17 N          -2.9252    5.2200    0.0000 N.1     1  LIG1       -0.1907
     18 C          -1.8411    5.5934   -0.0000 C.1     1  LIG1        0.1050
     19 N          -0.9936    8.4324   -0.0001 N.pl3   1  LIG1       -0.3539
     20 H          -0.5519    9.1957   -0.4715 H       1  LIG1        0.1425
     21 H          -1.8433    8.1962   -0.4716 H       1  LIG1        0.1425
     22 C           2.1085    8.3153   -0.0002 C.ar    1  LIG1        0.1918
     23 C           3.4880    8.3153   -0.0001 C.ar    1  LIG1        0.1219
     24 C           3.9028    9.7027   -0.0001 C.ar    1  LIG1        0.0925
     25 C           2.7487   10.4588   -0.0002 C.ar    1  LIG1        0.1938
     26 O           1.6292    9.6260   -0.0003 O.2     1  LIG1       -0.4453
     27 N           4.9855    6.3805    0.0000 N.1     1  LIG1       -0.1907
     28 C           4.2837    7.2872   -0.0000 C.1     1  LIG1        0.1050
     29 N           5.1320   10.1260   -0.0001 N.pl3   1  LIG1       -0.3539
     30 H           5.7130    9.4625   -0.4715 H       1  LIG1        0.1425
     31 H           5.1813   11.0065   -0.4715 H       1  LIG1        0.1425
     32 C           2.4738   11.7294   -0.0002 C.ar    1  LIG1        0.1907
     33 C           1.3203   12.4859   -0.0002 C.ar    1  LIG1        0.1211
     34 C           1.7343   13.8736   -0.0002 C.ar    1  LIG1        0.0812
     35 C           3.1141   13.8729   -0.0003 C.ar    1  LIG1        0.1146
     36 O           3.5935   12.5625   -0.0004 O.2     1  LIG1       -0.4565
     37 H           4.0408   14.7846   -0.0002 H       1  LIG1        0.1049
     38 N          -0.9930   11.6893   -0.0001 N.1     1  LIG1       -0.1907
     39 C           0.0911   12.0626   -0.0001 C.1     1  LIG1        0.1049
     40 N           0.9387   14.9016   -0.0002 N.pl3   1  LIG1       -0.3545
     41 H           1.3804   15.6650   -0.4716 H       1  LIG1        0.1424
     42 H           0.0890   14.6655   -0.4716 H       1  LIG1        0.1424
@<TRIPOS>BOND
     1    42    40    1
     2    41    40    1
     3    21    19    1
     4    20    19    1
     5    31    29    1
     6    30    29    1
     7    11     9    1
     8    10     9    1
     9    36    35   ar
    10    36    32   ar
    11    26    25   ar
    12    26    22   ar
    13    16    15   ar
    14    16    12   ar
    15    35    37    1
    16    35    34   ar
    17    25    32    1
    18    25    24   ar
    19    33    32   ar
    20    33    34   ar
    21    33    39    1
    22     5     4   ar
    23     5     1   ar
    24    34    40    1
    25    15    22    1
    26    15    14   ar
    27    22    23   ar
    28    39    38    3
    29    23    24   ar
    30    23    28    1
    31    13    14   ar
    32    13    12   ar
    33    13    18    1
    34    19    14    1
    35    24    29    1
    36    12     4    1
    37     4     3   ar
    38    18    17    3
    39    28    27    3
    40     2     1   ar
    41     2     3   ar
    42     2     8    1
    43     1     6    1
    44     3     9    1
    45     8     7    3
