@<TRIPOS>MOLECULE
mol_data/noopt/geoms/mol2/12dh12dh12dh.out
 32 34 0 0 0
SMALL
GASTEIGER

@<TRIPOS>ATOM
      1 C           0.1763    1.8460    0.0000 C.ar    1  LIG1        0.1119
      2 C           1.5558    1.8460    0.0000 C.ar    1  LIG1        0.1107
      3 C           1.9706    3.2334    0.0000 C.ar    1  LIG1        0.0917
      4 C           0.8165    3.9895   -0.0001 C.ar    1  LIG1        0.1928
      5 O          -0.3030    3.1567   -0.0002 O.2     1  LIG1       -0.4566
      6 H          -0.7504    0.9343    0.0000 H       1  LIG1        0.1043
      7 N           3.0533   -0.0888    0.0002 N.1     1  LIG1       -0.1907
      8 C           2.3515    0.8179    0.0001 C.1     1  LIG1        0.1042
      9 N           3.1998    3.6567   -0.0000 N.pl3   1  LIG1       -0.3540
     10 H           3.7808    2.9932   -0.4714 H       1  LIG1        0.1425
     11 H           3.2491    4.5372   -0.4714 H       1  LIG1        0.1425
     12 C           0.5416    5.2601   -0.0001 C.ar    1  LIG1        0.1917
     13 C           1.2792    6.4258   -0.0001 C.ar    1  LIG1        0.1219
     14 C           0.3286    7.5182   -0.0001 C.ar    1  LIG1        0.0925
     15 C          -0.9274    6.9472   -0.0002 C.ar    1  LIG1        0.1938
     16 O          -0.8223    5.5559   -0.0003 O.2     1  LIG1       -0.4453
     17 N           3.7149    6.6566    0.0001 N.1     1  LIG1       -0.1907
     18 C           2.5734    6.5485   -0.0000 C.1     1  LIG1        0.1050
     19 N           0.6282    8.7832   -0.0001 N.pl3   1  LIG1       -0.3539
     20 H           1.4995    8.9194   -0.4715 H       1  LIG1        0.1425
     21 H          -0.0895    9.2957   -0.4715 H       1  LIG1        0.1425
     22 C          -2.1481    7.3943   -0.0002 C.ar    1  LIG1        0.1907
     23 C          -2.7387    8.6410   -0.0002 C.ar    1  LIG1        0.1211
     24 C          -4.1701    8.4218   -0.0002 C.ar    1  LIG1        0.0812
     25 C          -4.3593    7.0551   -0.0003 C.ar    1  LIG1        0.1146
     26 O          -3.1273    6.4000   -0.0004 O.2     1  LIG1       -0.4565
     27 H          -5.3898    6.2627   -0.0003 H       1  LIG1        0.1049
     28 N          -1.6314   10.8227   -0.0000 N.1     1  LIG1       -0.1907
     29 C          -2.1504    9.8002   -0.0001 C.1     1  LIG1        0.1049
     30 N          -5.0790    9.3514   -0.0002 N.pl3   1  LIG1       -0.3545
     31 H          -4.7281   10.1605   -0.4716 H       1  LIG1        0.1424
     32 H          -5.8958    9.0190   -0.4716 H       1  LIG1        0.1424
@<TRIPOS>BOND
     1    32    30    1
     2    31    30    1
     3    21    19    1
     4    20    19    1
     5    11     9    1
     6    10     9    1
     7    26    25   ar
     8    26    22   ar
     9    25    27    1
    10    25    24   ar
    11    16    15   ar
    12    16    12   ar
    13    22    23   ar
    14    22    15    1
    15    23    24   ar
    16    23    29    1
    17    30    24    1
    18    15    14   ar
    19     5     4   ar
    20     5     1   ar
    21    19    14    1
    22    13    14   ar
    23    13    12   ar
    24    13    18    1
    25    12     4    1
    26    29    28    3
    27     4     3   ar
    28     1     6    1
    29     1     2   ar
    30    18    17    3
    31     9     3    1
    32     3     2   ar
    33     2     8    1
    34     8     7    3
