@<TRIPOS>MOLECULE
mol_data/noopt/geoms/mol2/12di13af-13ei-13fd-.out
 45 48 0 0 0
SMALL
GASTEIGER

@<TRIPOS>ATOM
      1 C           0.1763    1.8460    0.0000 C.ar    1  LIG1        0.1102
      2 C           1.5558    1.8460    0.0000 C.ar    1  LIG1        0.0929
      3 C           1.9706    3.2334    0.0000 C.ar    1  LIG1        0.0141
      4 C           0.8165    3.9895   -0.0001 C.ar    1  LIG1        0.1551
      5 O          -0.3030    3.1567   -0.0002 O.2     1  LIG1       -0.4599
      6 H          -0.7504    0.9343    0.0000 H       1  LIG1        0.1043
      7 N           3.0533   -0.0888    0.0002 N.1     1  LIG1       -0.1908
      8 C           2.3515    0.8179    0.0001 C.1     1  LIG1        0.1026
      9 C           3.2001    3.6568    0.0000 C.3     1  LIG1       -0.0348
     10 H           3.2528    4.5990    0.5044 H       1  LIG1        0.0279
     11 H           3.5373    3.7730   -1.0088 H       1  LIG1        0.0279
     12 H           3.8217    2.9468    0.5044 H       1  LIG1        0.0279
     13 C           0.5416    5.2601   -0.0001 C.ar    1  LIG1        0.0864
     14 C           1.3662    6.3409   -0.0005 C.ar    1  LIG1        0.0089
     15 C           0.5391    7.5098    0.0008 C.ar    1  LIG1        0.1442
     16 C          -0.7546    7.0920    0.0002 C.ar    1  LIG1        0.1066
     17 N          -0.7576    5.7154    0.0001 N.ar    1  LIG1       -0.3476
     18 H          -1.5690    5.1412   -0.0005 H       1  LIG1        0.1661
     19 H           2.6659    6.3141   -0.0004 H       1  LIG1        0.0676
     20 O           0.9464    8.7444    0.0020 O.3     1  LIG1       -0.5046
     21 H           0.1873    9.3322    0.0023 H       1  LIG1        0.2922
     22 C          -1.8613    7.7741    0.0007 C.ar    1  LIG1        0.0828
     23 C          -2.0695    9.1173    0.0174 C.ar    1  LIG1        0.0550
     24 C          -3.4855    9.3308    0.0102 C.ar    1  LIG1       -0.0076
     25 C          -4.0803    8.1086   -0.0122 C.ar    1  LIG1        0.0711
     26 N          -3.0896    7.1527   -0.0176 N.ar    1  LIG1       -0.3505
     27 H          -3.2377    6.1699   -0.0330 H       1  LIG1        0.1660
     28 C          -1.1498   10.0359    0.0376 C.1     1  LIG1       -0.0672
     29 C          -0.3001   10.8847    0.0563 C.1     1  LIG1       -0.1138
     30 H           0.4569   11.6408    0.0730 H       1  LIG1        0.1232
     31 C          -4.0938   10.4800    0.0224 C.3     1  LIG1       -0.0365
     32 H          -5.0306   10.3823    0.5301 H       1  LIG1        0.0279
     33 H          -4.2651   10.8035   -0.9831 H       1  LIG1        0.0279
     34 H          -3.4862   11.1997    0.5301 H       1  LIG1        0.0279
     35 C          -5.3388    7.7831   -0.0263 C.ar    1  LIG1        0.1065
     36 C          -6.4516    8.5638   -0.0363 C.ar    1  LIG1        0.1609
     37 C          -7.5865    7.6906   -0.0493 C.ar    1  LIG1        0.1110
     38 C          -7.1173    6.4147   -0.0485 C.ar    1  LIG1        0.0233
     39 N          -5.7417    6.4668   -0.0340 N.ar    1  LIG1       -0.3554
     40 H          -5.1356    5.6789   -0.0303 H       1  LIG1        0.1655
     41 H          -7.7545    5.2816   -0.0577 H       1  LIG1        0.0821
     42 O          -6.4769    9.8636   -0.0329 O.3     1  LIG1       -0.5034
     43 H          -7.3880   10.1663   -0.0321 H       1  LIG1        0.2923
     44 N          -9.9387    8.3635   -0.0701 N.1     1  LIG1       -0.1907
     45 C          -8.8363    8.0481   -0.0604 C.1     1  LIG1        0.1043
@<TRIPOS>BOND
     1    11     9    1
     2    33    31    1
     3    44    45    3
     4    45    37    1
     5    41    38    1
     6    37    38   ar
     7    37    36   ar
     8    38    39   ar
     9    36    42    1
    10    36    35   ar
    11    39    40    1
    12    39    35   ar
    13    27    26    1
    14    42    43    1
    15    35    25    1
    16    26    25   ar
    17    26    22   ar
    18    25    24   ar
    19    18    17    1
    20    14    19    1
    21    14    13   ar
    22    14    15   ar
    23     5     4   ar
    24     5     1   ar
    25    13     4    1
    26    13    17   ar
    27     4     3   ar
    28     1     2   ar
    29     1     6    1
    30     2     3   ar
    31     2     8    1
    32     3     9    1
    33     9    12    1
    34     9    10    1
    35    17    16   ar
    36     8     7    3
    37    16    22    1
    38    16    15   ar
    39    22    23   ar
    40    15    20    1
    41    20    21    1
    42    24    23   ar
    43    24    31    1
    44    23    28    1
    45    31    34    1
    46    31    32    1
    47    28    29    3
    48    29    30    1
