@<TRIPOS>MOLECULE
mol_data/noopt/geoms/mol2/12di6lh(270)4he(340)4il(330).out
 59 62 0 0 0
SMALL
GASTEIGER

@<TRIPOS>ATOM
      1 C           0.1763    1.8460    0.0000 C.ar    1  LIG1        0.1102
      2 C           1.5558    1.8460    0.0000 C.ar    1  LIG1        0.0929
      3 C           1.9706    3.2334    0.0000 C.ar    1  LIG1        0.0128
      4 C           0.8165    3.9895   -0.0001 C.ar    1  LIG1        0.1441
      5 O          -0.3030    3.1567   -0.0002 O.2     1  LIG1       -0.4612
      6 H          -0.7504    0.9343    0.0000 H       1  LIG1        0.1043
      7 N           3.0533   -0.0888    0.0002 N.1     1  LIG1       -0.1908
      8 C           2.3515    0.8179    0.0001 C.1     1  LIG1        0.1026
      9 C           3.2001    3.6568    0.0000 C.3     1  LIG1       -0.0349
     10 H           3.2528    4.5990    0.5044 H       1  LIG1        0.0279
     11 H           3.5373    3.7730   -1.0088 H       1  LIG1        0.0279
     12 H           3.8217    2.9468    0.5044 H       1  LIG1        0.0279
     13 C           0.3914    5.9552    1.2138 C.ar    1  LIG1        0.2261
     14 C           0.5416    5.2601   -0.0001 C.ar    1  LIG1        0.0807
     15 C           0.3892    5.9652   -1.1954 C.ar    1  LIG1       -0.0231
     16 C           0.0944    7.3284   -1.1385 C.ar    1  LIG1        0.0519
     17 C          -0.0369    7.9350    0.1243 C.ar    1  LIG1        0.0972
     18 N           0.1071    7.2700    1.2872 N.ar    1  LIG1       -0.2104
     19 H           0.4983    5.4557   -2.1633 H       1  LIG1        0.0645
     20 O           0.5240    5.3422    2.3526 O.3     1  LIG1       -0.4792
     21 C          -0.7449    4.8322    2.7707 C.3     1  LIG1        0.0804
     22 H          -0.6353    4.3276    3.7079 H       1  LIG1        0.0660
     23 H          -1.4362    5.6416    2.8801 H       1  LIG1        0.0660
     24 H          -1.1127    4.1457    2.0370 H       1  LIG1        0.0660
     25 N          -0.0572    8.0291   -2.2230 N.pl3   1  LIG1       -0.3563
     26 H           0.7851    7.9971   -2.7610 H       1  LIG1        0.1424
     27 H          -0.8109    7.6516   -2.7610 H       1  LIG1        0.1424
     28 C           0.6573   10.1614   -0.1305 C.ar    1  LIG1        0.0345
     29 C           0.3125   11.5204    0.0026 C.ar    1  LIG1       -0.0315
     30 C          -0.3107    9.2014    0.2290 C.ar    1  LIG1        0.0241
     31 C          -0.9404   11.9086    0.4720 C.ar    1  LIG1       -0.0004
     32 H           1.0446   12.2776   -0.2689 H       1  LIG1        0.0643
     33 C          -1.5616    9.5884    0.6976 C.ar    1  LIG1       -0.0347
     34 C          -1.8853   10.9435    0.8223 C.ar    1  LIG1        0.0331
     35 H          -2.2908    8.8292    0.9684 H       1  LIG1        0.0637
     36 N           1.8417    9.8611   -0.5743 N.pl3   1  LIG1       -0.3574
     37 H           1.7887    9.0322   -1.1312 H       1  LIG1        0.1423
     38 H           2.1901   10.6151   -1.1312 H       1  LIG1        0.1423
     39 C          -3.0562   11.2993    1.2611 C.1     1  LIG1       -0.0690
     40 C          -4.1380   11.6281    1.6666 C.1     1  LIG1       -0.1139
     41 H          -5.1017   11.9209    2.0278 H       1  LIG1        0.1232
     42 C          -0.3574   14.1383    0.0334 C.ar    1  LIG1       -0.0425
     43 C          -0.7098   15.4938    0.1808 C.ar    1  LIG1       -0.0548
     44 C          -1.2252   13.1721    0.5822 C.ar    1  LIG1       -0.0103
     45 C          -1.8746   15.8729    0.8442 C.ar    1  LIG1       -0.0197
     46 H          -0.0542   16.2557   -0.2350 H       1  LIG1        0.0622
     47 C          -2.3881   13.5500    1.2447 C.ar    1  LIG1       -0.0120
     48 C          -2.7211   14.9017    1.3804 C.ar    1  LIG1        0.1207
     49 H          -3.0410   12.7861    1.6592 H       1  LIG1        0.0660
     50 H          -2.1693   17.1336    0.9619 H       1  LIG1        0.0654
     51 C           0.7423   13.8465   -0.5962 C.3     1  LIG1       -0.0391
     52 H           1.5041   14.5483   -0.3275 H       1  LIG1        0.0278
     53 H           0.5719   13.8918   -1.6516 H       1  LIG1        0.0278
     54 H           1.0559   12.8594   -0.3275 H       1  LIG1        0.0278
     55 O          -3.8095   15.2490    2.0008 O.3     1  LIG1       -0.4951
     56 C          -3.7994   16.6607    2.2285 C.3     1  LIG1        0.0788
     57 H          -4.6954   16.9461    2.7390 H       1  LIG1        0.0660
     58 H          -2.9505   16.9195    2.8263 H       1  LIG1        0.0660
     59 H          -3.7447   17.1729    1.2907 H       1  LIG1        0.0660
@<TRIPOS>BOND
     1    27    25    1
     2    26    25    1
     3    25    16    1
     4    19    15    1
     5    53    51    1
     6    15    16   ar
     7    15    14   ar
     8    16    17   ar
     9    38    36    1
    10    37    36    1
    11    11     9    1
    12    51    54    1
    13    51    52    1
    14    51    42    1
    15    36    28    1
    16    32    29    1
    17    46    43    1
    18    28    29   ar
    19    28    30   ar
    20     5     4   ar
    21     5     1   ar
    22    14     4    1
    23    14    13   ar
    24     4     3   ar
    25     1     6    1
    26     1     2   ar
    27     9     3    1
    28     9    12    1
    29     9    10    1
    30     3     2   ar
    31     2     8    1
    32     8     7    3
    33    29    31   ar
    34    42    43   ar
    35    42    44   ar
    36    17    30    1
    37    17    18   ar
    38    43    45   ar
    39    30    33   ar
    40    31    44    1
    41    31    34   ar
    42    44    47   ar
    43    33    34   ar
    44    33    35    1
    45    34    39    1
    46    45    50    1
    47    45    48   ar
    48    13    18   ar
    49    13    20    1
    50    47    48   ar
    51    47    49    1
    52    39    40    3
    53    59    56    1
    54    48    55    1
    55    40    41    1
    56    55    56    1
    57    24    21    1
    58    56    57    1
    59    56    58    1
    60    20    21    1
    61    21    23    1
    62    21    22    1
