@<TRIPOS>MOLECULE
mol_data/noopt/geoms/mol2/12di13fa13lh13eh-.out
 48 50 0 0 0
SMALL
GASTEIGER

@<TRIPOS>ATOM
      1 C           0.1763    1.8460    0.0000 C.ar    1  LIG1        0.1102
      2 C           1.5558    1.8460    0.0000 C.ar    1  LIG1        0.0929
      3 C           1.9706    3.2334    0.0000 C.ar    1  LIG1        0.0142
      4 C           0.8165    3.9895   -0.0001 C.ar    1  LIG1        0.1586
      5 O          -0.3030    3.1567   -0.0002 O.2     1  LIG1       -0.4598
      6 H          -0.7504    0.9343    0.0000 H       1  LIG1        0.1043
      7 N           3.0533   -0.0888    0.0002 N.1     1  LIG1       -0.1908
      8 C           2.3515    0.8179    0.0001 C.1     1  LIG1        0.1026
      9 C           3.2001    3.6568    0.0000 C.3     1  LIG1       -0.0348
     10 H           3.2528    4.5990    0.5044 H       1  LIG1        0.0279
     11 H           3.5373    3.7730   -1.0088 H       1  LIG1        0.0279
     12 H           3.8217    2.9468    0.5044 H       1  LIG1        0.0279
     13 C           0.5416    5.2601   -0.0001 C.ar    1  LIG1        0.1254
     14 C           1.3660    6.3408    0.0161 C.ar    1  LIG1        0.1536
     15 C           0.5390    7.5098    0.0084 C.ar    1  LIG1        0.0567
     16 C          -0.7545    7.0921   -0.0139 C.ar    1  LIG1        0.0788
     17 N          -0.7574    5.7154   -0.0188 N.ar    1  LIG1       -0.3471
     18 H          -1.5687    5.1413   -0.0340 H       1  LIG1        0.1662
     19 O           2.6657    6.3141    0.0365 O.3     1  LIG1       -0.5039
     20 H           3.0046    7.2122    0.0416 H       1  LIG1        0.2923
     21 H           0.9462    8.7444    0.0202 H       1  LIG1        0.0194
     22 C          -1.8611    7.7741   -0.0284 C.ar    1  LIG1        0.1133
     23 C          -2.0691    9.1175   -0.0386 C.ar    1  LIG1        0.2266
     24 C          -3.4850    9.3309   -0.0520 C.ar    1  LIG1        0.0997
     25 C          -4.0800    8.1086   -0.0512 C.ar    1  LIG1        0.0894
     26 N          -3.0894    7.1527   -0.0363 N.ar    1  LIG1       -0.3473
     27 H          -3.2377    6.1698   -0.0325 H       1  LIG1        0.1662
     28 O          -1.1493   10.0362   -0.0352 O.3     1  LIG1       -0.2836
     29 C           0.1410    9.4198   -0.0340 C.3     2  LIG2       -0.0776
     30 H           0.8978   10.1763   -0.0313 H       1  LIG1        0.0194
     31 H           0.2439    8.8093    0.8388 H       1  LIG1        0.0194
     32 H           0.2470    8.8124   -0.9085 H       1  LIG1        0.0194
     33 N          -4.0930   10.4799   -0.0634 N.pl3   1  LIG1       -0.3533
     34 H          -3.5253   11.1528   -0.5377 H       1  LIG1        0.1425
     35 H          -4.9686   10.3890   -0.5377 H       1  LIG1        0.1425
     36 C          -5.3386    7.7831   -0.0607 C.ar    1  LIG1        0.0822
     37 C          -6.4514    8.5637   -0.0675 C.ar    1  LIG1        0.0720
     38 C          -7.5863    7.6905   -0.0758 C.ar    1  LIG1        0.0584
     39 C          -7.1171    6.4146   -0.0755 C.ar    1  LIG1        0.0243
     40 N          -5.7414    6.4667   -0.0658 N.ar    1  LIG1       -0.3569
     41 H          -5.1353    5.6789   -0.0635 H       1  LIG1        0.1655
     42 H          -7.7542    5.2815   -0.0815 H       1  LIG1        0.0826
     43 C          -6.4768    9.8635   -0.0652 C.1     1  LIG1       -0.0656
     44 C          -6.5002   11.0644   -0.0631 C.1     1  LIG1       -0.1138
     45 H          -6.5210   12.1342   -0.0612 H       1  LIG1        0.1232
     46 N          -8.8362    8.0480   -0.0829 N.pl3   1  LIG1       -0.3559
     47 H          -8.9296    8.9240   -0.5561 H       1  LIG1        0.1424
     48 H          -9.3788    7.3540   -0.5561 H       1  LIG1        0.1424
@<TRIPOS>BOND
     1    11     9    1
     2    32    29    1
     3    48    46    1
     4    47    46    1
     5    35    33    1
     6    34    33    1
     7    46    38    1
     8    42    39    1
     9    38    39   ar
    10    38    37   ar
    11    39    40   ar
    12    37    43    1
    13    37    36   ar
    14    40    41    1
    15    40    36   ar
    16    43    44    3
    17    33    24    1
    18    44    45    1
    19    36    25    1
    20    24    25   ar
    21    24    23   ar
    22    25    26   ar
    23    23    28    1
    24    23    22   ar
    25    26    27    1
    26    26    22   ar
    27    29    30    1
    28    29    21    1
    29    29    31    1
    30    18    17    1
    31    22    16    1
    32    17    16   ar
    33    17    13   ar
    34    16    15   ar
    35     5     4   ar
    36     5     1   ar
    37    13     4    1
    38    13    14   ar
    39     4     3   ar
    40     6     1    1
    41     3     9    1
    42     3     2   ar
    43     9    12    1
    44     9    10    1
    45     2     1   ar
    46     2     8    1
    47     8     7    3
    48    15    14   ar
    49    14    19    1
    50    19    20    1
