@<TRIPOS>MOLECULE
mol_data/noopt/geoms/mol2/12di12ah-6he6hd-12fa-12fl-13da4ed.out
 89 96 0 0 0
SMALL
GASTEIGER

@<TRIPOS>ATOM
      1 C           0.1763    1.8460    0.0000 C.ar    1  LIG1        0.1103
      2 C           1.5558    1.8460    0.0000 C.ar    1  LIG1        0.0930
      3 C           1.9706    3.2334    0.0000 C.ar    1  LIG1        0.0157
      4 C           0.8165    3.9895   -0.0001 C.ar    1  LIG1        0.1739
      5 O          -0.3030    3.1567   -0.0002 O.2     1  LIG1       -0.4582
      6 H          -0.7504    0.9343    0.0000 H       1  LIG1        0.1043
      7 N           3.0533   -0.0888    0.0002 N.1     1  LIG1       -0.1908
      8 C           2.3515    0.8179    0.0001 C.1     1  LIG1        0.1026
      9 C           3.2001    3.6568    0.0000 C.3     1  LIG1       -0.0348
     10 H           3.2528    4.5990    0.5044 H       1  LIG1        0.0279
     11 H           3.5373    3.7730   -1.0088 H       1  LIG1        0.0279
     12 H           3.8217    2.9468    0.5044 H       1  LIG1        0.0279
     13 C           0.5416    5.2601   -0.0001 C.ar    1  LIG1        0.1727
     14 C           1.2792    6.4258   -0.0001 C.ar    1  LIG1        0.0086
     15 C           0.3286    7.5182   -0.0001 C.ar    1  LIG1        0.0718
     16 C          -0.9274    6.9472   -0.0002 C.ar    1  LIG1        0.1597
     17 O          -0.8223    5.5559   -0.0003 O.2     1  LIG1       -0.4497
     18 H           2.5734    6.5485   -0.0000 H       1  LIG1        0.0675
     19 N           0.6282    8.7832   -0.0001 N.pl3   1  LIG1       -0.3550
     20 H           1.4995    8.9194   -0.4715 H       1  LIG1        0.1424
     21 H          -0.0895    9.2957   -0.4715 H       1  LIG1        0.1424
     22 C          -3.2334    6.4990   -0.0000 C.ar    1  LIG1        0.1277
     23 C          -2.1481    7.3943   -0.0002 C.ar    1  LIG1        0.0598
     24 C          -2.4144    8.7648   -0.0000 C.ar    1  LIG1       -0.0302
     25 C          -3.7436    9.1911    0.0001 C.ar    1  LIG1        0.0515
     26 C          -4.7606    8.2188    0.0000 C.ar    1  LIG1        0.0918
     27 N          -4.5217    6.8928    0.0001 N.ar    1  LIG1       -0.2304
     28 H          -1.5923    9.4945   -0.0012 H       1  LIG1        0.0639
     29 N          -3.0362    5.2141   -0.0001 N.pl3   1  LIG1       -0.3426
     30 H          -3.7927    4.7608   -0.4715 H       1  LIG1        0.1437
     31 H          -2.1786    5.0085   -0.4715 H       1  LIG1        0.1437
     32 C          -4.0438   10.4559    0.0001 C.1     1  LIG1       -0.0675
     33 C          -4.3211   11.6247    0.0000 C.1     1  LIG1       -0.1138
     34 H          -4.5681   12.6658   -0.0000 H       1  LIG1        0.1232
     35 C          -7.0229    7.5865   -0.0207 C.ar    1  LIG1        0.1263
     36 C          -6.0134    8.5661    0.0002 C.ar    1  LIG1        0.0424
     37 C          -6.3892    9.9105    0.0213 C.ar    1  LIG1       -0.0296
     38 C          -7.7485   10.2283    0.0207 C.ar    1  LIG1        0.0816
     39 C          -8.6838    9.1775   -0.0013 C.ar    1  LIG1        0.1290
     40 N          -8.3388    7.8752   -0.0216 N.ar    1  LIG1       -0.2273
     41 H          -5.6286   10.7039    0.0370 H       1  LIG1        0.0639
     42 N          -6.7228    6.3217   -0.0407 N.pl3   1  LIG1       -0.3426
     43 H          -7.4420    5.8160   -0.5171 H       1  LIG1        0.1437
     44 H          -5.8532    6.1930   -0.5172 H       1  LIG1        0.1437
     45 N          -8.5033   12.5553    0.0564 N.1     1  LIG1       -0.1908
     46 C          -8.1496   11.4647    0.0397 C.1     1  LIG1        0.1014
     47 C          -9.9604    9.4228   -0.0027 C.ar    1  LIG1        0.1964
     48 C         -10.7436   10.5583    0.0110 C.ar    1  LIG1        0.1649
     49 C         -12.1212   10.1122   -0.0011 C.ar    1  LIG1        0.0297
     50 C         -12.0884    8.7331   -0.0215 C.ar    1  LIG1        0.1781
     51 O         -10.7673    8.2843   -0.0230 O.2     1  LIG1       -0.4462
     52 O         -10.3490   11.7969    0.0310 O.3     1  LIG1       -0.5031
     53 H         -11.1140   12.3768    0.0359 H       1  LIG1        0.2923
     54 H         -13.1675   10.8837    0.0062 H       1  LIG1        0.0693
     55 C         -12.9783    7.7855   -0.0390 C.ar    1  LIG1        0.2157
     56 C         -14.3567    7.7311   -0.0523 C.ar    1  LIG1        0.2092
     57 C         -14.7162    6.3285   -0.0694 C.ar    1  LIG1        0.2099
     58 C         -13.5332    5.6186   -0.0656 C.ar    1  LIG1        0.1984
     59 O         -12.4476    6.4948   -0.0470 O.2     1  LIG1       -0.4426
     60 O         -15.1924    8.7270   -0.0501 O.3     1  LIG1       -0.5007
     61 H         -16.0915    8.3907   -0.0496 H       1  LIG1        0.2924
     62 O         -15.9277    5.8570   -0.0853 O.3     1  LIG1       -0.4884
     63 C         -16.8613    6.9402   -0.0912 C.3     1  LIG1        0.0791
     64 H         -17.8582    6.5517   -0.1044 H       1  LIG1        0.0660
     65 H         -16.7222    7.5358    0.7869 H       1  LIG1        0.0660
     66 H         -16.7021    7.5436   -0.9603 H       1  LIG1        0.0660
     67 C         -13.2083    4.3598   -0.0750 C.ar    1  LIG1        0.1039
     68 C         -13.9895    3.2474   -0.0817 C.ar    1  LIG1        0.0807
     69 C         -13.1168    2.1120   -0.0899 C.ar    1  LIG1       -0.0182
     70 C         -11.8407    2.5807   -0.0896 C.ar    1  LIG1        0.0495
     71 N         -11.8921    3.9563   -0.0800 N.ar    1  LIG1       -0.3506
     72 H         -11.1040    4.5621   -0.0777 H       1  LIG1        0.1660
     73 N         -16.4356    3.2009   -0.0775 N.1     1  LIG1       -0.1908
     74 C         -15.2892    3.2227   -0.0795 C.1     1  LIG1        0.1014
     75 H         -13.4749    0.8623   -0.0969 H       1  LIG1        0.0652
     76 C         -10.6954    0.5331   -0.0980 C.ar    1  LIG1        0.0338
     77 C          -9.4428   -0.1105   -0.1030 C.ar    1  LIG1       -0.0445
     78 C         -10.7079    1.9430   -0.0956 C.ar    1  LIG1        0.0149
     79 C          -8.2539    0.6156   -0.1059 C.ar    1  LIG1       -0.0432
     80 H          -9.4103   -1.1977   -0.1047 H       1  LIG1        0.0630
     81 C          -9.5213    2.6683   -0.0985 C.ar    1  LIG1       -0.0341
     82 C          -8.2868    2.0106   -0.1038 C.ar    1  LIG1        0.0525
     83 H          -9.5572    3.7547   -0.0965 H       1  LIG1        0.0637
     84 H          -7.1149   -0.0111   -0.1106 H       1  LIG1        0.0631
     85 C         -11.7702   -0.1982   -0.0957 C.1     1  LIG1       -0.0690
     86 C         -12.7633   -0.8740   -0.0935 C.1     1  LIG1       -0.1139
     87 H         -13.6479   -1.4759   -0.0916 H       1  LIG1        0.1232
     88 N          -6.2054    3.2965   -0.1087 N.1     1  LIG1       -0.1909
     89 C          -7.1808    2.6938   -0.1064 C.1     1  LIG1        0.0992
@<TRIPOS>BOND
     1    11     9    1
     2    66    63    1
     3    44    42    1
     4    43    42    1
     5    21    19    1
     6    31    29    1
     7    20    19    1
     8    30    29    1
     9    84    79    1
    10    88    89    3
    11    89    82    1
    12    79    82   ar
    13    79    77   ar
    14    80    77    1
    15    64    63    1
    16    82    81   ar
    17    77    76   ar
    18    81    83    1
    19    81    78   ar
    20    76    85    1
    21    76    78   ar
    22    75    69    1
    23    85    86    3
    24    78    70    1
    25    86    87    1
    26    63    62    1
    27    63    65    1
    28    69    70   ar
    29    69    68   ar
    30    70    71   ar
    31    62    57    1
    32    68    74    1
    33    68    67   ar
    34    71    72    1
    35    71    67   ar
    36    74    73    3
    37    67    58    1
    38    57    58   ar
    39    57    56   ar
    40    58    59   ar
    41    56    60    1
    42    56    55   ar
    43    60    61    1
    44    59    55   ar
    45    42    35    1
    46    55    50    1
    47    51    50   ar
    48    51    47   ar
    49    40    35   ar
    50    40    39   ar
    51    50    49   ar
    52    35    36   ar
    53    47    39    1
    54    47    48   ar
    55    39    38   ar
    56    28    24    1
    57    49    54    1
    58    49    48   ar
    59    17    16   ar
    60    17    13   ar
    61    23    16    1
    62    23    22   ar
    63    23    24   ar
    64    16    15   ar
    65     5     4   ar
    66     5     1   ar
    67    19    15    1
    68     4    13    1
    69     4     3   ar
    70    13    14   ar
    71    14    15   ar
    72    14    18    1
    73    29    22    1
    74    22    27   ar
    75    24    25   ar
    76    34    33    1
    77     1     2   ar
    78     1     6    1
    79     2     3   ar
    80     2     8    1
    81     3     9    1
    82     9    12    1
    83     9    10    1
    84    33    32    3
    85    26    27   ar
    86    26    25   ar
    87    26    36    1
    88    32    25    1
    89     8     7    3
    90    36    37   ar
    91    48    52    1
    92    38    37   ar
    93    38    46    1
    94    37    41    1
    95    52    53    1
    96    46    45    3
