@<TRIPOS>MOLECULE
mol_data/noopt/geoms/mol2/12di6ia-12df-6hf.out
 46 49 0 0 0
SMALL
GASTEIGER

@<TRIPOS>ATOM
      1 C           0.1763    1.8460    0.0000 C.ar    1  LIG1        0.1102
      2 C           1.5558    1.8460    0.0000 C.ar    1  LIG1        0.0929
      3 C           1.9706    3.2334    0.0000 C.ar    1  LIG1        0.0127
      4 C           0.8165    3.9895   -0.0001 C.ar    1  LIG1        0.1407
      5 O          -0.3030    3.1567   -0.0002 O.2     1  LIG1       -0.4613
      6 H          -0.7504    0.9343    0.0000 H       1  LIG1        0.1043
      7 N           3.0533   -0.0888    0.0002 N.1     1  LIG1       -0.1908
      8 C           2.3515    0.8179    0.0001 C.1     1  LIG1        0.1026
      9 C           3.2001    3.6568    0.0000 C.3     1  LIG1       -0.0349
     10 H           3.2528    4.5990    0.5044 H       1  LIG1        0.0279
     11 H           3.5373    3.7730   -1.0088 H       1  LIG1        0.0279
     12 H           3.8217    2.9468    0.5044 H       1  LIG1        0.0279
     13 C          -0.7951    5.6985   -0.0211 C.ar    1  LIG1        0.0497
     14 C           0.5416    5.2601   -0.0001 C.ar    1  LIG1        0.0386
     15 C           1.5571    6.2179    0.0209 C.ar    1  LIG1       -0.0472
     16 C           1.2066    7.5691    0.0200 C.ar    1  LIG1       -0.0319
     17 C          -0.1586    7.9086   -0.0020 C.ar    1  LIG1        0.1077
     18 N          -1.1512    6.9977   -0.0223 N.ar    1  LIG1       -0.2480
     19 H           2.6132    5.9133    0.0367 H       1  LIG1        0.0626
     20 C          -1.7755    4.8446   -0.0410 C.3     1  LIG1       -0.0216
     21 H          -1.4765    3.9465    0.4579 H       1  LIG1        0.0293
     22 H          -2.0328    4.6205   -1.0552 H       1  LIG1        0.0293
     23 H          -2.6241    5.2642    0.4578 H       1  LIG1        0.0293
     24 H           2.1148    8.4990    0.0389 H       1  LIG1        0.0640
     25 C          -0.5350    9.1529   -0.0037 C.ar    1  LIG1        0.1748
     26 C           0.1064   10.3743   -0.0049 C.ar    1  LIG1        0.1409
     27 C          -0.9291   11.3866   -0.0065 C.ar    1  LIG1        0.1812
     28 C          -2.1351   10.7163   -0.0062 C.ar    1  LIG1        0.1817
     29 O          -1.9182    9.3380   -0.0046 O.2     1  LIG1       -0.4480
     30 N           2.5156   10.8005   -0.0043 N.1     1  LIG1       -0.1906
     31 C           1.3865   10.6008   -0.0046 C.1     1  LIG1        0.1067
     32 O          -0.7324   12.6716   -0.0080 O.3     1  LIG1       -0.5023
     33 H          -1.5785   13.1253   -0.0083 H       1  LIG1        0.2923
     34 C          -4.3975   10.0838   -0.0074 C.ar    1  LIG1        0.1272
     35 C          -3.3878   11.0636   -0.0071 C.ar    1  LIG1        0.0639
     36 C          -3.7636   12.4082   -0.0074 C.ar    1  LIG1       -0.0046
     37 C          -5.1229   12.7260   -0.0082 C.ar    1  LIG1        0.1357
     38 C          -6.0583   11.6750   -0.0087 C.ar    1  LIG1        0.0711
     39 N          -5.7133   10.3726   -0.0082 N.ar    1  LIG1       -0.2364
     40 H          -3.0030   13.2017   -0.0082 H       1  LIG1        0.0663
     41 H          -7.3349   11.9203   -0.0094 H       1  LIG1        0.0867
     42 N          -4.0974    8.8189   -0.0070 N.pl3   1  LIG1       -0.3426
     43 H          -4.8149    8.3060   -0.4783 H       1  LIG1        0.1437
     44 H          -3.2260    8.6829   -0.4784 H       1  LIG1        0.1437
     45 O          -5.5239   13.9626   -0.0087 O.3     1  LIG1       -0.5052
     46 H          -6.4836   13.9882   -0.0089 H       1  LIG1        0.2922
@<TRIPOS>BOND
     1    22    20    1
     2    11     9    1
     3    44    42    1
     4    43    42    1
     5    20    13    1
     6    20    23    1
     7    20    21    1
     8    18    13   ar
     9    18    17   ar
    10    13    14   ar
    11    41    38    1
    12    46    45    1
    13    45    37    1
    14    38    37   ar
    15    38    39   ar
    16    33    32    1
    17    37    36   ar
    18    39    34   ar
    19    40    36    1
    20    32    27    1
    21    36    35   ar
    22    34    35   ar
    23    34    42    1
    24    35    28    1
    25    27    28   ar
    26    27    26   ar
    27    28    29   ar
    28    26    31    1
    29    26    25   ar
    30    31    30    3
    31    29    25   ar
    32    25    17    1
    33    17    16   ar
    34     5     4   ar
    35     5     1   ar
    36    14     4    1
    37    14    15   ar
    38     4     3   ar
    39     1     6    1
    40     1     2   ar
    41     9     3    1
    42     9    12    1
    43     9    10    1
    44     3     2   ar
    45     2     8    1
    46     8     7    3
    47    16    15   ar
    48    16    24    1
    49    15    19    1
