@<TRIPOS>MOLECULE
mol_data/noopt/geoms/mol2/12dl12ai-6fa-12lf.out
 46 47 0 0 0
SMALL
GASTEIGER

@<TRIPOS>ATOM
      1 C           0.1763    1.8460    0.0000 C.ar    1  LIG1        0.1137
      2 C           1.5558    1.8460    0.0000 C.ar    1  LIG1        0.1316
      3 C           1.9706    3.2334    0.0000 C.ar    1  LIG1        0.1830
      4 C           0.8165    3.9895   -0.0001 C.ar    1  LIG1        0.1782
      5 O          -0.3030    3.1567   -0.0002 O.2     1  LIG1       -0.4578
      6 H          -0.7504    0.9343    0.0000 H       1  LIG1        0.1044
      7 N           3.0533   -0.0888    0.0002 N.1     1  LIG1       -0.1906
      8 C           2.3515    0.8179    0.0001 C.1     1  LIG1        0.1060
      9 O           3.1998    3.6567   -0.0000 O.3     1  LIG1       -0.4901
     10 C           4.0900    2.5376   -0.0001 C.3     1  LIG1        0.0790
     11 H           5.1015    2.8864   -0.0002 H       1  LIG1        0.0660
     12 H           3.9174    1.9445    0.8737 H       1  LIG1        0.0660
     13 H           3.9171    1.9444   -0.8736 H       1  LIG1        0.0660
     14 C           0.5416    5.2601   -0.0001 C.2     1  LIG1        0.0321
     15 C           1.2792    6.4258   -0.0001 C.2     1  LIG1       -0.0437
     16 C           0.3286    7.5182   -0.0001 C.2     1  LIG1       -0.0023
     17 C          -0.9274    6.9472   -0.0002 C.2     1  LIG1        0.1941
     18 O          -0.8223    5.5559   -0.0003 O.2     1  LIG1       -0.2868
     19 H           2.5734    6.5485   -0.0000 H       1  LIG1        0.0629
     20 C           0.6283    8.7835   -0.0001 C.3     1  LIG1       -0.0360
     21 H          -0.1397    9.3319    0.5043 H       1  LIG1        0.0279
     22 H           0.7104    9.1306   -1.0089 H       1  LIG1        0.0279
     23 H           1.5606    8.9292    0.5043 H       1  LIG1        0.0279
     24 C          -3.2333    6.4992   -0.0212 C.ar    1  LIG1        0.2241
     25 C          -2.1481    7.3943   -0.0002 C.ar    1  LIG1        0.0838
     26 C          -2.4144    8.7646    0.0208 C.ar    1  LIG1       -0.0359
     27 C          -3.7437    9.1909    0.0199 C.ar    1  LIG1        0.0143
     28 C          -4.7606    8.2188   -0.0021 C.ar    1  LIG1        0.1215
     29 N          -4.5216    6.8930   -0.0224 N.ar    1  LIG1       -0.2086
     30 H          -1.5924    9.4942    0.0366 H       1  LIG1        0.0633
     31 O          -3.0360    5.2144   -0.0411 O.3     1  LIG1       -0.4919
     32 H          -2.0929    5.0350   -0.0460 H       1  LIG1        0.2938
     33 H          -4.0439   10.4556    0.0388 H       1  LIG1        0.0194
     34 C          -6.0133    8.5662   -0.0038 C.ar    1  LIG1        0.2038
     35 C          -6.7025    9.7612   -0.0050 C.ar    1  LIG1        0.2670
     36 C          -8.1116    9.4274   -0.0066 C.ar    1  LIG1        0.2030
     37 C          -8.1900    8.0500   -0.0063 C.ar    1  LIG1        0.1380
     38 O          -6.9093    7.4962   -0.0047 O.2     1  LIG1       -0.4536
     39 H          -9.1534    7.1771   -0.0072 H       1  LIG1        0.1069
     40 O          -6.2093   10.9641   -0.0047 O.3     1  LIG1       -0.2799
     41 C          -4.7810   10.8944   -0.0047 C.3     2  LIG2       -0.0776
     42 H          -4.3756   11.8846   -0.0046 H       1  LIG1        0.0194
     43 H          -4.4494   10.3731    0.8690 H       1  LIG1        0.0194
     44 H          -4.4493   10.3732   -0.8783 H       1  LIG1        0.0194
     45 O          -9.0923   10.2808   -0.0080 O.3     1  LIG1       -0.5011
     46 H          -9.9281    9.8084   -0.0084 H       1  LIG1        0.2924
@<TRIPOS>BOND
     1    22    20    1
     2    44    41    1
     3    13    10    1
     4    32    31    1
     5    31    24    1
     6    29    24   ar
     7    29    28   ar
     8    24    25   ar
     9    46    45    1
    10    45    36    1
    11    39    37    1
    12    36    37   ar
    13    36    35   ar
    14    37    38   ar
    15    35    40    1
    16    35    34   ar
    17    38    34   ar
    18    41    42    1
    19    41    33    1
    20    41    43    1
    21    34    28    1
    22    28    27   ar
    23    18    17    1
    24    11    10    1
    25    17    25    1
    26    17    16    2
    27    25    26   ar
    28     5     4   ar
    29     5     1   ar
    30    20    16    1
    31    20    23    1
    32    20    21    1
    33    16    15    1
    34    15    14    2
    35    15    19    1
    36    14     4    1
    37     4     3   ar
    38    10     9    1
    39    10    12    1
    40     2     1   ar
    41     2     3   ar
    42     2     8    1
    43     9     3    1
    44     1     6    1
    45     8     7    3
    46    27    26   ar
    47    26    30    1
