@<TRIPOS>MOLECULE
mol_data/noopt/geoms/mol2/12dl12dl-4af-13hh.out
 49 52 0 0 0
SMALL
GASTEIGER

@<TRIPOS>ATOM
      1 C           0.1763    1.8460    0.0000 C.ar    1  LIG1        0.1138
      2 C           1.5558    1.8460    0.0000 C.ar    1  LIG1        0.1317
      3 C           1.9706    3.2334    0.0000 C.ar    1  LIG1        0.1862
      4 C           0.8165    3.9895   -0.0001 C.ar    1  LIG1        0.2137
      5 O          -0.3030    3.1567   -0.0002 O.2     1  LIG1       -0.4546
      6 H          -0.7504    0.9343    0.0000 H       1  LIG1        0.1044
      7 N           3.0533   -0.0888    0.0002 N.1     1  LIG1       -0.1906
      8 C           2.3515    0.8179    0.0001 C.1     1  LIG1        0.1060
      9 O           3.1998    3.6567   -0.0000 O.3     1  LIG1       -0.4900
     10 C           4.0900    2.5376   -0.0001 C.3     1  LIG1        0.0790
     11 H           5.1015    2.8864   -0.0002 H       1  LIG1        0.0660
     12 H           3.9174    1.9445    0.8737 H       1  LIG1        0.0660
     13 H           3.9171    1.9444   -0.8736 H       1  LIG1        0.0660
     14 C           0.5416    5.2601   -0.0001 C.ar    1  LIG1        0.1953
     15 C           1.2792    6.4258   -0.0001 C.ar    1  LIG1        0.1428
     16 C           0.3286    7.5182   -0.0001 C.ar    1  LIG1        0.1838
     17 C          -0.9274    6.9472   -0.0002 C.ar    1  LIG1        0.1787
     18 O          -0.8223    5.5559   -0.0003 O.2     1  LIG1       -0.4465
     19 N           3.7149    6.6566    0.0001 N.1     1  LIG1       -0.1906
     20 C           2.5734    6.5485   -0.0000 C.1     1  LIG1        0.1068
     21 O           0.6282    8.7833   -0.0001 O.3     1  LIG1       -0.4901
     22 C           2.0499    8.9371   -0.0002 C.3     1  LIG1        0.0790
     23 H           2.2960    9.9784   -0.0003 H       1  LIG1        0.0660
     24 H           2.4588    8.4741    0.8736 H       1  LIG1        0.0660
     25 H           2.4588    8.4738   -0.8737 H       1  LIG1        0.0660
     26 C          -2.3873    8.7836    0.0219 C.ar    1  LIG1       -0.0501
     27 C          -3.7272    9.2172    0.0225 C.ar    1  LIG1       -0.0484
     28 C          -2.1480    7.3943   -0.0002 C.ar    1  LIG1        0.0245
     29 C          -4.7837    8.3095    0.0014 C.ar    1  LIG1        0.0416
     30 H          -3.9343   10.2849    0.0395 H       1  LIG1        0.0625
     31 C          -3.2024    6.4877   -0.0213 C.ar    1  LIG1       -0.0087
     32 C          -4.5267    6.9382   -0.0207 C.ar    1  LIG1        0.1267
     33 H          -2.9921    5.4214   -0.0380 H       1  LIG1        0.0661
     34 H          -1.4443    9.6782    0.0419 H       1  LIG1        0.0625
     35 O          -5.5083    6.0860   -0.0403 O.3     1  LIG1       -0.5061
     36 H          -5.1569    5.1926   -0.0451 H       1  LIG1        0.2922
     37 C          -6.0087    8.7448    0.0025 C.ar    1  LIG1        0.0728
     38 C          -6.4934   10.0148    0.0028 C.ar    1  LIG1        0.0712
     39 C          -7.9227    9.9271    0.0052 C.ar    1  LIG1        0.0637
     40 C          -8.2486    8.6073    0.0045 C.ar    1  LIG1        0.0249
     41 N          -7.0797    7.8799    0.0032 N.ar    1  LIG1       -0.3575
     42 H          -7.0188    6.8878    0.0024 H       1  LIG1        0.1654
     43 H          -9.4111    8.0254    0.0058 H       1  LIG1        0.0826
     44 N          -5.7864   11.1058    0.0027 N.pl3   1  LIG1       -0.3549
     45 H          -4.9200   10.9413   -0.4688 H       1  LIG1        0.1424
     46 H          -6.2903   11.8295   -0.4688 H       1  LIG1        0.1424
     47 N          -8.7579   10.9233    0.0073 N.pl3   1  LIG1       -0.3554
     48 H          -8.3468   11.7039   -0.4636 H       1  LIG1        0.1424
     49 H          -9.5982   10.6548   -0.4636 H       1  LIG1        0.1424
@<TRIPOS>BOND
     1    25    22    1
     2    13    10    1
     3    46    44    1
     4    45    44    1
     5    49    47    1
     6    48    47    1
     7    36    35    1
     8    35    32    1
     9    33    31    1
    10    31    32   ar
    11    31    28   ar
    12    32    29   ar
    13    23    22    1
    14    18    17   ar
    15    18    14   ar
    16    11    10    1
    17    17    28    1
    18    17    16   ar
    19    28    26   ar
    20     5     4   ar
    21     5     1   ar
    22    22    21    1
    23    22    24    1
    24    16    15   ar
    25    16    21    1
    26    15    14   ar
    27    15    20    1
    28    14     4    1
    29     4     3   ar
    30    10     9    1
    31    10    12    1
    32     1     2   ar
    33     1     6    1
    34     3     2   ar
    35     3     9    1
    36     2     8    1
    37    20    19    3
    38     8     7    3
    39    29    37    1
    40    29    27   ar
    41    42    41    1
    42    37    38   ar
    43    37    41   ar
    44    44    38    1
    45    38    39   ar
    46    41    40   ar
    47    40    39   ar
    48    40    43    1
    49    39    47    1
    50    26    27   ar
    51    26    34    1
    52    27    30    1
