@<TRIPOS>MOLECULE
mol_data/noopt/geoms/mol2/12dl6ha(170)4hh(330)4he(320).out
 53 56 0 0 0
SMALL
GASTEIGER

@<TRIPOS>ATOM
      1 C           0.1763    1.8460    0.0000 C.ar    1  LIG1        0.1137
      2 C           1.5558    1.8460    0.0000 C.ar    1  LIG1        0.1316
      3 C           1.9706    3.2334    0.0000 C.ar    1  LIG1        0.1831
      4 C           0.8165    3.9895   -0.0001 C.ar    1  LIG1        0.1808
      5 O          -0.3030    3.1567   -0.0002 O.2     1  LIG1       -0.4577
      6 H          -0.7504    0.9343    0.0000 H       1  LIG1        0.1044
      7 N           3.0533   -0.0888    0.0002 N.1     1  LIG1       -0.1906
      8 C           2.3515    0.8179    0.0001 C.1     1  LIG1        0.1060
      9 O           3.1998    3.6567   -0.0000 O.3     1  LIG1       -0.4901
     10 C           4.0900    2.5376   -0.0001 C.3     1  LIG1        0.0790
     11 H           5.1015    2.8864   -0.0002 H       1  LIG1        0.0660
     12 H           3.9174    1.9445    0.8737 H       1  LIG1        0.0660
     13 H           3.9171    1.9444   -0.8736 H       1  LIG1        0.0660
     14 C           1.5597    6.2080   -0.2109 C.ar    1  LIG1        0.1277
     15 C           0.5416    5.2601   -0.0001 C.ar    1  LIG1        0.0604
     16 C          -0.7615    5.7162    0.2071 C.ar    1  LIG1       -0.0456
     17 C          -1.0017    7.0913    0.1971 C.ar    1  LIG1       -0.0348
     18 C           0.0826    7.9608   -0.0219 C.ar    1  LIG1        0.0749
     19 N           1.3458    7.5380   -0.2237 N.ar    1  LIG1       -0.2317
     20 H          -1.5828    5.0055    0.3762 H       1  LIG1        0.0626
     21 N           2.7884    5.8322   -0.4084 N.pl3   1  LIG1       -0.3426
     22 H           2.7962    4.9760   -0.9250 H       1  LIG1        0.1437
     23 H           3.2738    6.5375   -0.9250 H       1  LIG1        0.1437
     24 H          -2.1971    7.5661    0.3853 H       1  LIG1        0.0639
     25 C           0.8665   10.0777   -0.6607 C.ar    1  LIG1        0.0345
     26 C           0.6336   11.4666   -0.6524 C.ar    1  LIG1       -0.0309
     27 C          -0.0907    9.2490   -0.0403 C.ar    1  LIG1        0.0228
     28 C          -0.5017   12.0086   -0.0541 C.ar    1  LIG1        0.0063
     29 H           1.3595   12.1243   -1.1253 H       1  LIG1        0.0643
     30 C          -1.2242    9.7895    0.5572 C.ar    1  LIG1       -0.0295
     31 C          -1.4379   11.1719    0.5547 C.ar    1  LIG1        0.0332
     32 H          -1.9476    9.1296    1.0292 H       1  LIG1        0.0643
     33 N           1.9439    9.6314   -1.2350 N.pl3   1  LIG1       -0.3574
     34 H           1.7153    8.8423   -1.8051 H       1  LIG1        0.1423
     35 H           2.3403   10.3509   -1.8052 H       1  LIG1        0.1423
     36 N          -2.4994   11.6714    1.1149 N.pl3   1  LIG1       -0.3575
     37 H          -2.6076   12.6248    0.8332 H       1  LIG1        0.1423
     38 H          -3.3030   11.1473    0.8331 H       1  LIG1        0.1423
     39 C           0.1443   14.1165   -0.8560 C.ar    1  LIG1        0.0325
     40 C          -0.0940   15.5043   -0.8323 C.ar    1  LIG1       -0.0393
     41 C          -0.6851   13.2955   -0.0650 C.ar    1  LIG1        0.0057
     42 C          -1.1129   16.0525   -0.0564 C.ar    1  LIG1       -0.0446
     43 H           0.5344   16.1561   -1.4351 H       1  LIG1        0.0636
     44 C          -1.7024   13.8422    0.7098 C.ar    1  LIG1       -0.0368
     45 C          -1.9237   15.2233    0.7197 C.ar    1  LIG1        0.0254
     46 H          -2.3285   13.1881    1.3113 H       1  LIG1        0.0636
     47 H          -1.3051   17.3382   -0.0582 H       1  LIG1        0.0630
     48 N           1.1097   13.6641   -1.5999 N.pl3   1  LIG1       -0.3575
     49 H           0.7665   12.9233   -2.1773 H       1  LIG1        0.1423
     50 H           1.4594   14.4019   -2.1773 H       1  LIG1        0.1423
     51 C          -2.8761   15.7287    1.4460 C.1     1  LIG1       -0.0696
     52 C          -3.7561   16.1957    2.1171 C.1     1  LIG1       -0.1139
     53 H          -4.5400   16.6117    2.7150 H       1  LIG1        0.1232
@<TRIPOS>BOND
     1    50    48    1
     2    49    48    1
     3    35    33    1
     4    34    33    1
     5    48    39    1
     6    43    40    1
     7    33    25    1
     8    29    26    1
     9    23    21    1
    10    22    21    1
    11    13    10    1
    12    39    40   ar
    13    39    41   ar
    14    40    42   ar
    15    25    26   ar
    16    25    27   ar
    17    26    28   ar
    18    21    14    1
    19    19    14   ar
    20    19    18   ar
    21    14    15   ar
    22    41    28    1
    23    41    44   ar
    24    47    42    1
    25    42    45   ar
    26    28    31   ar
    27    27    18    1
    28    27    30   ar
    29    18    17   ar
    30    11    10    1
    31     5     4   ar
    32     5     1   ar
    33     4    15    1
    34     4     3   ar
    35    15    16   ar
    36    10     9    1
    37    10    12    1
    38     1     2   ar
    39     1     6    1
    40     2     3   ar
    41     2     8    1
    42     3     9    1
    43     8     7    3
    44    17    16   ar
    45    17    24    1
    46    16    20    1
    47    31    30   ar
    48    31    36    1
    49    30    32    1
    50    44    45   ar
    51    44    46    1
    52    45    51    1
    53    38    36    1
    54    37    36    1
    55    51    52    3
    56    52    53    1
