@<TRIPOS>MOLECULE
mol_data/noopt/geoms/mol2/12dl12hf-13hi-13fl-.out
 50 53 0 0 0
SMALL
GASTEIGER

@<TRIPOS>ATOM
      1 C           0.1763    1.8460    0.0000 C.ar    1  LIG1        0.1138
      2 C           1.5558    1.8460    0.0000 C.ar    1  LIG1        0.1317
      3 C           1.9706    3.2334    0.0000 C.ar    1  LIG1        0.1862
      4 C           0.8165    3.9895   -0.0001 C.ar    1  LIG1        0.2143
      5 O          -0.3030    3.1567   -0.0002 O.2     1  LIG1       -0.4546
      6 H          -0.7504    0.9343    0.0000 H       1  LIG1        0.1044
      7 N           3.0533   -0.0888    0.0002 N.1     1  LIG1       -0.1906
      8 C           2.3515    0.8179    0.0001 C.1     1  LIG1        0.1060
      9 O           3.1998    3.6567   -0.0000 O.3     1  LIG1       -0.4900
     10 C           4.0900    2.5376   -0.0001 C.3     1  LIG1        0.0790
     11 H           5.1015    2.8864   -0.0002 H       1  LIG1        0.0660
     12 H           3.9174    1.9445    0.8737 H       1  LIG1        0.0660
     13 H           3.9171    1.9444   -0.8736 H       1  LIG1        0.0660
     14 C           0.5416    5.2601   -0.0001 C.ar    1  LIG1        0.1986
     15 C           1.2792    6.4258   -0.0001 C.ar    1  LIG1        0.1170
     16 C           0.3286    7.5182   -0.0001 C.ar    1  LIG1        0.1861
     17 C          -0.9274    6.9472   -0.0002 C.ar    1  LIG1        0.1968
     18 O          -0.8223    5.5559   -0.0003 O.2     1  LIG1       -0.4443
     19 N           2.5735    6.5485   -0.0000 N.pl3   1  LIG1       -0.3521
     20 H           2.9823    5.7671   -0.4714 H       1  LIG1        0.1425
     21 H           2.8283    7.3927   -0.4714 H       1  LIG1        0.1425
     22 O           0.6282    8.7833   -0.0001 O.3     1  LIG1       -0.5019
     23 H          -0.1786    9.3036   -0.0001 H       1  LIG1        0.2924
     24 C          -2.1481    7.3944   -0.0002 C.ar    1  LIG1        0.1075
     25 C          -2.6205    8.6689    0.0160 C.ar    1  LIG1        0.0570
     26 C          -4.0506    8.5951    0.0083 C.ar    1  LIG1       -0.0023
     27 C          -4.3892    7.2787   -0.0140 C.ar    1  LIG1        0.0719
     28 N          -3.2274    6.5401   -0.0189 N.ar    1  LIG1       -0.3487
     29 H          -3.1761    5.5475   -0.0341 H       1  LIG1        0.1661
     30 N          -1.9030    9.7528    0.0364 N.pl3   1  LIG1       -0.3560
     31 H          -1.0341    9.5861   -0.4297 H       1  LIG1        0.1424
     32 H          -2.3957   10.4876   -0.4297 H       1  LIG1        0.1424
     33 C          -4.8763    9.5995    0.0201 C.3     1  LIG1       -0.0359
     34 H          -5.7748    9.3168    0.5277 H       1  LIG1        0.0279
     35 H          -5.1086    9.8821   -0.9855 H       1  LIG1        0.0279
     36 H          -4.4249   10.4263    0.5276 H       1  LIG1        0.0279
     37 C          -5.5573    6.7083   -0.0285 C.ar    1  LIG1        0.1090
     38 C          -6.8037    7.2508   -0.0387 C.ar    1  LIG1        0.1858
     39 C          -7.7412    6.1684   -0.0521 C.ar    1  LIG1        0.1793
     40 C          -7.0264    5.0121   -0.0513 C.ar    1  LIG1        0.0482
     41 N          -5.6890    5.3380   -0.0364 N.ar    1  LIG1       -0.3535
     42 H          -4.9376    4.6872   -0.0326 H       1  LIG1        0.1656
     43 H          -7.4243    3.7745   -0.0608 H       1  LIG1        0.0845
     44 O          -7.0882    8.5193   -0.0353 O.3     1  LIG1       -0.5019
     45 H          -8.0413    8.6339   -0.0344 H       1  LIG1        0.2924
     46 O          -9.0373    6.2691   -0.0635 O.3     1  LIG1       -0.4900
     47 C          -9.4088    7.6499   -0.0678 C.3     1  LIG1        0.0790
     48 H         -10.4755    7.7323   -0.0773 H       1  LIG1        0.0660
     49 H          -9.0221    8.1260    0.8091 H       1  LIG1        0.0660
     50 H          -9.0066    8.1248   -0.9381 H       1  LIG1        0.0660
@<TRIPOS>BOND
     1    35    33    1
     2    50    47    1
     3    13    10    1
     4    21    19    1
     5    20    19    1
     6    32    30    1
     7    31    30    1
     8    48    47    1
     9    47    46    1
    10    47    49    1
    11    46    39    1
    12    43    40    1
    13    39    40   ar
    14    39    38   ar
    15    40    41   ar
    16    38    44    1
    17    38    37   ar
    18    41    42    1
    19    41    37   ar
    20    44    45    1
    21    29    28    1
    22    37    27    1
    23    28    27   ar
    24    28    24   ar
    25    27    26   ar
    26    18    17   ar
    27    18    14   ar
    28    11    10    1
    29    24    17    1
    30    24    25   ar
    31    17    16   ar
    32     5     4   ar
    33     5     1   ar
    34    23    22    1
    35    22    16    1
    36    16    15   ar
    37    15    14   ar
    38    15    19    1
    39    14     4    1
    40     4     3   ar
    41    10     9    1
    42    10    12    1
    43     1     6    1
    44     1     2   ar
    45     9     3    1
    46     3     2   ar
    47     2     8    1
    48     8     7    3
    49    26    25   ar
    50    26    33    1
    51    25    30    1
    52    33    36    1
    53    33    34    1
