@<TRIPOS>MOLECULE
mol_data/noopt/geoms/mol2/12dl6le-12ee13ad-.out
 49 53 0 0 0
SMALL
GASTEIGER

@<TRIPOS>ATOM
      1 C           0.1763    1.8460    0.0000 C.ar    1  LIG1        0.1136
      2 C           1.5558    1.8460    0.0000 C.ar    1  LIG1        0.1316
      3 C           1.9706    3.2334    0.0000 C.ar    1  LIG1        0.1829
      4 C           0.8165    3.9895   -0.0001 C.ar    1  LIG1        0.1784
      5 O          -0.3030    3.1567   -0.0002 O.2     1  LIG1       -0.4580
      6 H          -0.7504    0.9343    0.0000 H       1  LIG1        0.1044
      7 N           3.0533   -0.0888    0.0002 N.1     1  LIG1       -0.1906
      8 C           2.3515    0.8179    0.0001 C.1     1  LIG1        0.1060
      9 O           3.1998    3.6567   -0.0000 O.3     1  LIG1       -0.4901
     10 C           4.0900    2.5376   -0.0001 C.3     1  LIG1        0.0790
     11 H           5.1015    2.8864   -0.0002 H       1  LIG1        0.0660
     12 H           3.9174    1.9445    0.8737 H       1  LIG1        0.0660
     13 H           3.9171    1.9444   -0.8736 H       1  LIG1        0.0660
     14 C          -0.7951    5.6985   -0.0211 C.3     1  LIG1        0.2449
     15 C           0.5416    5.2601   -0.0001 C.2     1  LIG1        0.0585
     16 C           1.5571    6.2179    0.0209 C.2     1  LIG1       -0.0334
     17 C           1.2066    7.5691    0.0200 C.2     1  LIG1        0.0429
     18 C          -0.1586    7.9086   -0.0020 C.2     1  LIG1        0.1075
     19 N          -1.1512    6.9977   -0.0223 N.2     1  LIG1       -0.2391
     20 H           2.6132    5.9133    0.0367 H       1  LIG1        0.0636
     21 O          -1.7753    4.8448   -0.0410 O.3     1  LIG1       -0.3478
     22 C          -3.0205    5.5479   -0.0484 C.3     1  LIG1        0.0398
     23 H          -3.8270    4.8449   -0.0649 H       1  LIG1        0.0525
     24 H          -3.0934    6.1536    0.8307 H       1  LIG1        0.0525
     25 H          -3.0730    6.1713   -0.9164 H       1  LIG1        0.0525
     26 C           2.1148    8.4990    0.0389 C.1     1  LIG1       -0.1095
     27 C           2.9540    9.3583    0.0564 C.2     1  LIG1       -0.0112
     28 H           3.7015   10.1237    0.0719 H       1  LIG1        0.0712
     29 C          -0.5350    9.1529   -0.0037 C.3     1  LIG1        0.2357
     30 C           0.1063   10.3743    0.0099 C.2     1  LIG1        0.0674
     31 C          -0.9291   11.3866   -0.0024 C.2     1  LIG1        0.0835
     32 C          -2.1350   10.7163   -0.0227 C.2     1  LIG1        0.1621
     33 O          -1.9181    9.3380   -0.0240 O.2     1  LIG1       -0.4660
     34 C           1.3862   10.6007    0.0299 C.1     1  LIG1       -0.1099
     35 C           2.5689   10.8100    0.0484 C.2     1  LIG1       -0.0114
     36 H           3.6224   10.9964    0.0649 H       1  LIG1        0.0712
     37 C          -0.7325   12.6716    0.0047 C.1     1  LIG1       -0.0649
     38 C          -0.5508   13.8589    0.0113 C.1     1  LIG1       -0.1138
     39 H          -0.3890   14.9166    0.0171 H       1  LIG1        0.1232
     40 C          -3.3876   11.0637   -0.0404 C.ar    1  LIG1        0.0841
     41 C          -3.9612   12.2961   -0.0361 C.ar    1  LIG1       -0.0160
     42 C          -5.3805   12.1073   -0.0617 C.ar    1  LIG1        0.0697
     43 C          -5.6117   10.7679   -0.0823 C.ar    1  LIG1        0.0197
     44 N          -4.3943   10.1252   -0.0688 N.ar    1  LIG1       -0.3571
     45 H          -4.2631    9.1399   -0.0788 H       1  LIG1        0.1655
     46 H          -6.7298   10.1052   -0.1090 H       1  LIG1        0.0820
     47 H          -3.3335   13.4343   -0.0116 H       1  LIG1        0.0653
     48 N          -7.0813   13.8661   -0.0683 N.1     1  LIG1       -0.1908
     49 C          -6.2842   13.0418   -0.0652 C.1     1  LIG1        0.1007
@<TRIPOS>BOND
     1    25    22    1
     2    13    10    1
     3    46    43    1
     4    43    44   ar
     5    43    42   ar
     6    45    44    1
     7    44    40   ar
     8    48    49    3
     9    49    42    1
    10    23    22    1
    11    42    41   ar
    12    22    21    1
    13    22    24    1
    14    21    14    1
    15    40    41   ar
    16    40    32    1
    17    41    47    1
    18    33    32    1
    19    33    29    1
    20    32    31    2
    21    19    14    1
    22    19    18    2
    23    14    15    1
    24    29    18    1
    25    29    30    1
    26    31    37    1
    27    31    30    1
    28    18    17    1
    29    11    10    1
    30     5     4   ar
    31     5     1   ar
    32     4    15    1
    33     4     3   ar
    34    15    16    2
    35    10     9    1
    36    10    12    1
    37     3     2   ar
    38     3     9    1
    39     6     1    1
    40     2     1   ar
    41     2     8    1
    42     8     7    3
    43    37    38    3
    44    30    34    2
    45    38    39    1
    46    17    16    1
    47    17    26    2
    48    16    20    1
    49    34    35    2
    50    26    27    2
    51    35    27    1
    52    35    36    1
    53    27    28    1
