@<TRIPOS>MOLECULE
mol_data/noopt/geoms/mol2/12dl6fh(30)12ad(320)12dh(20).out
 44 47 0 0 0
SMALL
GASTEIGER

@<TRIPOS>ATOM
      1 C           0.1763    1.8460    0.0000 C.ar    1  LIG1        0.1137
      2 C           1.5558    1.8460    0.0000 C.ar    1  LIG1        0.1316
      3 C           1.9706    3.2334    0.0000 C.ar    1  LIG1        0.1832
      4 C           0.8165    3.9895   -0.0001 C.ar    1  LIG1        0.1826
      5 O          -0.3030    3.1567   -0.0002 O.2     1  LIG1       -0.4576
      6 H          -0.7504    0.9343    0.0000 H       1  LIG1        0.1044
      7 N           3.0533   -0.0888    0.0002 N.1     1  LIG1       -0.1906
      8 C           2.3515    0.8179    0.0001 C.1     1  LIG1        0.1060
      9 O           3.1998    3.6567   -0.0000 O.3     1  LIG1       -0.4901
     10 C           4.0900    2.5376   -0.0001 C.3     1  LIG1        0.0790
     11 H           5.1015    2.8864   -0.0002 H       1  LIG1        0.0660
     12 H           3.9174    1.9445    0.8737 H       1  LIG1        0.0660
     13 H           3.9171    1.9444   -0.8736 H       1  LIG1        0.0660
     14 C          -0.6366    5.7328   -0.6065 C.ar    1  LIG1        0.2241
     15 C           0.5416    5.2601   -0.0001 C.ar    1  LIG1        0.0840
     16 C           1.4009    6.1841    0.5973 C.ar    1  LIG1       -0.0229
     17 C           1.0578    7.5369    0.5689 C.ar    1  LIG1        0.0549
     18 C          -0.1425    7.9121   -0.0620 C.ar    1  LIG1        0.1304
     19 N          -0.9832    7.0341   -0.6431 N.ar    1  LIG1       -0.2074
     20 H           2.3311    5.8523    1.0799 H       1  LIG1        0.0645
     21 O          -1.4681    4.9112   -1.1755 O.3     1  LIG1       -0.4919
     22 H          -1.0370    4.0650   -1.3158 H       1  LIG1        0.2938
     23 N           1.8244    8.4362    1.1108 N.pl3   1  LIG1       -0.3562
     24 H           2.7697    8.2866    0.8212 H       1  LIG1        0.1424
     25 H           1.5270    9.3460    0.8212 H       1  LIG1        0.1424
     26 C          -0.5053    9.1594   -0.1142 C.ar    1  LIG1        0.1571
     27 C          -0.0247   10.2985   -0.7262 C.ar    1  LIG1        0.0039
     28 C          -0.9235   11.3746   -0.3639 C.ar    1  LIG1        0.1012
     29 C          -1.8941   10.8213    0.4457 C.ar    1  LIG1        0.1892
     30 O          -1.6579    9.4565    0.6143 O.2     1  LIG1       -0.4487
     31 H           1.0255   10.4120   -1.4838 H       1  LIG1        0.0669
     32 N          -0.7167   13.7059   -1.0765 N.1     1  LIG1       -0.1907
     33 C          -0.8136   12.6133   -0.7425 C.1     1  LIG1        0.1031
     34 C          -2.9453   11.2661    1.0679 C.ar    1  LIG1        0.1901
     35 C          -3.2518   12.3966    1.7966 C.ar    1  LIG1        0.1211
     36 C          -4.6303   12.2577    2.2176 C.ar    1  LIG1        0.0812
     37 C          -5.0750   11.0510    1.7179 C.ar    1  LIG1        0.1146
     38 O          -4.0542   10.4210    1.0053 O.2     1  LIG1       -0.4566
     39 H          -6.1921   10.3872    1.7576 H       1  LIG1        0.1049
     40 N          -1.7904   14.2915    2.3062 N.1     1  LIG1       -0.1907
     41 C          -2.4753   13.4035    2.0673 C.1     1  LIG1        0.1049
     42 N          -5.2958   13.1190    2.9285 N.pl3   1  LIG1       -0.3545
     43 H          -4.9780   14.0430    2.7161 H       1  LIG1        0.1424
     44 H          -6.2701   13.0446    2.7161 H       1  LIG1        0.1424
@<TRIPOS>BOND
     1    31    27    1
     2    22    21    1
     3    21    14    1
     4    32    33    3
     5    13    10    1
     6    33    28    1
     7    27    28   ar
     8    27    26   ar
     9    19    14   ar
    10    19    18   ar
    11    14    15   ar
    12    28    29   ar
    13    26    18    1
    14    26    30   ar
    15    18    17   ar
    16    11    10    1
    17     5     4   ar
    18     5     1   ar
    19    15     4    1
    20    15    16   ar
    21     4     3   ar
    22    10     9    1
    23    10    12    1
    24     9     3    1
    25     6     1    1
    26     1     2   ar
    27     3     2   ar
    28     2     8    1
    29     8     7    3
    30    29    30   ar
    31    29    34    1
    32    17    16   ar
    33    17    23    1
    34    16    20    1
    35    25    23    1
    36    24    23    1
    37    38    34   ar
    38    38    37   ar
    39    34    35   ar
    40    37    39    1
    41    37    36   ar
    42    35    41    1
    43    35    36   ar
    44    41    40    3
    45    36    42    1
    46    44    42    1
    47    43    42    1
