@<TRIPOS>MOLECULE
mol_data/noopt/geoms/mol2/12ea12ea-.out
 20 21 0 0 0
SMALL
GASTEIGER

@<TRIPOS>ATOM
      1 C           0.1763    1.8460    0.0000 C.ar    1  LIG1        0.1081
      2 C           1.5558    1.8460    0.0000 C.ar    1  LIG1        0.0630
      3 C           1.9706    3.2334    0.0000 C.ar    1  LIG1        0.0027
      4 C           0.8165    3.9895   -0.0001 C.ar    1  LIG1        0.1721
      5 O          -0.3030    3.1567   -0.0002 O.2     1  LIG1       -0.4585
      6 H          -0.7504    0.9343    0.0000 H       1  LIG1        0.1042
      7 C           2.3515    0.8179    0.0001 C.1     1  LIG1       -0.0665
      8 C           3.0867   -0.1320    0.0002 C.1     1  LIG1       -0.1138
      9 H           3.7416   -0.9782    0.0003 H       1  LIG1        0.1232
     10 H           3.1998    3.6567    0.0000 H       1  LIG1        0.0669
     11 C           0.5416    5.2601   -0.0001 C.ar    1  LIG1        0.1850
     12 C          -0.6119    6.0167   -0.0001 C.ar    1  LIG1        0.0734
     13 C          -0.1979    7.4043   -0.0001 C.ar    1  LIG1       -0.0077
     14 C           1.1818    7.4036   -0.0002 C.ar    1  LIG1        0.0939
     15 O           1.6612    6.0932   -0.0003 O.2     1  LIG1       -0.4586
     16 H           2.1085    8.3153   -0.0002 H       1  LIG1        0.1030
     17 C          -1.8411    5.5934   -0.0000 C.1     1  LIG1       -0.0658
     18 C          -2.9768    5.2022    0.0000 C.1     1  LIG1       -0.1138
     19 H          -3.9885    4.8538    0.0001 H       1  LIG1        0.1232
     20 H          -0.9936    8.4323   -0.0001 H       1  LIG1        0.0661
@<TRIPOS>BOND
     1    15    14   ar
     2    15    11   ar
     3     5     4   ar
     4     5     1   ar
     5    14    16    1
     6    14    13   ar
     7    12    13   ar
     8    12    11   ar
     9    12    17    1
    10    20    13    1
    11    11     4    1
    12     4     3   ar
    13    17    18    3
    14    10     3    1
    15     1     6    1
    16     1     2   ar
    17     3     2   ar
    18     2     7    1
    19    18    19    1
    20     7     8    3
    21     8     9    1
