@<TRIPOS>MOLECULE
mol_data/noopt/geoms/mol2/12ea12ea-12ea-12ea.out
 38 41 0 0 0
SMALL
GASTEIGER

@<TRIPOS>ATOM
      1 C           0.1763    1.8460    0.0000 C.ar    1  LIG1        0.1081
      2 C           1.5558    1.8460    0.0000 C.ar    1  LIG1        0.0630
      3 C           1.9706    3.2334    0.0000 C.ar    1  LIG1        0.0027
      4 C           0.8165    3.9895   -0.0001 C.ar    1  LIG1        0.1721
      5 O          -0.3030    3.1567   -0.0002 O.2     1  LIG1       -0.4585
      6 H          -0.7504    0.9343    0.0000 H       1  LIG1        0.1042
      7 C           2.3515    0.8179    0.0001 C.1     1  LIG1       -0.0665
      8 C           3.0867   -0.1320    0.0002 C.1     1  LIG1       -0.1138
      9 H           3.7416   -0.9782    0.0003 H       1  LIG1        0.1232
     10 H           3.1998    3.6567    0.0000 H       1  LIG1        0.0669
     11 C           0.5416    5.2601   -0.0001 C.ar    1  LIG1        0.1860
     12 C          -0.6119    6.0167   -0.0001 C.ar    1  LIG1        0.0741
     13 C          -0.1979    7.4043   -0.0001 C.ar    1  LIG1        0.0035
     14 C           1.1818    7.4036   -0.0002 C.ar    1  LIG1        0.1732
     15 O           1.6612    6.0932   -0.0003 O.2     1  LIG1       -0.4473
     16 C          -1.8411    5.5934   -0.0000 C.1     1  LIG1       -0.0657
     17 C          -2.9768    5.2022    0.0000 C.1     1  LIG1       -0.1138
     18 H          -3.9885    4.8538    0.0001 H       1  LIG1        0.1232
     19 H          -0.9936    8.4323   -0.0001 H       1  LIG1        0.0669
     20 C           2.1085    8.3153   -0.0002 C.ar    1  LIG1        0.1860
     21 C           2.1310    9.6946   -0.0002 C.ar    1  LIG1        0.0741
     22 C           3.5250   10.0867   -0.0001 C.ar    1  LIG1        0.0035
     23 C           4.2622    8.9204   -0.0002 C.ar    1  LIG1        0.1731
     24 O           3.4112    7.8147   -0.0003 O.2     1  LIG1       -0.4473
     25 C           1.1161   10.5069   -0.0001 C.1     1  LIG1       -0.0657
     26 C           0.1783   11.2575   -0.0000 C.1     1  LIG1       -0.1138
     27 H          -0.6571   11.9262    0.0000 H       1  LIG1        0.1232
     28 H           3.9683   11.3088   -0.0001 H       1  LIG1        0.0669
     29 C           5.5281    8.6248   -0.0002 C.ar    1  LIG1        0.1850
     30 C           6.2658    7.4591   -0.0001 C.ar    1  LIG1        0.0734
     31 C           7.6600    7.8504   -0.0001 C.ar    1  LIG1       -0.0077
     32 C           7.6818    9.2300   -0.0002 C.ar    1  LIG1        0.0939
     33 O           6.3794    9.7307   -0.0003 O.2     1  LIG1       -0.4586
     34 H           8.6085   10.1417   -0.0002 H       1  LIG1        0.1030
     35 C           5.8225    6.2370   -0.0000 C.1     1  LIG1       -0.0658
     36 C           5.4129    5.1078    0.0001 C.1     1  LIG1       -0.1138
     37 H           5.0480    4.1019    0.0001 H       1  LIG1        0.1232
     38 H           8.6749    7.0381   -0.0001 H       1  LIG1        0.0661
@<TRIPOS>BOND
     1    33    32   ar
     2    33    29   ar
     3    24    23   ar
     4    24    20   ar
     5    15    14   ar
     6    15    11   ar
     7    32    34    1
     8    32    31   ar
     9     5     4   ar
    10     5     1   ar
    11    23    29    1
    12    23    22   ar
    13    14    20    1
    14    14    13   ar
    15    29    30   ar
    16    21    20   ar
    17    21    22   ar
    18    21    25    1
    19    30    31   ar
    20    30    35    1
    21    12    13   ar
    22    12    11   ar
    23    12    16    1
    24    22    28    1
    25    19    13    1
    26    11     4    1
    27     4     3   ar
    28    31    38    1
    29    25    26    3
    30    16    17    3
    31    35    36    3
    32    26    27    1
    33    10     3    1
    34     6     1    1
    35     3     2   ar
    36     2     1   ar
    37     2     7    1
    38    17    18    1
    39    36    37    1
    40     7     8    3
    41     8     9    1
