@<TRIPOS>MOLECULE
mol_data/noopt/geoms/mol2/12ea12lf4ea-4af.out
 46 49 0 0 0
SMALL
GASTEIGER

@<TRIPOS>ATOM
      1 C           0.1763    1.8460    0.0000 C.ar    1  LIG1        0.1081
      2 C           1.5558    1.8460    0.0000 C.ar    1  LIG1        0.0630
      3 C           1.9706    3.2334    0.0000 C.ar    1  LIG1        0.0028
      4 C           0.8165    3.9895   -0.0001 C.ar    1  LIG1        0.1747
      5 O          -0.3030    3.1567   -0.0002 O.2     1  LIG1       -0.4585
      6 H          -0.7504    0.9343    0.0000 H       1  LIG1        0.1042
      7 C           2.3515    0.8179    0.0001 C.1     1  LIG1       -0.0665
      8 C           3.0867   -0.1320    0.0002 C.1     1  LIG1       -0.1138
      9 H           3.7416   -0.9782    0.0003 H       1  LIG1        0.1232
     10 H           3.1998    3.6567    0.0000 H       1  LIG1        0.0669
     11 C           0.5416    5.2601   -0.0001 C.ar    1  LIG1        0.2157
     12 C           1.2791    6.4258    0.0147 C.ar    1  LIG1        0.2114
     13 C           0.3286    7.5182    0.0040 C.ar    1  LIG1        0.2062
     14 C          -0.9273    6.9473   -0.0167 C.ar    1  LIG1        0.1820
     15 O          -0.8221    5.5559   -0.0197 O.2     1  LIG1       -0.4441
     16 O           2.5732    6.5484    0.0345 O.3     1  LIG1       -0.4883
     17 C           3.1755    5.2514    0.0417 C.3     1  LIG1        0.0791
     18 H           4.2405    5.3528    0.0579 H       1  LIG1        0.0660
     19 H           2.8551    4.7142    0.9100 H       1  LIG1        0.0660
     20 H           2.8814    4.7167   -0.8371 H       1  LIG1        0.0660
     21 O           0.6281    8.7832    0.0126 O.3     1  LIG1       -0.5008
     22 H          -0.1787    9.3035    0.0147 H       1  LIG1        0.2924
     23 C          -2.3872    8.7837   -0.0205 C.ar    1  LIG1        0.0360
     24 C          -3.7269    9.2174   -0.0381 C.ar    1  LIG1       -0.0379
     25 C          -2.1478    7.3944   -0.0335 C.ar    1  LIG1        0.0364
     26 C          -4.7832    8.3097   -0.0679 C.ar    1  LIG1       -0.0166
     27 H          -3.9341   10.2852   -0.0283 H       1  LIG1        0.0636
     28 C          -3.2019    6.4877   -0.0633 C.ar    1  LIG1       -0.0492
     29 C          -4.5260    6.9382   -0.0808 C.ar    1  LIG1       -0.0533
     30 H          -2.9914    5.4213   -0.0727 H       1  LIG1        0.0625
     31 C          -1.4444    9.6784    0.0070 C.1     1  LIG1       -0.0689
     32 C          -0.5733   10.5051    0.0324 C.1     1  LIG1       -0.1139
     33 H           0.2027   11.2414    0.0550 H       1  LIG1        0.1232
     34 H          -5.5074    6.0860   -0.1085 H       1  LIG1        0.0624
     35 C          -6.2606   10.1320   -0.0914 C.ar    1  LIG1       -0.0538
     36 C          -7.6045   10.5526   -0.1069 C.ar    1  LIG1       -0.0577
     37 C          -6.0080    8.7449   -0.0837 C.ar    1  LIG1       -0.0144
     38 C          -8.6522    9.6346   -0.1150 C.ar    1  LIG1       -0.0201
     39 H          -7.8218   11.6184   -0.1129 H       1  LIG1        0.0619
     40 C          -7.0536    7.8280   -0.0917 C.ar    1  LIG1       -0.0125
     41 C          -8.3820    8.2656   -0.1075 C.ar    1  LIG1        0.1174
     42 H          -6.8330    6.7636   -0.0854 H       1  LIG1        0.0660
     43 H          -9.8813   10.0579   -0.1294 H       1  LIG1        0.0654
     44 H          -5.3262   11.0358   -0.0847 H       1  LIG1        0.0624
     45 O          -9.3554    7.4038   -0.1149 O.3     1  LIG1       -0.5067
     46 H          -8.9954    6.5138   -0.1167 H       1  LIG1        0.2921
@<TRIPOS>BOND
     1    20    17    1
     2    43    38    1
     3    46    45    1
     4    38    41   ar
     5    38    36   ar
     6    45    41    1
     7    39    36    1
     8    34    29    1
     9    41    40   ar
    10    36    35   ar
    11    40    42    1
    12    40    37   ar
    13    35    44    1
    14    35    37   ar
    15    37    26    1
    16    29    26   ar
    17    29    28   ar
    18    30    28    1
    19    26    24   ar
    20    28    25   ar
    21    24    27    1
    22    24    23   ar
    23    25    23   ar
    24    25    14    1
    25    23    31    1
    26    15    14   ar
    27    15    11   ar
    28    14    13   ar
    29     5     4   ar
    30     5     1   ar
    31    11     4    1
    32    11    12   ar
    33     4     3   ar
    34     2     1   ar
    35     2     3   ar
    36     2     7    1
    37     1     6    1
    38     3    10    1
    39     7     8    3
    40     8     9    1
    41    13    21    1
    42    13    12   ar
    43    31    32    3
    44    21    22    1
    45    12    16    1
    46    32    33    1
    47    16    17    1
    48    17    18    1
    49    17    19    1
