@<TRIPOS>MOLECULE
mol_data/noopt/geoms/mol2/12ea12ea12ea12ea-.out
 38 41 0 0 0
SMALL
GASTEIGER

@<TRIPOS>ATOM
      1 C           0.1763    1.8460    0.0000 C.ar    1  LIG1        0.1081
      2 C           1.5558    1.8460    0.0000 C.ar    1  LIG1        0.0630
      3 C           1.9706    3.2334    0.0000 C.ar    1  LIG1        0.0027
      4 C           0.8165    3.9895   -0.0001 C.ar    1  LIG1        0.1721
      5 O          -0.3030    3.1567   -0.0002 O.2     1  LIG1       -0.4585
      6 H          -0.7504    0.9343    0.0000 H       1  LIG1        0.1042
      7 C           2.3515    0.8179    0.0001 C.1     1  LIG1       -0.0665
      8 C           3.0867   -0.1320    0.0002 C.1     1  LIG1       -0.1138
      9 H           3.7416   -0.9782    0.0003 H       1  LIG1        0.1232
     10 H           3.1998    3.6567    0.0000 H       1  LIG1        0.0669
     11 C           0.5416    5.2601   -0.0001 C.ar    1  LIG1        0.1860
     12 C           1.2792    6.4258   -0.0001 C.ar    1  LIG1        0.0741
     13 C           0.3286    7.5182   -0.0001 C.ar    1  LIG1        0.0035
     14 C          -0.9274    6.9472   -0.0002 C.ar    1  LIG1        0.1732
     15 O          -0.8223    5.5559   -0.0003 O.2     1  LIG1       -0.4473
     16 C           2.5734    6.5485   -0.0000 C.1     1  LIG1       -0.0657
     17 C           3.7693    6.6618    0.0001 C.1     1  LIG1       -0.1138
     18 H           4.8345    6.7627    0.0002 H       1  LIG1        0.1232
     19 H           0.6282    8.7832   -0.0001 H       1  LIG1        0.0669
     20 C          -2.1481    7.3943   -0.0002 C.ar    1  LIG1        0.1860
     21 C          -2.7387    8.6410   -0.0002 C.ar    1  LIG1        0.0741
     22 C          -4.1701    8.4218   -0.0002 C.ar    1  LIG1        0.0035
     23 C          -4.3593    7.0551   -0.0003 C.ar    1  LIG1        0.1731
     24 O          -3.1273    6.4000   -0.0004 O.2     1  LIG1       -0.4473
     25 C          -2.1504    9.8002   -0.0001 C.1     1  LIG1       -0.0657
     26 C          -1.6067   10.8713   -0.0000 C.1     1  LIG1       -0.1138
     27 H          -1.1224   11.8255    0.0001 H       1  LIG1        0.1232
     28 H          -5.0789    9.3514   -0.0002 H       1  LIG1        0.0669
     29 C          -5.3898    6.2627   -0.0003 C.ar    1  LIG1        0.1850
     30 C          -5.5796    4.8963   -0.0003 C.ar    1  LIG1        0.0734
     31 C          -7.0109    4.6763   -0.0003 C.ar    1  LIG1       -0.0077
     32 C          -7.6010    5.9235   -0.0004 C.ar    1  LIG1        0.0939
     33 O          -6.6221    6.9178   -0.0005 O.2     1  LIG1       -0.4586
     34 H          -8.8217    6.3706   -0.0004 H       1  LIG1        0.1030
     35 C          -4.6708    3.9667   -0.0002 C.1     1  LIG1       -0.0658
     36 C          -3.8311    3.1078   -0.0002 C.1     1  LIG1       -0.1138
     37 H          -3.0831    2.3427   -0.0001 H       1  LIG1        0.1232
     38 H          -7.5993    3.5171   -0.0003 H       1  LIG1        0.0661
@<TRIPOS>BOND
     1    33    32   ar
     2    33    29   ar
     3    24    23   ar
     4    24    20   ar
     5    32    34    1
     6    32    31   ar
     7    30    31   ar
     8    30    29   ar
     9    30    35    1
    10    38    31    1
    11    29    23    1
    12    23    22   ar
    13    15    14   ar
    14    15    11   ar
    15    35    36    3
    16    20    21   ar
    17    20    14    1
    18    28    22    1
    19    22    21   ar
    20    21    25    1
    21    14    13   ar
    22     5     4   ar
    23     5     1   ar
    24    36    37    1
    25    19    13    1
    26    13    12   ar
    27    12    11   ar
    28    12    16    1
    29    11     4    1
    30    25    26    3
    31     4     3   ar
    32    26    27    1
    33    16    17    3
    34     2     3   ar
    35     2     1   ar
    36     2     7    1
    37     3    10    1
    38     6     1    1
    39    17    18    1
    40     7     8    3
    41     8     9    1
