@<TRIPOS>MOLECULE
mol_data/noopt/geoms/mol2/12ea6ff(120)12ei(210)12if(240).out
 45 48 0 0 0
SMALL
GASTEIGER

@<TRIPOS>ATOM
      1 C           0.1763    1.8460    0.0000 C.ar    1  LIG1        0.1079
      2 C           1.5558    1.8460    0.0000 C.ar    1  LIG1        0.0629
      3 C           1.9706    3.2334    0.0000 C.ar    1  LIG1       -0.0003
      4 C           0.8165    3.9895   -0.0001 C.ar    1  LIG1        0.1412
      5 O          -0.3030    3.1567   -0.0002 O.2     1  LIG1       -0.4615
      6 H          -0.7504    0.9343    0.0000 H       1  LIG1        0.1042
      7 C           2.3515    0.8179    0.0001 C.1     1  LIG1       -0.0665
      8 C           3.0867   -0.1320    0.0002 C.1     1  LIG1       -0.1138
      9 H           3.7416   -0.9782    0.0003 H       1  LIG1        0.1232
     10 H           3.1998    3.6567    0.0000 H       1  LIG1        0.0668
     11 C           0.9847    6.0836   -1.0513 C.ar    1  LIG1        0.2241
     12 C           0.5416    5.2601   -0.0001 C.ar    1  LIG1        0.0820
     13 C          -0.1956    5.8387    1.0347 C.ar    1  LIG1       -0.0022
     14 C          -0.4628    7.2079    0.9854 C.ar    1  LIG1        0.1467
     15 C           0.0235    7.9480   -0.1079 C.ar    1  LIG1        0.1522
     16 N           0.7360    7.4060   -1.1148 N.ar    1  LIG1       -0.2056
     17 H          -0.5578    5.2273    1.8733 H       1  LIG1        0.0663
     18 O           1.6743    5.5911   -2.0372 O.3     1  LIG1       -0.4919
     19 H           2.3701    6.2062   -2.2802 H       1  LIG1        0.2938
     20 O          -1.1447    7.7938    1.9244 O.3     1  LIG1       -0.5045
     21 H          -1.9026    7.2518    2.1558 H       1  LIG1        0.2922
     22 C          -0.1995    9.2255   -0.1987 C.ar    1  LIG1        0.1732
     23 C          -1.2134   10.0134   -0.7029 C.ar    1  LIG1        0.0756
     24 C          -0.8210   11.3890   -0.4772 C.ar    1  LIG1        0.0145
     25 C           0.4071   11.3503    0.1504 C.ar    1  LIG1        0.1751
     26 O           0.8114   10.0274    0.3332 O.2     1  LIG1       -0.4485
     27 C          -2.3147    9.6242   -1.2734 C.1     1  LIG1       -0.0655
     28 C          -3.3324    9.2645   -1.8005 C.1     1  LIG1       -0.1138
     29 H          -4.2389    8.9441   -2.2701 H       1  LIG1        0.1232
     30 C          -1.5119   12.4386   -0.8114 C.3     1  LIG1       -0.0348
     31 H          -2.5025   12.3546   -0.4156 H       1  LIG1        0.0279
     32 H          -1.5589   12.5099   -1.8780 H       1  LIG1        0.0279
     33 H          -1.0429   13.3152   -0.4156 H       1  LIG1        0.0279
     34 C           1.2476   12.2361    0.5964 C.ar    1  LIG1        0.1765
     35 C           1.6880   13.4736    0.1751 C.ar    1  LIG1        0.0398
     36 C           2.6493   13.9285    1.1578 C.ar    1  LIG1        0.1581
     37 C           2.7325   12.9383    2.1151 C.ar    1  LIG1        0.1343
     38 O           1.8775   11.8844    1.7911 O.2     1  LIG1       -0.4558
     39 H           3.4039   12.7675    3.2151 H       1  LIG1        0.1068
     40 C           1.3278   14.1262   -0.8904 C.3     1  LIG1       -0.0325
     41 H           0.2644   14.2448   -0.8935 H       1  LIG1        0.0280
     42 H           1.6284   13.5814   -1.7610 H       1  LIG1        0.0280
     43 H           1.7942   15.0892   -0.8935 H       1  LIG1        0.0280
     44 O           3.2946   15.0565    1.1209 O.3     1  LIG1       -0.5034
     45 H           2.6682   15.7839    1.1118 H       1  LIG1        0.2923
@<TRIPOS>BOND
     1    19    18    1
     2    29    28    1
     3    18    11    1
     4    32    30    1
     5    28    27    3
     6    42    40    1
     7    27    23    1
     8    16    11   ar
     9    16    15   ar
    10    11    12   ar
    11    41    40    1
    12    43    40    1
    13    40    35    1
    14    30    24    1
    15    30    33    1
    16    30    31    1
    17    23    24   ar
    18    23    22   ar
    19    24    25   ar
    20    22    15    1
    21    22    26   ar
    22    15    14   ar
    23     5     4   ar
    24     5     1   ar
    25    12     4    1
    26    12    13   ar
    27     4     3   ar
    28     1     2   ar
    29     1     6    1
    30     2     3   ar
    31     2     7    1
    32     3    10    1
    33     7     8    3
    34     8     9    1
    35    25    26   ar
    36    25    34    1
    37    35    34   ar
    38    35    36   ar
    39    34    38   ar
    40    14    13   ar
    41    14    20    1
    42    13    17    1
    43    45    44    1
    44    44    36    1
    45    36    37   ar
    46    38    37   ar
    47    20    21    1
    48    37    39    1
