@<TRIPOS>MOLECULE
mol_data/noopt/geoms/mol2/12ea12ea-12ea.out
 29 31 0 0 0
SMALL
GASTEIGER

@<TRIPOS>ATOM
      1 C           0.1763    1.8460    0.0000 C.ar    1  LIG1        0.1081
      2 C           1.5558    1.8460    0.0000 C.ar    1  LIG1        0.0630
      3 C           1.9706    3.2334    0.0000 C.ar    1  LIG1        0.0027
      4 C           0.8165    3.9895   -0.0001 C.ar    1  LIG1        0.1721
      5 O          -0.3030    3.1567   -0.0002 O.2     1  LIG1       -0.4585
      6 H          -0.7504    0.9343    0.0000 H       1  LIG1        0.1042
      7 C           2.3515    0.8179    0.0001 C.1     1  LIG1       -0.0665
      8 C           3.0867   -0.1320    0.0002 C.1     1  LIG1       -0.1138
      9 H           3.7416   -0.9782    0.0003 H       1  LIG1        0.1232
     10 H           3.1998    3.6567    0.0000 H       1  LIG1        0.0669
     11 C           0.5416    5.2601   -0.0001 C.ar    1  LIG1        0.1860
     12 C          -0.6119    6.0167   -0.0001 C.ar    1  LIG1        0.0741
     13 C          -0.1979    7.4043   -0.0001 C.ar    1  LIG1        0.0035
     14 C           1.1818    7.4036   -0.0002 C.ar    1  LIG1        0.1731
     15 O           1.6612    6.0932   -0.0003 O.2     1  LIG1       -0.4473
     16 C          -1.8411    5.5934   -0.0000 C.1     1  LIG1       -0.0657
     17 C          -2.9768    5.2022    0.0000 C.1     1  LIG1       -0.1138
     18 H          -3.9885    4.8538    0.0001 H       1  LIG1        0.1232
     19 H          -0.9936    8.4323   -0.0001 H       1  LIG1        0.0669
     20 C           2.1085    8.3153   -0.0002 C.ar    1  LIG1        0.1850
     21 C           3.4880    8.3153   -0.0001 C.ar    1  LIG1        0.0734
     22 C           3.9028    9.7027   -0.0001 C.ar    1  LIG1       -0.0077
     23 C           2.7487   10.4588   -0.0002 C.ar    1  LIG1        0.0939
     24 O           1.6292    9.6260   -0.0003 O.2     1  LIG1       -0.4586
     25 H           2.4738   11.7294   -0.0002 H       1  LIG1        0.1030
     26 C           4.2837    7.2872   -0.0000 C.1     1  LIG1       -0.0658
     27 C           5.0189    6.3373    0.0001 C.1     1  LIG1       -0.1138
     28 H           5.6738    5.4911    0.0001 H       1  LIG1        0.1232
     29 H           5.1320   10.1260   -0.0001 H       1  LIG1        0.0661
@<TRIPOS>BOND
     1    24    23   ar
     2    24    20   ar
     3    15    14   ar
     4    15    11   ar
     5    23    25    1
     6    23    22   ar
     7     5     4   ar
     8     5     1   ar
     9    14    20    1
    10    14    13   ar
    11    20    21   ar
    12    21    22   ar
    13    21    26    1
    14    12    13   ar
    15    12    11   ar
    16    12    16    1
    17    19    13    1
    18    22    29    1
    19     4    11    1
    20     4     3   ar
    21    16    17    3
    22    26    27    3
    23    10     3    1
    24     6     1    1
    25     3     2   ar
    26     2     1   ar
    27     2     7    1
    28    17    18    1
    29    27    28    1
    30     7     8    3
    31     8     9    1
