@<TRIPOS>MOLECULE
mol_data/noopt/geoms/mol2/12ea12ea12ea-12ea-.out
 38 41 0 0 0
SMALL
GASTEIGER

@<TRIPOS>ATOM
      1 C           0.1763    1.8460    0.0000 C.ar    1  LIG1        0.1081
      2 C           1.5558    1.8460    0.0000 C.ar    1  LIG1        0.0630
      3 C           1.9706    3.2334    0.0000 C.ar    1  LIG1        0.0027
      4 C           0.8165    3.9895   -0.0001 C.ar    1  LIG1        0.1721
      5 O          -0.3030    3.1567   -0.0002 O.2     1  LIG1       -0.4585
      6 H          -0.7504    0.9343    0.0000 H       1  LIG1        0.1042
      7 C           2.3515    0.8179    0.0001 C.1     1  LIG1       -0.0665
      8 C           3.0867   -0.1320    0.0002 C.1     1  LIG1       -0.1138
      9 H           3.7416   -0.9782    0.0003 H       1  LIG1        0.1232
     10 H           3.1998    3.6567    0.0000 H       1  LIG1        0.0669
     11 C           0.5416    5.2601   -0.0001 C.ar    1  LIG1        0.1860
     12 C           1.2792    6.4258   -0.0001 C.ar    1  LIG1        0.0741
     13 C           0.3286    7.5182   -0.0001 C.ar    1  LIG1        0.0035
     14 C          -0.9274    6.9472   -0.0002 C.ar    1  LIG1        0.1732
     15 O          -0.8223    5.5559   -0.0003 O.2     1  LIG1       -0.4473
     16 C           2.5734    6.5485   -0.0000 C.1     1  LIG1       -0.0657
     17 C           3.7693    6.6618    0.0001 C.1     1  LIG1       -0.1138
     18 H           4.8345    6.7627    0.0002 H       1  LIG1        0.1232
     19 H           0.6282    8.7832   -0.0001 H       1  LIG1        0.0669
     20 C          -2.1481    7.3943   -0.0002 C.ar    1  LIG1        0.1860
     21 C          -3.4042    6.8241   -0.0002 C.ar    1  LIG1        0.0741
     22 C          -4.3554    7.9160   -0.0002 C.ar    1  LIG1        0.0035
     23 C          -3.6171    9.0815   -0.0003 C.ar    1  LIG1        0.1731
     24 O          -2.2534    8.7859   -0.0004 O.2     1  LIG1       -0.4473
     25 C          -3.7038    5.5591   -0.0001 C.1     1  LIG1       -0.0657
     26 C          -3.9806    4.3902   -0.0001 C.1     1  LIG1       -0.1138
     27 H          -4.2271    3.3490   -0.0000 H       1  LIG1        0.1232
     28 H          -5.6496    7.7933   -0.0002 H       1  LIG1        0.0669
     29 C          -3.8920   10.3521   -0.0003 C.ar    1  LIG1        0.1850
     30 C          -5.0455   11.1087   -0.0003 C.ar    1  LIG1        0.0734
     31 C          -4.6315   12.4963   -0.0002 C.ar    1  LIG1       -0.0077
     32 C          -3.2517   12.4956   -0.0003 C.ar    1  LIG1        0.0939
     33 O          -2.7723   11.1852   -0.0004 O.2     1  LIG1       -0.4586
     34 H          -2.3250   13.4073   -0.0003 H       1  LIG1        0.1030
     35 C          -6.2747   10.6854   -0.0002 C.1     1  LIG1       -0.0658
     36 C          -7.4104   10.2943   -0.0001 C.1     1  LIG1       -0.1138
     37 H          -8.4221    9.9459   -0.0001 H       1  LIG1        0.1232
     38 H          -5.4271   13.5243   -0.0002 H       1  LIG1        0.0661
@<TRIPOS>BOND
     1    33    32   ar
     2    33    29   ar
     3    24    23   ar
     4    24    20   ar
     5    15    14   ar
     6    15    11   ar
     7    32    34    1
     8    32    31   ar
     9    23    29    1
    10    23    22   ar
    11    30    29   ar
    12    30    31   ar
    13    30    35    1
    14    21    22   ar
    15    21    20   ar
    16    21    25    1
    17    31    38    1
    18    28    22    1
    19    20    14    1
    20     5     4   ar
    21     5     1   ar
    22    14    13   ar
    23    35    36    3
    24    25    26    3
    25    36    37    1
    26    19    13    1
    27     4    11    1
    28     4     3   ar
    29    13    12   ar
    30    12    11   ar
    31    12    16    1
    32    26    27    1
    33     6     1    1
    34    10     3    1
    35     1     2   ar
    36     3     2   ar
    37    16    17    3
    38     2     7    1
    39    17    18    1
    40     7     8    3
    41     8     9    1
