@<TRIPOS>MOLECULE
mol_data/noopt/geoms/mol2/12ea4aa(80)12ld(190)12ii(240).out
 46 49 0 0 0
SMALL
GASTEIGER

@<TRIPOS>ATOM
      1 C           0.1763    1.8460    0.0000 C.ar    1  LIG1        0.1079
      2 C           1.5558    1.8460    0.0000 C.ar    1  LIG1        0.0629
      3 C           1.9706    3.2334    0.0000 C.ar    1  LIG1       -0.0004
      4 C           0.8165    3.9895   -0.0001 C.ar    1  LIG1        0.1360
      5 O          -0.3030    3.1567   -0.0002 O.2     1  LIG1       -0.4617
      6 H          -0.7504    0.9343    0.0000 H       1  LIG1        0.1042
      7 C           2.3515    0.8179    0.0001 C.1     1  LIG1       -0.0665
      8 C           3.0867   -0.1320    0.0002 C.1     1  LIG1       -0.1138
      9 H           3.7416   -0.9782    0.0003 H       1  LIG1        0.1232
     10 H           3.1998    3.6567    0.0000 H       1  LIG1        0.0668
     11 C           0.5998    5.9914    1.2039 C.ar    1  LIG1       -0.0504
     12 C           0.2917    7.3645    1.1513 C.ar    1  LIG1       -0.0503
     13 C           0.5416    5.2600   -0.0001 C.ar    1  LIG1        0.0173
     14 C          -0.0586    7.9844   -0.0460 C.ar    1  LIG1        0.0210
     15 H           0.3303    7.9475    2.0688 H       1  LIG1        0.0625
     16 C           0.1920    5.8784   -1.1957 C.ar    1  LIG1       -0.0504
     17 C          -0.1103    7.2437   -1.2275 C.ar    1  LIG1       -0.0503
     18 H           0.1541    5.2928   -2.1108 H       1  LIG1        0.0625
     19 H           0.9200    5.4694    2.3507 H       1  LIG1        0.0625
     20 H          -0.4366    7.8162   -2.3481 H       1  LIG1        0.0625
     21 C          -0.3369    9.2542   -0.0582 C.ar    1  LIG1        0.1785
     22 C          -1.4810   10.0087   -0.2151 C.ar    1  LIG1        0.1838
     23 C          -1.0789   11.3966   -0.1205 C.ar    1  LIG1        0.1427
     24 C           0.2850   11.3981    0.0882 C.ar    1  LIG1        0.1918
     25 O           0.7656   10.0888    0.1305 O.2     1  LIG1       -0.4466
     26 O          -2.6939    9.5835   -0.4108 O.3     1  LIG1       -0.4901
     27 C          -3.5851   10.6996   -0.4827 C.3     1  LIG1        0.0790
     28 H          -4.5832   10.3492   -0.6439 H       1  LIG1        0.0660
     29 H          -3.5437   11.2488    0.4347 H       1  LIG1        0.0660
     30 H          -3.2953   11.3359   -1.2926 H       1  LIG1        0.0660
     31 N          -2.5691   13.3284   -0.3021 N.1     1  LIG1       -0.1906
     32 C          -1.8707   12.4231   -0.2170 C.1     1  LIG1        0.1068
     33 C           1.1963   12.3110    0.2493 C.ar    1  LIG1        0.1742
     34 C           1.5797   13.4486   -0.4303 C.ar    1  LIG1        0.0013
     35 C           2.6899   14.0170    0.3053 C.ar    1  LIG1       -0.0091
     36 C           2.9114   13.1886    1.3863 C.ar    1  LIG1        0.0959
     37 O           2.0030   12.1297    1.3736 O.2     1  LIG1       -0.4593
     38 H           3.7462   13.1692    2.3826 H       1  LIG1        0.1032
     39 C           1.0634   13.9371   -1.5192 C.3     1  LIG1       -0.0358
     40 H           0.0145   13.7268   -1.5422 H       1  LIG1        0.0279
     41 H           1.5354   13.4904   -2.3693 H       1  LIG1        0.0279
     42 H           1.2156   14.9960   -1.5422 H       1  LIG1        0.0279
     43 C           3.3352   15.0999   -0.0136 C.3     1  LIG1       -0.0365
     44 H           2.8251   15.9504    0.3880 H       1  LIG1        0.0279
     45 H           3.3855   15.1845   -1.0791 H       1  LIG1        0.0279
     46 H           4.3261   15.0559    0.3879 H       1  LIG1        0.0279
@<TRIPOS>BOND
     1    41    39    1
     2    20    17    1
     3    18    16    1
     4    40    39    1
     5    42    39    1
     6    39    34    1
     7    30    27    1
     8    17    16   ar
     9    17    14   ar
    10    16    13   ar
    11    45    43    1
    12    28    27    1
    13    27    26    1
    14    27    29    1
    15    34    33   ar
    16    34    35   ar
    17    26    22    1
    18    31    32    3
    19    32    23    1
    20    22    23   ar
    21    22    21   ar
    22    23    24   ar
    23    21    14    1
    24    21    25   ar
    25    14    12   ar
    26    43    35    1
    27    43    46    1
    28    43    44    1
    29     5     4   ar
    30     5     1   ar
    31    13     4    1
    32    13    11   ar
    33     4     3   ar
    34     1     2   ar
    35     1     6    1
    36     2     3   ar
    37     2     7    1
    38     3    10    1
    39     7     8    3
    40     8     9    1
    41    24    25   ar
    42    24    33    1
    43    33    37   ar
    44    35    36   ar
    45    12    11   ar
    46    12    15    1
    47    11    19    1
    48    37    36   ar
    49    36    38    1
