@<TRIPOS>MOLECULE
mol_data/noopt/geoms/mol2/12ea4ai-4ea-4ad.out
 47 50 0 0 0
SMALL
GASTEIGER

@<TRIPOS>ATOM
      1 C           0.1763    1.8460    0.0000 C.ar    1  LIG1        0.1079
      2 C           1.5558    1.8460    0.0000 C.ar    1  LIG1        0.0629
      3 C           1.9706    3.2334    0.0000 C.ar    1  LIG1       -0.0004
      4 C           0.8165    3.9895   -0.0001 C.ar    1  LIG1        0.1360
      5 O          -0.3030    3.1567   -0.0002 O.2     1  LIG1       -0.4617
      6 H          -0.7504    0.9343    0.0000 H       1  LIG1        0.1042
      7 C           2.3515    0.8179    0.0001 C.1     1  LIG1       -0.0665
      8 C           3.0867   -0.1320    0.0002 C.1     1  LIG1       -0.1138
      9 H           3.7416   -0.9782    0.0003 H       1  LIG1        0.1232
     10 H           3.1998    3.6567    0.0000 H       1  LIG1        0.0668
     11 C           1.5877    6.2051    0.0220 C.ar    1  LIG1       -0.0505
     12 C           1.2377    7.5692    0.0226 C.ar    1  LIG1       -0.0531
     13 C           0.5416    5.2600   -0.0001 C.ar    1  LIG1        0.0176
     14 C          -0.0943    7.9766    0.0015 C.ar    1  LIG1       -0.0138
     15 H           2.0291    8.3151    0.0396 H       1  LIG1        0.0624
     16 C          -0.7883    5.6663   -0.0212 C.ar    1  LIG1       -0.0476
     17 C          -1.1157    7.0262   -0.0206 C.ar    1  LIG1       -0.0420
     18 H          -1.5769    4.9183   -0.0379 H       1  LIG1        0.0627
     19 H           2.8479    5.8865    0.0420 H       1  LIG1        0.0625
     20 C          -2.3610    7.4000   -0.0402 C.3     1  LIG1       -0.0391
     21 H          -2.9611    6.6680    0.4588 H       1  LIG1        0.0278
     22 H          -2.6880    7.4982   -1.0543 H       1  LIG1        0.0278
     23 H          -2.4586    8.3416    0.4587 H       1  LIG1        0.0278
     24 C           0.6553   10.1996    0.0252 C.ar    1  LIG1        0.0330
     25 C           0.2920   11.5602    0.0270 C.ar    1  LIG1       -0.0380
     26 C          -0.3815    9.2445    0.0026 C.ar    1  LIG1       -0.0022
     27 C          -1.0438   11.9547    0.0065 C.ar    1  LIG1       -0.0167
     28 H           1.0763   12.3138    0.0445 H       1  LIG1        0.0636
     29 C          -1.7153    9.6378   -0.0179 C.ar    1  LIG1       -0.0523
     30 C          -2.0560   10.9944   -0.0162 C.ar    1  LIG1       -0.0534
     31 H          -2.4966    8.8822   -0.0351 H       1  LIG1        0.0624
     32 C           1.9185    9.8933    0.0448 C.1     1  LIG1       -0.0690
     33 C           3.0858    9.6103    0.0628 C.1     1  LIG1       -0.1139
     34 H           4.1255    9.3582    0.0789 H       1  LIG1        0.1232
     35 H          -3.3045   11.3561   -0.0353 H       1  LIG1        0.0624
     36 C          -0.3157   14.1849    0.0105 C.ar    1  LIG1       -0.0540
     37 C          -0.6921   15.5420    0.0144 C.ar    1  LIG1       -0.0600
     38 C          -1.3434   13.2197    0.0086 C.ar    1  LIG1       -0.0166
     39 C          -2.0319   15.9234    0.0157 C.ar    1  LIG1       -0.0443
     40 H           0.0849   16.3032    0.0161 H       1  LIG1        0.0618
     41 C          -2.6811   13.6000    0.0099 C.ar    1  LIG1       -0.0366
     42 C          -3.0349   14.9532    0.0133 C.ar    1  LIG1        0.0523
     43 H          -3.4551   12.8368    0.0084 H       1  LIG1        0.0636
     44 H          -2.3437   17.1855    0.0191 H       1  LIG1        0.0630
     45 H           0.9507   13.8910    0.0093 H       1  LIG1        0.0624
     46 N          -5.3914   15.6110    0.0158 N.1     1  LIG1       -0.1909
     47 C          -4.2870   15.3027    0.0146 C.1     1  LIG1        0.0992
@<TRIPOS>BOND
     1    22    20    1
     2    20    17    1
     3    20    23    1
     4    20    21    1
     5    18    16    1
     6    35    30    1
     7    31    29    1
     8    16    17   ar
     9    16    13   ar
    10    17    14   ar
    11    29    30   ar
    12    29    26   ar
    13    30    27   ar
    14     5     4   ar
    15     5     1   ar
    16    13     4    1
    17    13    11   ar
    18     4     3   ar
    19     2     1   ar
    20     2     3   ar
    21     2     7    1
    22    10     3    1
    23     1     6    1
    24     7     8    3
    25     8     9    1
    26    14    26    1
    27    14    12   ar
    28    26    24   ar
    29    27    38    1
    30    27    25   ar
    31    43    41    1
    32    38    41   ar
    33    38    36   ar
    34    45    36    1
    35    41    42   ar
    36    36    37   ar
    37    42    47    1
    38    42    39   ar
    39    37    39   ar
    40    37    40    1
    41    47    46    3
    42    39    44    1
    43    11    12   ar
    44    11    19    1
    45    12    15    1
    46    24    25   ar
    47    24    32    1
    48    25    28    1
    49    32    33    3
    50    33    34    1
