@<TRIPOS>MOLECULE
mol_data/noopt/geoms/mol2/12ea12ea12ea-12ea.out
 38 41 0 0 0
SMALL
GASTEIGER

@<TRIPOS>ATOM
      1 C           0.1763    1.8460    0.0000 C.ar    1  LIG1        0.1081
      2 C           1.5558    1.8460    0.0000 C.ar    1  LIG1        0.0630
      3 C           1.9706    3.2334    0.0000 C.ar    1  LIG1        0.0027
      4 C           0.8165    3.9895   -0.0001 C.ar    1  LIG1        0.1721
      5 O          -0.3030    3.1567   -0.0002 O.2     1  LIG1       -0.4585
      6 H          -0.7504    0.9343    0.0000 H       1  LIG1        0.1042
      7 C           2.3515    0.8179    0.0001 C.1     1  LIG1       -0.0665
      8 C           3.0867   -0.1320    0.0002 C.1     1  LIG1       -0.1138
      9 H           3.7416   -0.9782    0.0003 H       1  LIG1        0.1232
     10 H           3.1998    3.6567    0.0000 H       1  LIG1        0.0669
     11 C           0.5416    5.2601   -0.0001 C.ar    1  LIG1        0.1860
     12 C           1.2792    6.4258   -0.0001 C.ar    1  LIG1        0.0741
     13 C           0.3286    7.5182   -0.0001 C.ar    1  LIG1        0.0035
     14 C          -0.9274    6.9472   -0.0002 C.ar    1  LIG1        0.1732
     15 O          -0.8223    5.5559   -0.0003 O.2     1  LIG1       -0.4473
     16 C           2.5734    6.5485   -0.0000 C.1     1  LIG1       -0.0657
     17 C           3.7693    6.6618    0.0001 C.1     1  LIG1       -0.1138
     18 H           4.8345    6.7627    0.0002 H       1  LIG1        0.1232
     19 H           0.6282    8.7832   -0.0001 H       1  LIG1        0.0669
     20 C          -2.1481    7.3943   -0.0002 C.ar    1  LIG1        0.1860
     21 C          -3.4042    6.8241   -0.0002 C.ar    1  LIG1        0.0741
     22 C          -4.3554    7.9160   -0.0002 C.ar    1  LIG1        0.0035
     23 C          -3.6171    9.0815   -0.0003 C.ar    1  LIG1        0.1731
     24 O          -2.2534    8.7859   -0.0004 O.2     1  LIG1       -0.4473
     25 C          -3.7038    5.5591   -0.0001 C.1     1  LIG1       -0.0657
     26 C          -3.9806    4.3902   -0.0001 C.1     1  LIG1       -0.1138
     27 H          -4.2271    3.3490   -0.0000 H       1  LIG1        0.1232
     28 H          -5.6496    7.7933   -0.0002 H       1  LIG1        0.0669
     29 C          -3.8920   10.3521   -0.0003 C.ar    1  LIG1        0.1850
     30 C          -3.1543   11.5178   -0.0002 C.ar    1  LIG1        0.0734
     31 C          -4.1049   12.6102   -0.0002 C.ar    1  LIG1       -0.0077
     32 C          -5.3610   12.0393   -0.0003 C.ar    1  LIG1        0.0939
     33 O          -5.2558   10.6479   -0.0004 O.2     1  LIG1       -0.4586
     34 H          -6.5817   12.4864   -0.0003 H       1  LIG1        0.1030
     35 C          -1.8601   11.6405   -0.0001 C.1     1  LIG1       -0.0658
     36 C          -0.6643   11.7538   -0.0000 C.1     1  LIG1       -0.1138
     37 H           0.4009   11.8548    0.0000 H       1  LIG1        0.1232
     38 H          -3.8054   13.8752   -0.0002 H       1  LIG1        0.0661
@<TRIPOS>BOND
     1    33    32   ar
     2    33    29   ar
     3    24    23   ar
     4    24    20   ar
     5    32    34    1
     6    32    31   ar
     7    15    14   ar
     8    15    11   ar
     9    23    29    1
    10    23    22   ar
    11    29    30   ar
    12    30    31   ar
    13    30    35    1
    14    21    22   ar
    15    21    20   ar
    16    21    25    1
    17    28    22    1
    18    31    38    1
    19     5     4   ar
    20     5     1   ar
    21    14    20    1
    22    14    13   ar
    23    25    26    3
    24    35    36    3
    25    19    13    1
    26     4    11    1
    27     4     3   ar
    28    13    12   ar
    29    12    11   ar
    30    12    16    1
    31    26    27    1
    32    36    37    1
    33     2     3   ar
    34     2     1   ar
    35     2     7    1
    36     3    10    1
    37     6     1    1
    38    16    17    3
    39    17    18    1
    40     7     8    3
    41     8     9    1
