@<TRIPOS>MOLECULE
mol_data/noopt/geoms/mol2/12ea12hi13al-12la.out
 46 47 0 0 0
SMALL
GASTEIGER

@<TRIPOS>ATOM
      1 C           0.1763    1.8460    0.0000 C.ar    1  LIG1        0.1081
      2 C           1.5558    1.8460    0.0000 C.ar    1  LIG1        0.0630
      3 C           1.9706    3.2334    0.0000 C.ar    1  LIG1        0.0027
      4 C           0.8165    3.9895   -0.0001 C.ar    1  LIG1        0.1727
      5 O          -0.3030    3.1567   -0.0002 O.2     1  LIG1       -0.4585
      6 H          -0.7504    0.9343    0.0000 H       1  LIG1        0.1042
      7 C           2.3515    0.8179    0.0001 C.1     1  LIG1       -0.0665
      8 C           3.0867   -0.1320    0.0002 C.1     1  LIG1       -0.1138
      9 H           3.7416   -0.9782    0.0003 H       1  LIG1        0.1232
     10 H           3.1998    3.6567    0.0000 H       1  LIG1        0.0669
     11 C           0.5416    5.2601   -0.0001 C.ar    1  LIG1        0.1914
     12 C           1.2791    6.4258    0.0147 C.ar    1  LIG1        0.0777
     13 C           0.3286    7.5182    0.0040 C.ar    1  LIG1        0.0182
     14 C          -0.9273    6.9473   -0.0167 C.ar    1  LIG1        0.1566
     15 O          -0.8221    5.5559   -0.0197 O.2     1  LIG1       -0.4481
     16 N           2.5732    6.5484    0.0345 N.pl3   1  LIG1       -0.3547
     17 H           2.9892    5.7677   -0.4317 H       1  LIG1        0.1424
     18 H           2.8351    7.3933   -0.4318 H       1  LIG1        0.1424
     19 C           0.6282    8.7835    0.0126 C.3     1  LIG1       -0.0343
     20 H          -0.1406    9.3286    0.5194 H       1  LIG1        0.0279
     21 H           0.7118    9.1371   -0.9939 H       1  LIG1        0.0279
     22 H           1.5598    8.9260    0.5193 H       1  LIG1        0.0279
     23 C          -2.1479    7.3944   -0.0335 C.ar    1  LIG1        0.0835
     24 C          -2.6203    8.6690   -0.0286 C.ar    1  LIG1       -0.0249
     25 C          -4.0502    8.5952   -0.0534 C.ar    1  LIG1        0.0134
     26 C          -4.3886    7.2788   -0.0740 C.ar    1  LIG1        0.0941
     27 N          -3.2270    6.5401   -0.0615 N.ar    1  LIG1       -0.3488
     28 H          -3.1755    5.5475   -0.0717 H       1  LIG1        0.1661
     29 H          -1.9030    9.7530   -0.0044 H       1  LIG1        0.0646
     30 O          -4.8757    9.5995   -0.0561 O.3     2  HOH2        0.0000
     31 C          -4.1375   10.8242   -0.0572 C.3     3  LIG3       -0.0681
     32 H          -4.8173   11.6505   -0.0597 H       1  LIG1        0.0227
     33 H          -3.5226   10.8708    0.8173 H       1  LIG1        0.0227
     34 H          -3.5201   10.8677   -0.9300 H       1  LIG1        0.0227
     35 C          -5.5565    6.7083   -0.1001 C.ar    1  LIG1        0.1928
     36 C          -6.8647    7.1459   -0.1051 C.ar    1  LIG1        0.1670
     37 C          -7.6979    5.9620   -0.1413 C.ar    1  LIG1        0.0187
     38 C          -6.8431    4.8791   -0.1561 C.ar    1  LIG1        0.0963
     39 O          -5.5174    5.3136   -0.1314 O.2     1  LIG1       -0.4576
     40 H          -6.9852    3.5873   -0.1869 H       1  LIG1        0.1031
     41 O          -7.2934    8.3730   -0.0822 O.3     1  LIG1       -0.4913
     42 C          -6.1782    9.2681   -0.0738 C.3     1  LIG1        0.0790
     43 H          -6.5315   10.2779   -0.0551 H       1  LIG1        0.0660
     44 H          -5.5793    9.0836    0.7935 H       1  LIG1        0.0660
     45 H          -5.5894    9.1125   -0.9535 H       1  LIG1        0.0660
     46 H          -8.9978    5.9506   -0.1563 H       1  LIG1        0.0686
@<TRIPOS>BOND
     1    21    19    1
     2    45    42    1
     3    34    31    1
     4    18    16    1
     5    17    16    1
     6    40    38    1
     7    46    37    1
     8    38    37   ar
     9    38    39   ar
    10    37    36   ar
    11    39    35   ar
    12    36    35   ar
    13    36    41    1
    14    35    26    1
    15    41    42    1
    16    26    27   ar
    17    26    25   ar
    18    42    43    1
    19    42    44    1
    20    28    27    1
    21    27    23   ar
    22    32    31    1
    23    31    33    1
    24    25    24   ar
    25    23    24   ar
    26    23    14    1
    27    24    29    1
    28    15    14   ar
    29    15    11   ar
    30    14    13   ar
    31     5     4   ar
    32     5     1   ar
    33     4    11    1
    34     4     3   ar
    35    11    12   ar
    36     2     1   ar
    37     2     3   ar
    38     2     7    1
    39     1     6    1
    40     3    10    1
    41     7     8    3
    42     8     9    1
    43    13    19    1
    44    13    12   ar
    45    19    22    1
    46    19    20    1
    47    12    16    1
