@<TRIPOS>MOLECULE
mol_data/noopt/geoms/mol2/12ea12ea12ea.out
 29 31 0 0 0
SMALL
GASTEIGER

@<TRIPOS>ATOM
      1 C           0.1763    1.8460    0.0000 C.ar    1  LIG1        0.1081
      2 C           1.5558    1.8460    0.0000 C.ar    1  LIG1        0.0630
      3 C           1.9706    3.2334    0.0000 C.ar    1  LIG1        0.0027
      4 C           0.8165    3.9895   -0.0001 C.ar    1  LIG1        0.1721
      5 O          -0.3030    3.1567   -0.0002 O.2     1  LIG1       -0.4585
      6 H          -0.7504    0.9343    0.0000 H       1  LIG1        0.1042
      7 C           2.3515    0.8179    0.0001 C.1     1  LIG1       -0.0665
      8 C           3.0867   -0.1320    0.0002 C.1     1  LIG1       -0.1138
      9 H           3.7416   -0.9782    0.0003 H       1  LIG1        0.1232
     10 H           3.1998    3.6567    0.0000 H       1  LIG1        0.0669
     11 C           0.5416    5.2601   -0.0001 C.ar    1  LIG1        0.1860
     12 C           1.2792    6.4258   -0.0001 C.ar    1  LIG1        0.0741
     13 C           0.3286    7.5182   -0.0001 C.ar    1  LIG1        0.0035
     14 C          -0.9274    6.9472   -0.0002 C.ar    1  LIG1        0.1731
     15 O          -0.8223    5.5559   -0.0003 O.2     1  LIG1       -0.4473
     16 C           2.5734    6.5485   -0.0000 C.1     1  LIG1       -0.0657
     17 C           3.7693    6.6618    0.0001 C.1     1  LIG1       -0.1138
     18 H           4.8345    6.7627    0.0002 H       1  LIG1        0.1232
     19 H           0.6282    8.7832   -0.0001 H       1  LIG1        0.0669
     20 C          -2.1481    7.3943   -0.0002 C.ar    1  LIG1        0.1850
     21 C          -2.7387    8.6410   -0.0002 C.ar    1  LIG1        0.0734
     22 C          -4.1701    8.4218   -0.0002 C.ar    1  LIG1       -0.0077
     23 C          -4.3593    7.0551   -0.0003 C.ar    1  LIG1        0.0939
     24 O          -3.1273    6.4000   -0.0004 O.2     1  LIG1       -0.4586
     25 H          -5.3898    6.2627   -0.0003 H       1  LIG1        0.1030
     26 C          -2.1504    9.8002   -0.0001 C.1     1  LIG1       -0.0658
     27 C          -1.6067   10.8713   -0.0000 C.1     1  LIG1       -0.1138
     28 H          -1.1224   11.8255    0.0001 H       1  LIG1        0.1232
     29 H          -5.0789    9.3514   -0.0002 H       1  LIG1        0.0661
@<TRIPOS>BOND
     1    24    23   ar
     2    24    20   ar
     3    25    23    1
     4    23    22   ar
     5    15    14   ar
     6    15    11   ar
     7    29    22    1
     8    22    21   ar
     9    21    20   ar
    10    21    26    1
    11    20    14    1
    12    14    13   ar
    13     5     4   ar
    14     5     1   ar
    15    11    12   ar
    16    11     4    1
    17    12    13   ar
    18    12    16    1
    19    13    19    1
    20    26    27    3
    21     4     3   ar
    22    27    28    1
    23    10     3    1
    24     1     2   ar
    25     1     6    1
    26     2     3   ar
    27     2     7    1
    28    16    17    3
    29    17    18    1
    30     7     8    3
    31     8     9    1
