@<TRIPOS>MOLECULE
mol_data/noopt/geoms/mol2/12ed4ia(140)13ai(90)6eh(80).out
 49 52 0 0 0
SMALL
GASTEIGER

@<TRIPOS>ATOM
      1 C           0.1763    1.8460    0.0000 C.ar    1  LIG1        0.1092
      2 C           1.5558    1.8460    0.0000 C.ar    1  LIG1        0.0804
      3 C           1.9706    3.2334    0.0000 C.ar    1  LIG1        0.1127
      4 C           0.8165    3.9895   -0.0001 C.ar    1  LIG1        0.1536
      5 O          -0.3030    3.1567   -0.0002 O.2     1  LIG1       -0.4603
      6 H          -0.7504    0.9343    0.0000 H       1  LIG1        0.1042
      7 C           2.3515    0.8179    0.0001 C.1     1  LIG1       -0.0652
      8 C           3.0867   -0.1320    0.0002 C.1     1  LIG1       -0.1138
      9 H           3.7416   -0.9782    0.0003 H       1  LIG1        0.1232
     10 N           4.2839    4.0300    0.0000 N.1     1  LIG1       -0.1907
     11 C           3.1998    3.6567    0.0000 C.1     1  LIG1        0.1042
     12 C          -0.5227    5.7485    0.7851 C.ar    1  LIG1       -0.0391
     13 C          -0.7811    7.1324    0.7494 C.ar    1  LIG1       -0.0490
     14 C           0.5416    5.2600   -0.0001 C.ar    1  LIG1        0.0215
     15 C          -0.0146    7.9939   -0.0322 C.ar    1  LIG1       -0.0014
     16 H          -1.5978    7.5304    1.3476 H       1  LIG1        0.0627
     17 C           1.3071    6.1196   -0.7806 C.ar    1  LIG1       -0.0502
     18 C           1.0351    7.4915   -0.8023 C.ar    1  LIG1       -0.0519
     19 H           2.1224    5.7187   -1.3774 H       1  LIG1        0.0625
     20 C          -1.2724    4.9950    1.5340 C.3     1  LIG1       -0.0390
     21 H          -0.6538    4.3780    2.1518 H       1  LIG1        0.0278
     22 H          -1.8878    4.3763    0.9148 H       1  LIG1        0.0278
     23 H          -1.8925    5.6104    2.1517 H       1  LIG1        0.0278
     24 H           1.7540    8.2902   -1.5339 H       1  LIG1        0.0624
     25 C          -0.2808    9.2663   -0.0413 C.ar    1  LIG1        0.0472
     26 C          -0.4624   10.1367    0.9870 C.ar    1  LIG1       -0.0329
     27 C          -0.7328   11.4221    0.4166 C.ar    1  LIG1       -0.0245
     28 C          -0.7029   11.2810   -0.9352 C.ar    1  LIG1        0.0526
     29 N          -0.4269    9.9626   -1.2198 N.ar    1  LIG1       -0.3539
     30 H          -0.3454    9.5751   -2.1316 H       1  LIG1        0.1659
     31 H          -0.4025    9.8508    2.2537 H       1  LIG1        0.0641
     32 C          -0.9643   12.5234    1.0680 C.3     1  LIG1       -0.0377
     33 H          -1.8308   12.3985    1.6832 H       1  LIG1        0.0278
     34 H          -1.1319   13.3201    0.3736 H       1  LIG1        0.0278
     35 H          -0.1208   12.7579    1.6832 H       1  LIG1        0.0278
     36 C          -1.0154   11.7418   -3.2174 C.ar    1  LIG1        0.1223
     37 C          -0.8867   12.1559   -1.8790 C.ar    1  LIG1        0.0341
     38 C          -0.9612   13.5204   -1.5931 C.ar    1  LIG1       -0.0278
     39 C          -1.1598   14.4172   -2.6442 C.ar    1  LIG1        0.0436
     40 C          -1.2767   13.9063   -3.9499 C.ar    1  LIG1        0.0496
     41 N          -1.2074   12.5932   -4.2435 N.ar    1  LIG1       -0.2442
     42 H          -0.8640   13.8816   -0.5595 H       1  LIG1        0.0644
     43 H          -1.4625   14.7014   -4.9615 H       1  LIG1        0.0849
     44 C          -0.9531   10.4823   -3.5333 C.1     1  LIG1       -0.0491
     45 C          -0.8954    9.3186   -3.8253 C.1     1  LIG1       -0.1124
     46 H          -0.8441    8.2819   -4.0854 H       1  LIG1        0.1232
     47 N          -1.2361   15.6973   -2.4301 N.pl3   1  LIG1       -0.3568
     48 H          -0.4452   16.1515   -2.8402 H       1  LIG1        0.1424
     49 H          -2.0753   16.0544   -2.8403 H       1  LIG1        0.1424
@<TRIPOS>BOND
     1    43    40    1
     2    41    40   ar
     3    41    36   ar
     4    46    45    1
     5    40    39   ar
     6    45    44    3
     7    44    36    1
     8    36    37   ar
     9    49    47    1
    10    48    47    1
    11    39    47    1
    12    39    38   ar
    13    30    29    1
    14    37    38   ar
    15    37    28    1
    16    38    42    1
    17    24    18    1
    18    19    17    1
    19    29    28   ar
    20    29    25   ar
    21    28    27   ar
    22    18    17   ar
    23    18    15   ar
    24    17    14   ar
    25    25    15    1
    26    25    26   ar
    27    15    13   ar
    28     5     4   ar
    29     5     1   ar
    30     4    14    1
    31     4     3   ar
    32    14    12   ar
    33     2     3   ar
    34     2     1   ar
    35     2     7    1
    36     3    11    1
    37     6     1    1
    38    10    11    3
    39     7     8    3
    40     8     9    1
    41    34    32    1
    42    27    26   ar
    43    27    32    1
    44    13    12   ar
    45    13    16    1
    46    12    20    1
    47    22    20    1
    48    26    31    1
    49    32    35    1
    50    32    33    1
    51    20    23    1
    52    20    21    1
