@<TRIPOS>MOLECULE
mol_data/noopt/geoms/mol2/12ed12ii(10)12hh(300)6hh(110).out
 49 52 0 0 0
SMALL
GASTEIGER

@<TRIPOS>ATOM
      1 C           0.1763    1.8460    0.0000 C.ar    1  LIG1        0.1094
      2 C           1.5558    1.8460    0.0000 C.ar    1  LIG1        0.0805
      3 C           1.9706    3.2334    0.0000 C.ar    1  LIG1        0.1158
      4 C           0.8165    3.9895   -0.0001 C.ar    1  LIG1        0.1885
      5 O          -0.3030    3.1567   -0.0002 O.2     1  LIG1       -0.4572
      6 H          -0.7504    0.9343    0.0000 H       1  LIG1        0.1043
      7 C           2.3515    0.8179    0.0001 C.1     1  LIG1       -0.0652
      8 C           3.0867   -0.1320    0.0002 C.1     1  LIG1       -0.1138
      9 H           3.7416   -0.9782    0.0003 H       1  LIG1        0.1232
     10 N           4.2839    4.0300    0.0000 N.1     1  LIG1       -0.1907
     11 C           3.1998    3.6567    0.0000 C.1     1  LIG1        0.1043
     12 C           0.5416    5.2601   -0.0001 C.ar    1  LIG1        0.1752
     13 C           1.2682    6.4234    0.1476 C.ar    1  LIG1        0.0020
     14 C           0.3256    7.5175    0.0410 C.ar    1  LIG1        0.0021
     15 C          -0.9150    6.9499   -0.1649 C.ar    1  LIG1        0.1758
     16 O          -0.8077    5.5591   -0.1942 O.2     1  LIG1       -0.4480
     17 C           2.5479    6.5429    0.3448 C.3     1  LIG1       -0.0357
     18 H           2.7415    7.4384    0.8975 H       1  LIG1        0.0279
     19 H           3.0512    6.5900   -0.5983 H       1  LIG1        0.0279
     20 H           2.9039    5.6986    0.8974 H       1  LIG1        0.0279
     21 C           0.6188    8.7815    0.1266 C.3     1  LIG1       -0.0357
     22 H          -0.1593    9.2933    0.6534 H       1  LIG1        0.0279
     23 H           0.7141    9.1928   -0.8566 H       1  LIG1        0.0279
     24 H           1.5428    8.8984    0.6533 H       1  LIG1        0.0279
     25 C          -2.1231    7.3997   -0.3326 C.ar    1  LIG1        0.1932
     26 C          -2.7536    8.2026   -1.2605 C.ar    1  LIG1        0.0957
     27 C          -4.1371    8.3078   -0.8461 C.ar    1  LIG1        0.0928
     28 C          -4.2604    7.5618    0.3080 C.ar    1  LIG1        0.1616
     29 O          -3.0321    6.9920    0.6447 O.2     1  LIG1       -0.4478
     30 N          -2.2324    8.7667   -2.3094 N.pl3   1  LIG1       -0.3535
     31 H          -1.7572    8.0779   -2.8568 H       1  LIG1        0.1425
     32 H          -2.9567    9.1860   -2.8569 H       1  LIG1        0.1425
     33 N          -5.0631    8.9816   -1.4614 N.pl3   1  LIG1       -0.3536
     34 H          -4.6397    9.6833   -2.0344 H       1  LIG1        0.1425
     35 H          -5.6005    8.3629   -2.0344 H       1  LIG1        0.1425
     36 C          -6.5650    7.3168    0.6912 C.ar    1  LIG1        0.1270
     37 C          -5.2282    7.2771    1.1279 C.ar    1  LIG1        0.0604
     38 C          -4.9703    6.9264    2.4543 C.ar    1  LIG1       -0.0255
     39 C          -6.0465    6.6299    3.2925 C.ar    1  LIG1        0.0437
     40 C          -7.3483    6.6975    2.7632 C.ar    1  LIG1        0.0503
     41 N          -7.6152    7.0339    1.4861 N.ar    1  LIG1       -0.2382
     42 H          -3.9387    6.8856    2.8318 H       1  LIG1        0.0644
     43 H          -8.3826    6.4304    3.5040 H       1  LIG1        0.0849
     44 N          -6.8556    7.6376   -0.5346 N.pl3   1  LIG1       -0.3426
     45 H          -6.0264    7.9384   -1.0059 H       1  LIG1        0.1437
     46 H          -7.2369    6.8424   -1.0059 H       1  LIG1        0.1437
     47 N          -5.8588    6.2982    4.5354 N.pl3   1  LIG1       -0.3568
     48 H          -6.2995    5.4189    4.7158 H       1  LIG1        0.1424
     49 H          -4.8782    6.2228    4.7159 H       1  LIG1        0.1424
@<TRIPOS>BOND
     1    32    30    1
     2    31    30    1
     3    30    26    1
     4    35    33    1
     5    34    33    1
     6    33    27    1
     7    26    27   ar
     8    26    25   ar
     9    46    44    1
    10    45    44    1
    11    23    21    1
    12    27    28   ar
    13    19    17    1
    14    44    36    1
    15    25    15    1
    16    25    29   ar
    17    16    15   ar
    18    16    12   ar
    19    15    14   ar
    20     5     4   ar
    21     5     1   ar
    22    12     4    1
    23    12    13   ar
    24     4     3   ar
    25     1     2   ar
    26     1     6    1
    27     2     3   ar
    28     2     7    1
    29     3    11    1
    30    10    11    3
    31     7     8    3
    32     8     9    1
    33    14    21    1
    34    14    13   ar
    35    21    24    1
    36    21    22    1
    37    13    17    1
    38    28    29   ar
    39    28    37    1
    40    17    20    1
    41    17    18    1
    42    36    37   ar
    43    36    41   ar
    44    37    38   ar
    45    41    40   ar
    46    38    42    1
    47    38    39   ar
    48    40    39   ar
    49    40    43    1
    50    39    47    1
    51    47    48    1
    52    47    49    1
