@<TRIPOS>MOLECULE
mol_data/noopt/geoms/mol2/12ed6fh(350)4dd12hd(130).out
 46 50 0 0 0
SMALL
GASTEIGER

@<TRIPOS>ATOM
      1 C           0.1763    1.8460    0.0000 C.ar    1  LIG1        0.1092
      2 C           1.5558    1.8460    0.0000 C.ar    1  LIG1        0.0804
      3 C           1.9706    3.2334    0.0000 C.ar    1  LIG1        0.1129
      4 C           0.8165    3.9895   -0.0001 C.ar    1  LIG1        0.1585
      5 O          -0.3030    3.1567   -0.0002 O.2     1  LIG1       -0.4602
      6 H          -0.7504    0.9343    0.0000 H       1  LIG1        0.1042
      7 C           2.3515    0.8179    0.0001 C.1     1  LIG1       -0.0652
      8 C           3.0867   -0.1320    0.0002 C.1     1  LIG1       -0.1138
      9 H           3.7416   -0.9782    0.0003 H       1  LIG1        0.1232
     10 N           4.2839    4.0300    0.0000 N.1     1  LIG1       -0.1907
     11 C           3.1998    3.6567    0.0000 C.1     1  LIG1        0.1042
     12 C          -0.7772    5.7024    0.2107 C.ar    1  LIG1        0.2239
     13 C           0.5416    5.2601   -0.0001 C.ar    1  LIG1        0.0816
     14 C           1.5396    6.2141   -0.2073 C.ar    1  LIG1       -0.0232
     15 C           1.1899    7.5655   -0.1973 C.ar    1  LIG1        0.0520
     16 C          -0.1568    7.9090    0.0217 C.ar    1  LIG1        0.0956
     17 N          -1.1323    7.0018    0.2235 N.ar    1  LIG1       -0.2106
     18 H           2.5813    5.9064   -0.3763 H       1  LIG1        0.0645
     19 O          -1.7408    4.8522    0.4082 O.3     1  LIG1       -0.4919
     20 H          -1.3796    3.9641    0.4569 H       1  LIG1        0.2938
     21 N           2.0822    8.4920   -0.3855 N.pl3   1  LIG1       -0.3355
     22 H           2.8518    8.1140   -0.9002 H       1  LIG1        0.1422
     23 H           1.6756    9.2467   -0.9002 H       1  LIG1        0.1422
     24 C           0.4365   10.1786    0.0507 C.ar    1  LIG1       -0.0097
     25 C          -0.0205   11.5105    0.0721 C.ar    1  LIG1       -0.0440
     26 C          -0.5315    9.1536    0.0401 C.ar    1  LIG1        0.0087
     27 C          -1.3808   11.8109    0.0819 C.ar    1  LIG1        0.0368
     28 H           0.7095   12.3169    0.0809 H       1  LIG1        0.0628
     29 C          -1.8896    9.4530    0.0498 C.ar    1  LIG1       -0.0341
     30 C          -2.3238   10.7825    0.0706 C.ar    1  LIG1        0.0631
     31 H          -2.6166    8.6449    0.0413 H       1  LIG1        0.0637
     32 N           2.8486    9.7693    0.0348 N.3     1  LIG1       -0.1471
     33 C           1.7182    9.9612    0.0423 C.3     1  LIG1        0.1353
     34 N          -4.7155   11.2977    0.0879 N.1     1  LIG1       -0.1908
     35 C          -3.5946   11.0562    0.0798 C.1     1  LIG1        0.0999
     36 C          -1.7676   13.0519    0.1015 C.ar    1  LIG1        0.1579
     37 C          -2.6960   13.7814    0.8150 C.ar    1  LIG1        0.0886
     38 C          -2.6147   15.1434    0.3301 C.ar    1  LIG1        0.1106
     39 C          -1.6416   15.1559   -0.6479 C.ar    1  LIG1        0.1118
     40 O          -1.1044   13.8780   -0.8070 O.2     1  LIG1       -0.4597
     41 H          -1.1265   16.0571   -1.4306 H       1  LIG1        0.1043
     42 N          -3.4986   13.3553    1.7447 N.pl3   1  LIG1       -0.3540
     43 H          -4.3849   13.8093    1.6536 H       1  LIG1        0.1425
     44 H          -3.6194   12.3669    1.6536 H       1  LIG1        0.1425
     45 N          -3.9645   17.0228    1.1249 N.1     1  LIG1       -0.1907
     46 C          -3.3319   16.1421    0.7524 C.1     1  LIG1        0.1042
@<TRIPOS>BOND
     1    41    39    1
     2    23    21    1
     3    22    21    1
     4    40    39   ar
     5    40    36   ar
     6    39    38   ar
     7    21    15    1
     8    21    32    1
     9    18    14    1
    10    14    15   ar
    11    14    13   ar
    12    15    16   ar
    13     5     4   ar
    14     5     1   ar
    15     4    13    1
    16     4     3   ar
    17    13    12   ar
    18     3     2   ar
    19     3    11    1
    20     1     2   ar
    21     1     6    1
    22     2     7    1
    23    11    10    3
    24     7     8    3
    25     8     9    1
    26    16    26    1
    27    16    17   ar
    28    32    33    1
    29    26    29   ar
    30    26    24   ar
    31    31    29    1
    32    33    24    1
    33    29    30   ar
    34    24    25   ar
    35    30    35    1
    36    30    27   ar
    37    25    28    1
    38    25    27   ar
    39    35    34    3
    40    27    36    1
    41    36    37   ar
    42    12    17   ar
    43    12    19    1
    44    38    46    1
    45    38    37   ar
    46    19    20    1
    47    46    45    3
    48    37    42    1
    49    44    42    1
    50    43    42    1
