@<TRIPOS>MOLECULE
mol_data/noopt/geoms/mol2/12ed6el(40)13da(120)12id(230).out
 47 50 0 0 0
SMALL
GASTEIGER

@<TRIPOS>ATOM
      1 C           0.1763    1.8460    0.0000 C.ar    1  LIG1        0.1092
      2 C           1.5558    1.8460    0.0000 C.ar    1  LIG1        0.0804
      3 C           1.9706    3.2334    0.0000 C.ar    1  LIG1        0.1128
      4 C           0.8165    3.9895   -0.0001 C.ar    1  LIG1        0.1561
      5 O          -0.3030    3.1567   -0.0002 O.2     1  LIG1       -0.4603
      6 H          -0.7504    0.9343    0.0000 H       1  LIG1        0.1042
      7 C           2.3515    0.8179    0.0001 C.1     1  LIG1       -0.0652
      8 C           3.0867   -0.1320    0.0002 C.1     1  LIG1       -0.1138
      9 H           3.7416   -0.9782    0.0003 H       1  LIG1        0.1232
     10 N           4.2839    4.0300    0.0000 N.1     1  LIG1       -0.1907
     11 C           3.1998    3.6567    0.0000 C.1     1  LIG1        0.1042
     12 C          -0.5181    5.7584   -0.7799 C.ar    1  LIG1        0.1248
     13 C           0.5416    5.2601   -0.0001 C.ar    1  LIG1        0.0559
     14 C           1.2842    6.1588    0.7679 C.ar    1  LIG1       -0.0044
     15 C           0.9466    7.5128    0.7314 C.ar    1  LIG1        0.1482
     16 C          -0.1304    7.9147   -0.0798 C.ar    1  LIG1        0.1312
     17 N          -0.8576    7.0612   -0.8269 N.ar    1  LIG1       -0.2325
     18 H           2.1201    5.8066    1.3889 H       1  LIG1        0.0663
     19 C          -1.2384    4.9610   -1.5115 C.1     1  LIG1       -0.0491
     20 C          -1.9040    4.2241   -2.1875 C.1     1  LIG1       -0.1124
     21 H          -2.4968    3.5678   -2.7896 H       1  LIG1        0.1232
     22 O           1.6073    8.3892    1.4282 O.3     1  LIG1       -0.4929
     23 C           2.9263    7.8995    1.6839 C.3     1  LIG1        0.0789
     24 H           3.4698    8.6212    2.2572 H       1  LIG1        0.0660
     25 H           2.8662    6.9817    2.2306 H       1  LIG1        0.0660
     26 H           3.4298    7.7292    0.7553 H       1  LIG1        0.0660
     27 C          -0.4830    9.1642   -0.1469 C.ar    1  LIG1        0.0867
     28 C          -1.2632    9.9062    0.6829 C.ar    1  LIG1        0.0793
     29 C          -1.3279   11.2295    0.1394 C.ar    1  LIG1       -0.0153
     30 C          -0.5829   11.2384   -0.9977 C.ar    1  LIG1        0.0841
     31 N          -0.0642    9.9758   -1.1770 N.ar    1  LIG1       -0.3494
     32 H           0.5205    9.6950   -1.9302 H       1  LIG1        0.1661
     33 N          -2.3553    9.1185    2.7256 N.1     1  LIG1       -0.1908
     34 C          -1.8435    9.4877    1.7683 C.1     1  LIG1        0.1014
     35 H          -1.9776   12.2388    0.6385 H       1  LIG1        0.0653
     36 C          -0.3370   12.1997   -1.8376 C.ar    1  LIG1        0.1551
     37 C          -0.9112   12.6554   -3.0062 C.ar    1  LIG1        0.0141
     38 C          -0.1227   13.7895   -3.4410 C.ar    1  LIG1        0.0929
     39 C           0.8815   13.9516   -2.5088 C.ar    1  LIG1        0.1102
     40 O           0.7705   12.9834   -1.5103 O.2     1  LIG1       -0.4599
     41 H           1.8762   14.7738   -2.3524 H       1  LIG1        0.1043
     42 C          -1.9548   12.1794   -3.6185 C.3     1  LIG1       -0.0348
     43 H          -2.0946   11.1553   -3.3415 H       1  LIG1        0.0279
     44 H          -1.8088   12.2459   -4.6765 H       1  LIG1        0.0279
     45 H          -2.8198   12.7451   -3.3416 H       1  LIG1        0.0279
     46 N          -0.5337   15.1262   -5.4486 N.1     1  LIG1       -0.1908
     47 C          -0.3410   14.4997   -4.5077 C.1     1  LIG1        0.1026
@<TRIPOS>BOND
     1    46    47    3
     2    44    42    1
     3    47    38    1
     4    42    45    1
     5    42    43    1
     6    42    37    1
     7    38    37   ar
     8    38    39   ar
     9    37    36   ar
    10    21    20    1
    11    39    41    1
    12    39    40   ar
    13    20    19    3
    14    32    31    1
    15    36    40   ar
    16    36    30    1
    17    19    12    1
    18    31    30   ar
    19    31    27   ar
    20    30    29   ar
    21    17    12   ar
    22    17    16   ar
    23    12    13   ar
    24    27    16    1
    25    27    28   ar
    26    16    15   ar
    27     5     4   ar
    28     5     1   ar
    29    13     4    1
    30    13    14   ar
    31     4     3   ar
    32     1     2   ar
    33     1     6    1
    34     2     3   ar
    35     2     7    1
    36     3    11    1
    37    10    11    3
    38     7     8    3
    39     8     9    1
    40    29    35    1
    41    29    28   ar
    42    28    34    1
    43    15    14   ar
    44    15    22    1
    45    26    23    1
    46    14    18    1
    47    22    23    1
    48    23    25    1
    49    23    24    1
    50    34    33    3
