@<TRIPOS>MOLECULE
mol_data/noopt/geoms/mol2/12ed4hh13ll4hf.out
 55 54 0 0 0
SMALL
GASTEIGER

@<TRIPOS>ATOM
      1 C           0.1763    1.8460    0.0000 C.ar    1  LIG1        0.1092
      2 C           1.5558    1.8460    0.0000 C.ar    1  LIG1        0.0803
      3 C           1.9706    3.2334    0.0000 C.ar    1  LIG1        0.1125
      4 C           0.8165    3.9895   -0.0001 C.ar    1  LIG1        0.1513
      5 O          -0.3030    3.1567   -0.0002 O.2     1  LIG1       -0.4606
      6 H          -0.7504    0.9343    0.0000 H       1  LIG1        0.1042
      7 C           2.3515    0.8179    0.0001 C.1     1  LIG1       -0.0652
      8 C           3.0867   -0.1320    0.0002 C.1     1  LIG1       -0.1138
      9 H           3.7416   -0.9782    0.0003 H       1  LIG1        0.1232
     10 N           4.2839    4.0300    0.0000 N.1     1  LIG1       -0.1907
     11 C           3.1998    3.6567    0.0000 C.1     1  LIG1        0.1042
     12 C           1.5879    6.2051    0.0007 C.3     1  LIG1        0.0947
     13 C           1.2379    7.5692    0.0022 C.3     2  LIG2        0.0000
     14 C           0.5416    5.2600   -0.0001 C.2     1  LIG1        0.0221
     15 C          -0.0943    7.9766    0.0023 C.2     1  LIG1        0.0338
     16 H           2.0295    8.3152    0.0030 H       2  LIG2        0.0194
     17 C          -0.7885    5.6662    0.0000 C.2     1  LIG1       -0.0318
     18 C          -1.1159    7.0261    0.0011 C.2     1  LIG1        0.0350
     19 H          -1.5772    4.9182   -0.0005 H       1  LIG1        0.0641
     20 N           2.8483    5.8866    0.0003 N.3     1  LIG1       -0.3174
     21 H           2.9712    5.0134   -0.4712 H       1  LIG1        0.1192
     22 H           3.3713    6.5965   -0.4712 H       1  LIG1        0.1192
     23 N          -2.3610    7.3999    0.0014 N.pl3   1  LIG1       -0.3574
     24 H          -2.4456    8.2778   -0.4699 H       1  LIG1        0.1423
     25 H          -2.9151    6.7138   -0.4700 H       1  LIG1        0.1423
     26 C          -0.3815    9.2445    0.0036 C.ar    1  LIG1        0.1007
     27 C           0.4324   10.3332    0.0207 C.ar    1  LIG1        0.2511
     28 C          -0.4059   11.4941    0.0143 C.ar    1  LIG1        0.2510
     29 C          -1.6953   11.0638   -0.0082 C.ar    1  LIG1        0.1001
     30 N          -1.6849    9.6872   -0.0143 N.ar    1  LIG1       -0.3479
     31 H          -2.4906    9.1053   -0.0300 H       1  LIG1        0.1661
     32 O           1.7322   10.3190    0.0408 O.3     1  LIG1       -0.2815
     33 C           2.1947    8.9659    0.0481 C.3     3  LIG3       -0.0776
     34 H           3.2645    8.9546    0.0645 H       2  LIG2        0.0194
     35 H           1.8195    8.4653    0.9163 H       2  LIG2        0.0194
     36 H           1.8462    8.4650   -0.8308 H       2  LIG2        0.0194
     37 O          -0.0107   12.7326    0.0272 O.3     1  LIG1       -0.2815
     38 C           1.4186   12.7774    0.0318 C.3     4  LIG4       -0.0681
     39 H           1.7434   13.7969    0.0422 H       3  LIG3        0.0227
     40 H           1.7883   12.2764    0.9020 H       3  LIG3        0.0227
     41 H           1.7935   12.2926   -0.8452 H       3  LIG3        0.0227
     42 C          -2.7786   13.1447   -0.0284 C.ar    1  LIG1        0.0341
     43 C          -4.0114   13.8254   -0.0416 C.ar    1  LIG1       -0.0370
     44 C          -2.8084   11.7351   -0.0218 C.ar    1  LIG1        0.0263
     45 C          -5.2215   13.1353   -0.0486 C.ar    1  LIG1       -0.0184
     46 H          -4.0113   14.9132   -0.0466 H       1  LIG1        0.0637
     47 C          -4.0162   11.0456   -0.0287 C.ar    1  LIG1       -0.0092
     48 C          -5.2304   11.7399   -0.0423 C.ar    1  LIG1        0.1176
     49 H          -4.0128    9.9586   -0.0233 H       1  LIG1        0.0661
     50 H          -6.3412   13.7958   -0.0609 H       1  LIG1        0.0655
     51 N          -1.6825   13.8435   -0.0226 N.pl3   1  LIG1       -0.3575
     52 H          -0.9607   13.3353   -0.4926 H       1  LIG1        0.1423
     53 H          -1.8386   14.7123   -0.4926 H       1  LIG1        0.1423
     54 O          -6.3563   11.0901   -0.0486 O.3     1  LIG1       -0.5067
     55 H          -6.1814   10.1461   -0.0501 H       1  LIG1        0.2921
@<TRIPOS>BOND
     1    41    38    1
     2    36    33    1
     3    53    51    1
     4    52    51    1
     5    22    20    1
     6    21    20    1
     7    25    23    1
     8    24    23    1
     9    50    45    1
    10    55    54    1
    11    54    48    1
    12    45    48   ar
    13    45    43   ar
    14    46    43    1
    15    48    47   ar
    16    43    42   ar
    17    31    30    1
    18    47    49    1
    19    47    44   ar
    20    42    51    1
    21    42    44   ar
    22    44    29    1
    23    30    29   ar
    24    30    26   ar
    25    29    28   ar
    26    19    17    1
    27     5     4   ar
    28     5     1   ar
    29    14     4    1
    30    14    17    2
    31    14    12    1
    32     4     3   ar
    33     1     2   ar
    34     1     6    1
    35     2     3   ar
    36     2     7    1
    37     3    11    1
    38    10    11    3
    39    17    18    1
    40     7     8    3
    41     8     9    1
    42    20    12    1
    43    18    23    1
    44    18    15    2
    45    15    26    1
    46    16    33    1
    47    26    27   ar
    48    28    27   ar
    49    28    37    1
    50    27    32    1
    51    38    39    1
    52    38    40    1
    53    33    34    1
    54    33    35    1
