@<TRIPOS>MOLECULE
mol_data/noopt/geoms/mol2/12ee6eh13ih12lf.out
 51 53 0 0 0
SMALL
GASTEIGER

@<TRIPOS>ATOM
      1 C           0.1763    1.8460    0.0000 C.ar    1  LIG1        0.1092
      2 C           1.5558    1.8460    0.0000 C.ar    1  LIG1        0.0783
      3 C           1.9706    3.2334    0.0000 C.ar    1  LIG1        0.0858
      4 C           0.8165    3.9895   -0.0001 C.ar    1  LIG1        0.1540
      5 O          -0.3030    3.1567   -0.0002 O.2     1  LIG1       -0.4603
      6 H          -0.7504    0.9343    0.0000 H       1  LIG1        0.1042
      7 C           2.3515    0.8179    0.0001 C.1     1  LIG1       -0.0653
      8 C           3.0867   -0.1320    0.0002 C.1     1  LIG1       -0.1138
      9 H           3.7416   -0.9782    0.0003 H       1  LIG1        0.1232
     10 C           3.1998    3.6567    0.0000 C.1     1  LIG1       -0.0646
     11 C           4.3355    4.0478    0.0000 C.1     1  LIG1       -0.1138
     12 H           5.3472    4.3962    0.0000 H       1  LIG1        0.1232
     13 C          -0.7953    5.6985    0.0001 C.ar    1  LIG1        0.1247
     14 C           0.5416    5.2601   -0.0001 C.ar    1  LIG1        0.0541
     15 C           1.5573    6.2179    0.0001 C.ar    1  LIG1       -0.0255
     16 C           1.2067    7.5691    0.0002 C.ar    1  LIG1        0.0531
     17 C          -0.1587    7.9086    0.0001 C.ar    1  LIG1        0.1093
     18 N          -1.1514    6.9977    0.0002 N.ar    1  LIG1       -0.2344
     19 H           2.6135    5.9134   -0.0011 H       1  LIG1        0.0644
     20 C          -1.7757    4.8447    0.0000 C.1     1  LIG1       -0.0491
     21 C          -2.6815    4.0559   -0.0000 C.1     1  LIG1       -0.1124
     22 H          -3.4885    3.3532   -0.0001 H       1  LIG1        0.1232
     23 N           2.1151    8.4991    0.0002 N.pl3   1  LIG1       -0.3563
     24 H           2.9321    8.1670   -0.4713 H       1  LIG1        0.1424
     25 H           1.7640    9.3080   -0.4713 H       1  LIG1        0.1424
     26 C          -0.5350    9.1530    0.0003 C.ar    1  LIG1        0.0709
     27 C           0.1997   10.2966    0.0167 C.ar    1  LIG1       -0.0152
     28 C          -0.7188   11.3952    0.0092 C.ar    1  LIG1        0.0165
     29 C          -1.9744   10.8746   -0.0132 C.ar    1  LIG1        0.0945
     30 N          -1.8665    9.5021   -0.0182 N.ar    1  LIG1       -0.3497
     31 H          -2.6289    8.8646   -0.0335 H       1  LIG1        0.1661
     32 C           1.4975   10.3746    0.0371 C.3     1  LIG1       -0.0371
     33 H           1.7932   11.2676    0.5470 H       1  LIG1        0.0278
     34 H           1.8693   10.3970   -0.9661 H       1  LIG1        0.0278
     35 H           1.8980    9.5234    0.5469 H       1  LIG1        0.0278
     36 N          -0.4124   12.6585    0.0211 N.3     2  LIG2       -0.2731
     37 H           0.4607   12.7941   -0.4472 H       1  LIG1        0.1366
     38 H          -1.1263   13.1790   -0.4473 H       1  LIG1        0.1366
     39 C          -3.1324   11.4652   -0.0275 C.ar    1  LIG1        0.1966
     40 C          -3.5687   12.7739   -0.0384 C.ar    1  LIG1        0.2091
     41 C          -5.0160   12.7285   -0.0524 C.ar    1  LIG1        0.1979
     42 C          -5.3682   11.3945   -0.0493 C.ar    1  LIG1        0.1378
     43 O          -4.2241   10.5959   -0.0341 O.2     1  LIG1       -0.4539
     44 H          -6.4866   10.7318   -0.0570 H       1  LIG1        0.1069
     45 O          -2.8451   13.8539   -0.0366 O.3     1  LIG1       -0.4884
     46 C          -1.4595   13.5002   -0.0360 C.3     1  LIG1        0.0791
     47 H          -0.8643   14.3893   -0.0347 H       1  LIG1        0.0660
     48 H          -1.2393   12.9223    0.8372 H       1  LIG1        0.0660
     49 H          -1.2381   12.9241   -0.9101 H       1  LIG1        0.0660
     50 O          -5.8063   13.7606   -0.0654 O.3     1  LIG1       -0.5012
     51 H          -6.7196   13.4649   -0.0686 H       1  LIG1        0.2924
@<TRIPOS>BOND
     1    34    32    1
     2    49    46    1
     3    25    23    1
     4    24    23    1
     5    38    36    1
     6    37    36    1
     7    51    50    1
     8    50    41    1
     9    44    42    1
    10    41    42   ar
    11    41    40   ar
    12    42    43   ar
    13    40    45    1
    14    40    39   ar
    15    45    46    1
    16    46    47    1
    17    46    48    1
    18    43    39   ar
    19    31    30    1
    20    39    29    1
    21    30    29   ar
    22    30    26   ar
    23    29    28   ar
    24    19    15    1
    25     5     4   ar
    26     5     1   ar
    27    14     4    1
    28    14    13   ar
    29    14    15   ar
    30     4     3   ar
    31    22    21    1
    32    21    20    3
    33     1     2   ar
    34     1     6    1
    35     2     3   ar
    36     2     7    1
    37     3    10    1
    38    10    11    3
    39    11    12    1
    40    20    13    1
    41    13    18   ar
    42    15    16   ar
    43     7     8    3
    44    17    18   ar
    45    17    16   ar
    46    17    26    1
    47    23    16    1
    48     8     9    1
    49    26    27   ar
    50    28    27   ar
    51    27    32    1
    52    32    35    1
    53    32    33    1
