@<TRIPOS>MOLECULE
mol_data/noopt/geoms/mol2/12ee13dh12il6if.out
 51 54 0 0 0
SMALL
GASTEIGER

@<TRIPOS>ATOM
      1 C           0.1763    1.8460    0.0000 C.ar    1  LIG1        0.1092
      2 C           1.5558    1.8460    0.0000 C.ar    1  LIG1        0.0784
      3 C           1.9706    3.2334    0.0000 C.ar    1  LIG1        0.0872
      4 C           0.8165    3.9895   -0.0001 C.ar    1  LIG1        0.1687
      5 O          -0.3030    3.1567   -0.0002 O.2     1  LIG1       -0.4589
      6 H          -0.7504    0.9343    0.0000 H       1  LIG1        0.1042
      7 C           2.3515    0.8179    0.0001 C.1     1  LIG1       -0.0653
      8 C           3.0867   -0.1320    0.0002 C.1     1  LIG1       -0.1138
      9 H           3.7416   -0.9782    0.0003 H       1  LIG1        0.1232
     10 C           3.1998    3.6567    0.0000 C.1     1  LIG1       -0.0646
     11 C           4.3355    4.0478    0.0000 C.1     1  LIG1       -0.1138
     12 H           5.3472    4.3962    0.0000 H       1  LIG1        0.1232
     13 C           0.5416    5.2601   -0.0001 C.ar    1  LIG1        0.1033
     14 C           1.3660    6.3408    0.0161 C.ar    1  LIG1        0.1013
     15 C           0.5390    7.5098    0.0084 C.ar    1  LIG1        0.0716
     16 C          -0.7545    7.0921   -0.0139 C.ar    1  LIG1        0.1052
     17 N          -0.7574    5.7154   -0.0188 N.ar    1  LIG1       -0.3468
     18 H          -1.5687    5.1413   -0.0340 H       1  LIG1        0.1662
     19 N           3.8118    6.2904    0.0545 N.1     1  LIG1       -0.1907
     20 C           2.6656    6.3141    0.0365 C.1     1  LIG1        0.1033
     21 N           0.9462    8.7444    0.0202 N.pl3   1  LIG1       -0.3552
     22 H           1.8273    8.8092   -0.4482 H       1  LIG1        0.1424
     23 H           0.2765    9.3207   -0.4483 H       1  LIG1        0.1424
     24 C          -1.8611    7.7741   -0.0284 C.ar    1  LIG1        0.1601
     25 C          -2.1906    9.1136   -0.0394 C.ar    1  LIG1        0.0392
     26 C          -3.6368    9.1850   -0.0536 C.ar    1  LIG1        0.1692
     27 C          -4.0953    7.8837   -0.0504 C.ar    1  LIG1        0.1792
     28 O          -3.0193    6.9956   -0.0351 O.2     1  LIG1       -0.4492
     29 C          -1.3821   10.1321   -0.0376 C.3     1  LIG1       -0.0325
     30 H          -1.8451   10.9541    0.4673 H       1  LIG1        0.0280
     31 H          -1.1596   10.4126   -1.0459 H       1  LIG1        0.0280
     32 H          -0.4765    9.8677    0.4673 H       1  LIG1        0.0280
     33 O          -4.3414   10.2774   -0.0667 O.3     1  LIG1       -0.4910
     34 C          -3.4673   11.4091   -0.0715 C.3     1  LIG1        0.0790
     35 H          -4.0476   12.3080   -0.0825 H       1  LIG1        0.0660
     36 H          -2.8549   11.3906    0.8058 H       1  LIG1        0.0660
     37 H          -2.8452   11.3756   -0.9414 H       1  LIG1        0.0660
     38 C          -5.3697    5.9103   -0.0622 C.ar    1  LIG1        0.0492
     39 C          -5.2635    7.3132   -0.0582 C.ar    1  LIG1        0.0454
     40 C          -6.4362    8.0706   -0.0623 C.ar    1  LIG1       -0.0062
     41 C          -7.6645    7.4074   -0.0705 C.ar    1  LIG1        0.1356
     42 C          -7.6679    6.0005   -0.0743 C.ar    1  LIG1        0.0693
     43 N          -6.5462    5.2541   -0.0702 N.ar    1  LIG1       -0.2558
     44 H          -6.3928    9.1690   -0.0603 H       1  LIG1        0.0662
     45 H          -8.7863    5.3378   -0.0818 H       1  LIG1        0.0867
     46 C          -4.3062    5.1621   -0.0585 C.3     1  LIG1       -0.0217
     47 H          -3.5130    5.6722    0.4469 H       1  LIG1        0.0293
     48 H          -4.0121    4.9552   -1.0664 H       1  LIG1        0.0293
     49 H          -4.5185    4.2431    0.4468 H       1  LIG1        0.0293
     50 O          -8.7846    8.0674   -0.0748 O.3     1  LIG1       -0.5052
     51 H          -9.5200    7.4503   -0.0759 H       1  LIG1        0.2922
@<TRIPOS>BOND
     1    48    46    1
     2    31    29    1
     3    37    34    1
     4    23    21    1
     5    22    21    1
     6    35    34    1
     7    45    42    1
     8    51    50    1
     9    50    41    1
    10    42    41   ar
    11    42    43   ar
    12    34    33    1
    13    34    36    1
    14    41    40   ar
    15    43    38   ar
    16    33    26    1
    17    40    44    1
    18    40    39   ar
    19    38    46    1
    20    38    39   ar
    21    46    49    1
    22    46    47    1
    23    39    27    1
    24    26    27   ar
    25    26    25   ar
    26    27    28   ar
    27    25    29    1
    28    25    24   ar
    29    29    32    1
    30    29    30    1
    31    28    24   ar
    32    18    17    1
    33    24    16    1
    34    17    16   ar
    35    17    13   ar
    36    16    15   ar
    37     5     4   ar
    38     5     1   ar
    39    13     4    1
    40    13    14   ar
    41     4     3   ar
    42    12    11    1
    43    11    10    3
    44     6     1    1
    45    10     3    1
    46     1     2   ar
    47     3     2   ar
    48     2     7    1
    49     7     8    3
    50     8     9    1
    51    15    14   ar
    52    15    21    1
    53    14    20    1
    54    20    19    3
