@<TRIPOS>MOLECULE
mol_data/noopt/geoms/mol2/12ee4ih4ef-6fl-.out
 55 58 0 0 0
SMALL
GASTEIGER

@<TRIPOS>ATOM
      1 C           0.1763    1.8460    0.0000 C.ar    1  LIG1        0.1092
      2 C           1.5558    1.8460    0.0000 C.ar    1  LIG1        0.0783
      3 C           1.9706    3.2334    0.0000 C.ar    1  LIG1        0.0857
      4 C           0.8165    3.9895   -0.0001 C.ar    1  LIG1        0.1516
      5 O          -0.3030    3.1567   -0.0002 O.2     1  LIG1       -0.4604
      6 H          -0.7504    0.9343    0.0000 H       1  LIG1        0.1042
      7 C           2.3515    0.8179    0.0001 C.1     1  LIG1       -0.0653
      8 C           3.0867   -0.1320    0.0002 C.1     1  LIG1       -0.1138
      9 H           3.7416   -0.9782    0.0003 H       1  LIG1        0.1232
     10 C           3.1998    3.6567    0.0000 C.1     1  LIG1       -0.0646
     11 C           4.3355    4.0478    0.0000 C.1     1  LIG1       -0.1138
     12 H           5.3472    4.3962    0.0000 H       1  LIG1        0.1232
     13 C           1.5879    6.2051    0.0007 C.ar    1  LIG1       -0.0391
     14 C           1.2379    7.5692    0.0022 C.ar    1  LIG1       -0.0486
     15 C           0.5416    5.2600   -0.0001 C.ar    1  LIG1        0.0232
     16 C          -0.0943    7.9766    0.0023 C.ar    1  LIG1        0.0043
     17 H           2.0295    8.3152    0.0030 H       1  LIG1        0.0627
     18 C          -0.7885    5.6662    0.0000 C.ar    1  LIG1       -0.0295
     19 C          -1.1159    7.0261    0.0011 C.ar    1  LIG1        0.0331
     20 H          -1.5772    4.9182   -0.0005 H       1  LIG1        0.0643
     21 C           2.8485    5.8865    0.0003 C.3     1  LIG1       -0.0390
     22 H           3.4085    6.6461    0.5047 H       1  LIG1        0.0278
     23 H           3.1941    5.7993   -1.0086 H       1  LIG1        0.0278
     24 H           2.9804    4.9521    0.5046 H       1  LIG1        0.0278
     25 N          -2.3610    7.3999    0.0014 N.pl3   1  LIG1       -0.3575
     26 H          -2.4456    8.2778   -0.4699 H       1  LIG1        0.1423
     27 H          -2.9151    6.7138   -0.4700 H       1  LIG1        0.1423
     28 C           0.6554   10.1996    0.0264 C.ar    1  LIG1        0.0332
     29 C           0.2921   11.5602    0.0284 C.ar    1  LIG1       -0.0344
     30 C          -0.3815    9.2445    0.0036 C.ar    1  LIG1        0.0027
     31 C          -1.0437   11.9548    0.0080 C.ar    1  LIG1        0.0299
     32 H           1.0764   12.3138    0.0460 H       1  LIG1        0.0637
     33 C          -1.7153    9.6378   -0.0168 C.ar    1  LIG1       -0.0106
     34 C          -2.0559   10.9944   -0.0148 C.ar    1  LIG1        0.1254
     35 H          -2.4966    8.8822   -0.0341 H       1  LIG1        0.0661
     36 C           1.9186    9.8933    0.0458 C.1     1  LIG1       -0.0690
     37 C           3.0858    9.6102    0.0638 C.1     1  LIG1       -0.1139
     38 H           4.1256    9.3581    0.0798 H       1  LIG1        0.1232
     39 O          -3.3045   11.3562   -0.0338 O.3     1  LIG1       -0.5061
     40 H          -3.8640   10.5761   -0.0385 H       1  LIG1        0.2922
     41 C          -2.6882   13.6322   -0.0093 C.ar    1  LIG1        0.2205
     42 C          -1.3432   13.2198    0.0104 C.ar    1  LIG1        0.0505
     43 C          -0.3465   14.1970    0.0327 C.ar    1  LIG1       -0.0055
     44 C          -0.7232   15.5412    0.0344 C.ar    1  LIG1        0.1389
     45 C          -2.0948   15.8542    0.0134 C.ar    1  LIG1        0.0730
     46 N          -3.0695   14.9242   -0.0080 N.ar    1  LIG1       -0.2173
     47 H           0.7153   13.9130    0.0475 H       1  LIG1        0.0662
     48 H          -2.4952   17.0910    0.0142 H       1  LIG1        0.0868
     49 O          -3.6517   12.7596   -0.0304 O.3     1  LIG1       -0.4920
     50 H          -3.2817   11.8738   -0.0356 H       1  LIG1        0.2937
     51 O           0.1668   16.4886    0.0546 O.3     1  LIG1       -0.4936
     52 C           1.4760   15.9134    0.0619 C.3     1  LIG1        0.0789
     53 H           2.2082   16.6935    0.0783 H       1  LIG1        0.0660
     54 H           1.5906   15.2984    0.9300 H       1  LIG1        0.0660
     55 H           1.6089   15.3180   -0.8171 H       1  LIG1        0.0660
@<TRIPOS>BOND
     1    23    21    1
     2    55    52    1
     3    27    25    1
     4    26    25    1
     5    40    39    1
     6    50    49    1
     7    35    33    1
     8    39    34    1
     9    49    41    1
    10    33    34   ar
    11    33    30   ar
    12    34    31   ar
    13    41    46   ar
    14    41    42   ar
    15    46    45   ar
    16    20    18    1
    17     5     4   ar
    18     5     1   ar
    19    15     4    1
    20    15    18   ar
    21    15    13   ar
    22     4     3   ar
    23     1     2   ar
    24     1     6    1
    25     2     3   ar
    26     2     7    1
    27     3    10    1
    28    10    11    3
    29    11    12    1
    30    18    19   ar
    31     7     8    3
    32     8     9    1
    33    21    13    1
    34    21    24    1
    35    21    22    1
    36    13    14   ar
    37    19    25    1
    38    19    16   ar
    39    14    16   ar
    40    14    17    1
    41    16    30    1
    42    30    28   ar
    43    31    42    1
    44    31    29   ar
    45    42    43   ar
    46    45    48    1
    47    45    44   ar
    48    28    29   ar
    49    28    36    1
    50    29    32    1
    51    43    44   ar
    52    43    47    1
    53    44    51    1
    54    36    37    3
    55    51    52    1
    56    52    53    1
    57    52    54    1
    58    37    38    1
