@<TRIPOS>MOLECULE
mol_data/noopt/geoms/mol2/12ee13fe6ff-4fd12ha-12ae12aa-6le-.out
 87 94 0 0 0
SMALL
GASTEIGER

@<TRIPOS>ATOM
      1 C           0.1763    1.8460    0.0000 C.ar    1  LIG1        0.1092
      2 C           1.5558    1.8460    0.0000 C.ar    1  LIG1        0.0784
      3 C           1.9706    3.2334    0.0000 C.ar    1  LIG1        0.0873
      4 C           0.8165    3.9895   -0.0001 C.ar    1  LIG1        0.1710
      5 O          -0.3030    3.1567   -0.0002 O.2     1  LIG1       -0.4588
      6 H          -0.7504    0.9343    0.0000 H       1  LIG1        0.1042
      7 C           2.3515    0.8179    0.0001 C.1     1  LIG1       -0.0653
      8 C           3.0867   -0.1320    0.0002 C.1     1  LIG1       -0.1138
      9 H           3.7416   -0.9782    0.0003 H       1  LIG1        0.1232
     10 C           3.1998    3.6567    0.0000 C.1     1  LIG1       -0.0646
     11 C           4.3355    4.0478    0.0000 C.1     1  LIG1       -0.1138
     12 H           5.3472    4.3962    0.0000 H       1  LIG1        0.1232
     13 C           0.5416    5.2601   -0.0001 C.ar    1  LIG1        0.1270
     14 C           1.3660    6.3408    0.0161 C.ar    1  LIG1        0.1611
     15 C           0.5390    7.5098    0.0084 C.ar    1  LIG1        0.0922
     16 C          -0.7545    7.0921   -0.0139 C.ar    1  LIG1        0.0714
     17 N          -0.7574    5.7154   -0.0188 N.ar    1  LIG1       -0.3477
     18 H          -1.5687    5.1413   -0.0340 H       1  LIG1        0.1661
     19 O           2.6657    6.3141    0.0365 O.3     1  LIG1       -0.5034
     20 H           3.0046    7.2122    0.0416 H       1  LIG1        0.2923
     21 C           0.9462    8.7444    0.0202 C.1     1  LIG1       -0.0638
     22 C           1.3224    9.8851    0.0310 C.1     1  LIG1       -0.1137
     23 H           1.6575   10.9012    0.0406 H       1  LIG1        0.1232
     24 C          -3.1031    7.1138   -0.0574 C.ar    1  LIG1        0.2225
     25 C          -1.8611    7.7741   -0.0284 C.ar    1  LIG1        0.0644
     26 C          -1.8483    9.1701   -0.0155 C.ar    1  LIG1       -0.0038
     27 C          -3.0654    9.8534   -0.0319 C.ar    1  LIG1        0.1437
     28 C          -4.2559    9.1041   -0.0609 C.ar    1  LIG1        0.1196
     29 N          -4.2866    7.7571   -0.0735 N.ar    1  LIG1       -0.2087
     30 H          -0.8972    9.7207    0.0061 H       1  LIG1        0.0663
     31 O          -3.1665    5.8154   -0.0703 O.3     1  LIG1       -0.4919
     32 H          -2.2782    5.4512   -0.0735 H       1  LIG1        0.2937
     33 O          -3.1069   11.1527   -0.0210 O.3     1  LIG1       -0.5046
     34 H          -4.0216   11.4441   -0.0184 H       1  LIG1        0.2922
     35 C          -5.4840   11.1028   -0.0849 C.ar    1  LIG1        0.1268
     36 C          -6.7619   11.6945   -0.1008 C.ar    1  LIG1       -0.0082
     37 C          -5.4138    9.6947   -0.0770 C.ar    1  LIG1        0.0461
     38 C          -7.9200   10.9204   -0.1091 C.ar    1  LIG1        0.0312
     39 H          -6.8389   12.7795   -0.1070 H       1  LIG1        0.0661
     40 C          -6.5696    8.9214   -0.0853 C.ar    1  LIG1       -0.0396
     41 C          -7.8300    9.5279   -0.1015 C.ar    1  LIG1        0.0064
     42 H          -6.4892    7.8374   -0.0788 H       1  LIG1        0.0632
     43 O          -4.4401   11.8777   -0.0781 O.3     1  LIG1       -0.5061
     44 H          -4.7222   12.7953   -0.0764 H       1  LIG1        0.2922
     45 N          -9.8569    8.1577   -0.1156 N.2     1  LIG1       -0.1571
     46 C          -8.9070    8.7998   -0.1090 C.2     1  LIG1        0.0577
     47 C          -9.0836   11.4998   -0.1239 C.ar    1  LIG1        0.1571
     48 C          -9.5328   12.8041   -0.1203 C.ar    1  LIG1        0.0717
     49 C         -10.9794   12.7447   -0.1454 C.ar    1  LIG1        0.0086
     50 C         -11.3184   11.4074   -0.1628 C.ar    1  LIG1        0.1724
     51 O         -10.1666   10.6200   -0.1501 O.2     1  LIG1       -0.4498
     52 N          -8.8200   13.8911   -0.0987 N.pl3   1  LIG1       -0.3550
     53 H          -7.9501   13.7285   -0.5645 H       1  LIG1        0.1424
     54 H          -9.3157   14.6240   -0.5645 H       1  LIG1        0.1424
     55 H         -11.7798   13.7691   -0.1502 H       1  LIG1        0.0675
     56 C         -12.4301   10.7339   -0.1875 C.ar    1  LIG1        0.1720
     57 C         -13.7725   11.0516   -0.1914 C.ar    1  LIG1        0.0034
     58 C         -14.4955    9.7974   -0.2261 C.ar    1  LIG1        0.0741
     59 C         -13.5465    8.7960   -0.2413 C.ar    1  LIG1        0.1860
     60 O         -12.2654    9.3484   -0.2181 O.2     1  LIG1       -0.4474
     61 H         -14.3101   12.2350   -0.1686 H       1  LIG1        0.0669
     62 C         -15.7890    9.6687   -0.2399 C.1     1  LIG1       -0.0657
     63 C         -16.9843    9.5498   -0.2526 C.1     1  LIG1       -0.1138
     64 H         -18.0489    9.4439   -0.2638 H       1  LIG1        0.1232
     65 C         -13.5714    7.4966   -0.2713 C.ar    1  LIG1        0.1718
     66 C         -14.5575    6.5319   -0.2792 C.ar    1  LIG1       -0.0121
     67 C         -13.8840    5.2507   -0.3192 C.ar    1  LIG1       -0.0150
     68 C         -12.5304    5.5175   -0.3331 C.ar    1  LIG1        0.1410
     69 O         -12.3124    6.8954   -0.3042 O.2     1  LIG1       -0.4515
     70 H         -15.8450    6.7100   -0.2558 H       1  LIG1        0.0657
     71 H         -14.4666    4.0887   -0.3377 H       1  LIG1        0.0656
     72 C         -10.1842    5.4241   -0.4049 C.ar    1  LIG1        0.2258
     73 C         -11.4455    4.8020   -0.3659 C.ar    1  LIG1        0.0799
     74 C         -11.5011    3.4070   -0.3632 C.ar    1  LIG1       -0.0291
     75 C         -10.3058    2.6869   -0.3993 C.ar    1  LIG1        0.0437
     76 C          -9.0933    3.3995   -0.4370 C.ar    1  LIG1        0.0468
     77 N          -9.0213    4.7449   -0.4400 N.ar    1  LIG1       -0.2195
     78 H         -12.4684    2.8857   -0.3343 H       1  LIG1        0.0639
     79 H          -7.9544    2.7738   -0.4714 H       1  LIG1        0.0843
     80 O         -10.0811    6.7201   -0.4090 O.3     1  LIG1       -0.4725
     81 C          -8.6995    7.0889   -0.4105 C.3     1  LIG1        0.1252
     82 H          -8.6150    8.1555   -0.4140 H       1  LIG1        0.0854
     83 H          -8.2245    6.6964    0.4643 H       1  LIG1        0.0731
     84 H          -8.2250    6.6907   -1.2830 H       1  LIG1        0.0731
     85 C         -10.3042    1.3869   -0.3985 C.1     1  LIG1       -0.0681
     86 C         -10.3027    0.1857   -0.3978 C.1     1  LIG1       -0.1139
     87 H         -10.3014   -0.8843   -0.3972 H       1  LIG1        0.1232
@<TRIPOS>BOND
     1    84    81    1
     2    54    52    1
     3    53    52    1
     4    79    76    1
     5    77    76   ar
     6    77    72   ar
     7    76    75   ar
     8    82    46    1
     9    81    80    1
    10    81    83    1
    11    80    72    1
    12    72    73   ar
    13    75    85    1
    14    75    74   ar
    15    85    86    3
    16    86    87    1
    17    73    74   ar
    18    73    68    1
    19    74    78    1
    20    71    67    1
    21    68    67   ar
    22    68    69   ar
    23    67    66   ar
    24    69    65   ar
    25    66    65   ar
    26    66    70    1
    27    65    59    1
    28    64    63    1
    29    63    62    3
    30    59    58   ar
    31    59    60   ar
    32    62    58    1
    33    58    57   ar
    34    60    56   ar
    35    57    56   ar
    36    57    61    1
    37    56    50    1
    38    50    51   ar
    39    50    49   ar
    40    55    49    1
    41    51    47   ar
    42    49    48   ar
    43    47    48   ar
    44    47    38    1
    45    48    52    1
    46    45    46    2
    47    38    41   ar
    48    38    36   ar
    49    46    41    1
    50    39    36    1
    51    41    40   ar
    52    36    35   ar
    53    40    42    1
    54    40    37   ar
    55    35    43    1
    56    35    37   ar
    57    43    44    1
    58    37    28    1
    59    29    28   ar
    60    29    24   ar
    61    32    31    1
    62    31    24    1
    63    28    27   ar
    64    24    25   ar
    65    18    17    1
    66    27    33    1
    67    27    26   ar
    68    25    26   ar
    69    25    16    1
    70    33    34    1
    71    17    16   ar
    72    17    13   ar
    73    26    30    1
    74    16    15   ar
    75     5     4   ar
    76     5     1   ar
    77    13     4    1
    78    13    14   ar
    79     4     3   ar
    80     6     1    1
    81    10     3    1
    82    10    11    3
    83     3     2   ar
    84     1     2   ar
    85    11    12    1
    86     2     7    1
    87     7     8    3
    88     8     9    1
    89    15    14   ar
    90    15    21    1
    91    14    19    1
    92    21    22    3
    93    22    23    1
    94    19    20    1
