@<TRIPOS>MOLECULE
mol_data/noopt/geoms/mol2/12ee4hf-4fa13he-.out
 49 52 0 0 0
SMALL
GASTEIGER

@<TRIPOS>ATOM
      1 C           0.1763    1.8460    0.0000 C.ar    1  LIG1        0.1092
      2 C           1.5558    1.8460    0.0000 C.ar    1  LIG1        0.0783
      3 C           1.9706    3.2334    0.0000 C.ar    1  LIG1        0.0858
      4 C           0.8165    3.9895   -0.0001 C.ar    1  LIG1        0.1532
      5 O          -0.3030    3.1567   -0.0002 O.2     1  LIG1       -0.4604
      6 H          -0.7504    0.9343    0.0000 H       1  LIG1        0.1042
      7 C           2.3515    0.8179    0.0001 C.1     1  LIG1       -0.0653
      8 C           3.0867   -0.1320    0.0002 C.1     1  LIG1       -0.1138
      9 H           3.7416   -0.9782    0.0003 H       1  LIG1        0.1232
     10 C           3.1998    3.6567    0.0000 C.1     1  LIG1       -0.0646
     11 C           4.3355    4.0478    0.0000 C.1     1  LIG1       -0.1138
     12 H           5.3472    4.3962    0.0000 H       1  LIG1        0.1232
     13 C           1.5877    6.2051    0.0220 C.ar    1  LIG1        0.0362
     14 C           1.2377    7.5692    0.0226 C.ar    1  LIG1       -0.0290
     15 C           0.5416    5.2600   -0.0001 C.ar    1  LIG1        0.0426
     16 C          -0.0943    7.9766    0.0015 C.ar    1  LIG1        0.0288
     17 H           2.0291    8.3151    0.0396 H       1  LIG1        0.0643
     18 C          -0.7883    5.6663   -0.0212 C.ar    1  LIG1       -0.0071
     19 C          -1.1157    7.0262   -0.0206 C.ar    1  LIG1        0.1254
     20 H          -1.5769    4.9183   -0.0379 H       1  LIG1        0.0662
     21 N           2.8479    5.8865    0.0420 N.pl3   1  LIG1       -0.3574
     22 H           2.9779    5.0115   -0.4242 H       1  LIG1        0.1423
     23 H           3.3781    6.5946   -0.4243 H       1  LIG1        0.1423
     24 O          -2.3607    7.4000   -0.0402 O.3     1  LIG1       -0.5061
     25 H          -2.9278    6.6254   -0.0450 H       1  LIG1        0.2922
     26 C           0.6555   10.1996    0.0039 C.ar    1  LIG1        0.1253
     27 C           0.2922   11.5603    0.0066 C.ar    1  LIG1       -0.0104
     28 C          -0.3815    9.2445    0.0026 C.ar    1  LIG1        0.0271
     29 C          -1.0438   11.9547    0.0073 C.ar    1  LIG1        0.0036
     30 H           1.0766   12.3139    0.0079 H       1  LIG1        0.0661
     31 C          -1.7155    9.6377    0.0033 C.ar    1  LIG1       -0.0498
     32 C          -2.0561   10.9943    0.0055 C.ar    1  LIG1       -0.0518
     33 H          -2.4969    8.8821    0.0023 H       1  LIG1        0.0625
     34 O           1.9189    9.8934    0.0031 O.3     1  LIG1       -0.5061
     35 H           2.4435   10.6974    0.0029 H       1  LIG1        0.2922
     36 H          -3.3048   11.3560    0.0063 H       1  LIG1        0.0624
     37 C          -1.3433   13.2198    0.0097 C.ar    1  LIG1        0.0687
     38 C          -0.5399   14.3163    0.0109 C.ar    1  LIG1        0.0658
     39 C          -1.3895   15.4690    0.0146 C.ar    1  LIG1        0.0632
     40 C          -2.6748   15.0262    0.0137 C.ar    1  LIG1        0.0195
     41 N          -2.6511   13.6497    0.0112 N.ar    1  LIG1       -0.3580
     42 H          -3.4512   13.0600    0.0099 H       1  LIG1        0.1654
     43 H          -3.7946   15.6866    0.0159 H       1  LIG1        0.0820
     44 N           0.7601   14.3148    0.0104 N.pl3   1  LIG1       -0.3554
     45 H           1.0923   13.4979   -0.4611 H       1  LIG1        0.1424
     46 H           1.0942   15.1309   -0.4611 H       1  LIG1        0.1424
     47 C          -1.0063   16.7113    0.0178 C.1     1  LIG1       -0.0663
     48 C          -0.6522   17.8591    0.0208 C.1     1  LIG1       -0.1138
     49 H          -0.3367   18.8815    0.0234 H       1  LIG1        0.1232
@<TRIPOS>BOND
     1    46    44    1
     2    45    44    1
     3    23    21    1
     4    22    21    1
     5    25    24    1
     6    24    19    1
     7    20    18    1
     8    18    19   ar
     9    18    15   ar
    10    19    16   ar
    11     5     4   ar
    12     5     1   ar
    13     4    15    1
    14     4     3   ar
    15    15    13   ar
    16     1     2   ar
    17     1     6    1
    18     2     3   ar
    19     2     7    1
    20     3    10    1
    21    12    11    1
    22    11    10    3
    23     7     8    3
    24     8     9    1
    25    16    28    1
    26    16    14   ar
    27    33    31    1
    28    28    31   ar
    29    28    26   ar
    30    35    34    1
    31    34    26    1
    32    31    32   ar
    33    26    27   ar
    34    32    36    1
    35    32    29   ar
    36    27    29   ar
    37    27    30    1
    38    29    37    1
    39    37    38   ar
    40    37    41   ar
    41    42    41    1
    42    44    38    1
    43    38    39   ar
    44    41    40   ar
    45    40    39   ar
    46    40    43    1
    47    39    47    1
    48    47    48    3
    49    48    49    1
    50    13    14   ar
    51    13    21    1
    52    14    17    1
