@<TRIPOS>MOLECULE
mol_data/noopt/geoms/mol2/12ee6de-4ae-12id4fh-12el12df-6la.out
 96 103 0 0 0
SMALL
GASTEIGER

@<TRIPOS>ATOM
      1 C           0.1763    1.8460    0.0000 C.ar    1  LIG1        0.1092
      2 C           1.5558    1.8460    0.0000 C.ar    1  LIG1        0.0783
      3 C           1.9706    3.2334    0.0000 C.ar    1  LIG1        0.0858
      4 C           0.8165    3.9895   -0.0001 C.ar    1  LIG1        0.1541
      5 O          -0.3030    3.1567   -0.0002 O.2     1  LIG1       -0.4603
      6 H          -0.7504    0.9343    0.0000 H       1  LIG1        0.1042
      7 C           2.3515    0.8179    0.0001 C.1     1  LIG1       -0.0653
      8 C           3.0867   -0.1320    0.0002 C.1     1  LIG1       -0.1138
      9 H           3.7416   -0.9782    0.0003 H       1  LIG1        0.1232
     10 C           3.1998    3.6567    0.0000 C.1     1  LIG1       -0.0646
     11 C           4.3355    4.0478    0.0000 C.1     1  LIG1       -0.1138
     12 H           5.3472    4.3962    0.0000 H       1  LIG1        0.1232
     13 C          -0.7951    5.6985   -0.0211 C.ar    1  LIG1        0.1514
     14 C           0.5416    5.2601   -0.0001 C.ar    1  LIG1        0.0555
     15 C           1.5571    6.2179    0.0209 C.ar    1  LIG1       -0.0308
     16 C           1.2066    7.5691    0.0200 C.ar    1  LIG1        0.0514
     17 C          -0.1586    7.9086   -0.0020 C.ar    1  LIG1        0.0878
     18 N          -1.1512    6.9977   -0.0223 N.ar    1  LIG1       -0.2344
     19 H           2.6132    5.9133    0.0367 H       1  LIG1        0.0638
     20 N          -2.6399    4.0919   -0.0586 N.1     1  LIG1       -0.1893
     21 C          -1.7753    4.8448   -0.0410 C.1     1  LIG1        0.1198
     22 C           2.1148    8.4990    0.0389 C.1     1  LIG1       -0.0675
     23 C           2.9540    9.3583    0.0564 C.1     1  LIG1       -0.1138
     24 H           3.7015   10.1237    0.0719 H       1  LIG1        0.1232
     25 C           0.4316   10.1791    0.0175 C.ar    1  LIG1       -0.0518
     26 C          -0.0272   11.5106    0.0164 C.ar    1  LIG1       -0.0493
     27 C          -0.5350    9.1529   -0.0037 C.ar    1  LIG1        0.0028
     28 C          -1.3876   11.8094   -0.0056 C.ar    1  LIG1        0.0330
     29 H           0.7017   12.3179    0.0327 H       1  LIG1        0.0625
     30 C          -1.8933    9.4507   -0.0256 C.ar    1  LIG1       -0.0364
     31 C          -2.3292   10.7798   -0.0268 C.ar    1  LIG1        0.0360
     32 H          -2.6190    8.6416   -0.0416 H       1  LIG1        0.0636
     33 H           1.7133    9.9632    0.0383 H       1  LIG1        0.0624
     34 C          -3.6002   11.0520   -0.0471 C.1     1  LIG1       -0.0689
     35 C          -4.7746   11.3036   -0.0660 C.1     1  LIG1       -0.1139
     36 H          -5.8207   11.5278   -0.0827 H       1  LIG1        0.1232
     37 C          -1.7760   13.0500   -0.0061 C.ar    1  LIG1        0.1410
     38 C          -1.1467   14.2775    0.0083 C.ar    1  LIG1        0.0134
     39 C          -2.1919   15.2797   -0.0029 C.ar    1  LIG1        0.1010
     40 C          -3.3911   14.5978   -0.0235 C.ar    1  LIG1        0.1568
     41 O          -3.1609   13.2217   -0.0260 O.2     1  LIG1       -0.4531
     42 C           0.1313   14.5165    0.0282 C.3     1  LIG1       -0.0349
     43 H           0.3138   15.4394    0.5380 H       1  LIG1        0.0279
     44 H           0.4971   14.5849   -0.9751 H       1  LIG1        0.0279
     45 H           0.6348   13.7218    0.5379 H       1  LIG1        0.0279
     46 N          -1.8453   17.7016    0.0122 N.1     1  LIG1       -0.1907
     47 C          -2.0077   16.5666    0.0051 C.1     1  LIG1        0.1032
     48 C          -5.0108   16.2951   -0.0278 C.ar    1  LIG1        0.1283
     49 C          -6.3842   16.6061   -0.0457 C.ar    1  LIG1       -0.0070
     50 C          -4.6470   14.9330   -0.0406 C.ar    1  LIG1        0.0617
     51 C          -7.3542   15.6067   -0.0757 C.ar    1  LIG1        0.0427
     52 H          -6.6869   17.6508   -0.0360 H       1  LIG1        0.0662
     53 C          -5.6150   13.9349   -0.0706 C.ar    1  LIG1       -0.0261
     54 C          -6.9744   14.2641   -0.0884 C.ar    1  LIG1        0.0363
     55 H          -5.3092   12.8918   -0.0799 H       1  LIG1        0.0644
     56 O          -4.1525   17.2712   -0.0002 O.3     1  LIG1       -0.5060
     57 H          -4.6206   18.1093    0.0066 H       1  LIG1        0.2922
     58 N          -7.8748   13.3268   -0.1163 N.pl3   1  LIG1       -0.3574
     59 H          -8.6875   13.6594   -0.5947 H       1  LIG1        0.1423
     60 H          -7.5099   12.5281   -0.5948 H       1  LIG1        0.1423
     61 C          -8.6134   15.9297   -0.0917 C.ar    1  LIG1        0.1567
     62 C          -9.3255   17.1111   -0.1038 C.ar    1  LIG1        0.1128
     63 C         -10.7277   16.7501   -0.1195 C.ar    1  LIG1        0.1848
     64 C         -10.7795   15.3714   -0.1159 C.ar    1  LIG1        0.2146
     65 O          -9.4884   14.8426   -0.0990 O.2     1  LIG1       -0.4465
     66 C          -8.8558   18.3233   -0.1018 C.1     1  LIG1       -0.0621
     67 C          -8.4218   19.4434   -0.1000 C.1     1  LIG1       -0.1137
     68 H          -8.0352   20.4411   -0.0984 H       1  LIG1        0.1232
     69 O         -11.7248   17.5843   -0.1339 O.3     1  LIG1       -0.4901
     70 C         -11.2258   18.9244   -0.1393 C.3     1  LIG1        0.0790
     71 H         -12.0467   19.6106   -0.1513 H       1  LIG1        0.0660
     72 H         -10.6362   19.0890    0.7384 H       1  LIG1        0.0660
     73 H         -10.6211   19.0764   -1.0088 H       1  LIG1        0.0660
     74 C         -11.7257   14.4800   -0.1245 C.ar    1  LIG1        0.1953
     75 C         -13.1049   14.5099   -0.1310 C.ar    1  LIG1        0.1426
     76 C         -13.5496   13.1318   -0.1393 C.ar    1  LIG1        0.1813
     77 C         -12.4122   12.3509   -0.1375 C.ar    1  LIG1        0.1834
     78 O         -11.2749   13.1592   -0.1285 O.2     1  LIG1       -0.4463
     79 N         -14.5601   16.4767   -0.1289 N.1     1  LIG1       -0.1906
     80 C         -13.8781   15.5549   -0.1299 C.1     1  LIG1        0.1068
     81 O         -14.7877   12.7352   -0.1471 O.3     1  LIG1       -0.5023
     82 H         -14.8168   11.7757   -0.1490 H       1  LIG1        0.2923
     83 C         -10.8378   10.6074   -0.1444 C.ar    1  LIG1        0.2255
     84 C         -12.1648   11.0746   -0.1421 C.ar    1  LIG1        0.0824
     85 C         -13.2010   10.1390   -0.1445 C.ar    1  LIG1       -0.0444
     86 C         -12.8798    8.7806   -0.1492 C.ar    1  LIG1       -0.0427
     87 C         -11.5221    8.4116   -0.1515 C.ar    1  LIG1        0.0314
     88 N         -10.5099    9.3008   -0.1491 N.ar    1  LIG1       -0.2207
     89 H         -14.2504   10.4664   -0.1437 H       1  LIG1        0.0627
     90 H         -11.1728    7.1594   -0.1559 H       1  LIG1        0.0831
     91 O          -9.8391   11.4398   -0.1423 O.3     1  LIG1       -0.4792
     92 C          -8.6094   10.7098   -0.1415 C.3     1  LIG1        0.0804
     93 H          -7.7878   11.3952   -0.1399 H       1  LIG1        0.0660
     94 H          -8.5612   10.0931    0.7316 H       1  LIG1        0.0660
     95 H          -8.5592   10.0948   -1.0157 H       1  LIG1        0.0660
     96 H         -13.8081    7.8705   -0.1518 H       1  LIG1        0.0633
@<TRIPOS>BOND
     1    95    92    1
     2    73    70    1
     3    44    42    1
     4    60    58    1
     5    59    58    1
     6    90    87    1
     7    96    86    1
     8    87    86   ar
     9    87    88   ar
    10    71    70    1
    11    86    85   ar
    12    88    83   ar
    13    82    81    1
    14    81    76    1
    15    85    89    1
    16    85    84   ar
    17    83    91    1
    18    83    84   ar
    19    91    92    1
    20    84    77    1
    21    92    93    1
    22    92    94    1
    23    76    77   ar
    24    76    75   ar
    25    70    69    1
    26    70    72    1
    27    77    78   ar
    28    69    63    1
    29    75    80    1
    30    75    74   ar
    31    80    79    3
    32    78    74   ar
    33    74    64    1
    34    63    64   ar
    35    63    62   ar
    36    58    54    1
    37    64    65   ar
    38    62    66    1
    39    62    61   ar
    40    66    67    3
    41    67    68    1
    42    65    61   ar
    43    61    51    1
    44    54    51   ar
    45    54    53   ar
    46    36    35    1
    47    55    53    1
    48    51    49   ar
    49    53    50   ar
    50    35    34    3
    51    20    21    3
    52    34    31    1
    53    49    52    1
    54    49    48   ar
    55    32    30    1
    56    21    13    1
    57    50    48   ar
    58    50    40    1
    59    48    56    1
    60    31    30   ar
    61    31    28   ar
    62    41    40   ar
    63    41    37   ar
    64    30    27   ar
    65    40    39   ar
    66    18    13   ar
    67    18    17   ar
    68    13    14   ar
    69    37    28    1
    70    37    38   ar
    71    28    26   ar
    72    27    17    1
    73    27    25   ar
    74    39    47    1
    75    39    38   ar
    76    17    16   ar
    77     5     4   ar
    78     5     1   ar
    79    56    57    1
    80    14     4    1
    81    14    15   ar
    82     4     3   ar
    83    12    11    1
    84     2     3   ar
    85     2     1   ar
    86     2     7    1
    87    11    10    3
    88    10     3    1
    89     6     1    1
    90     7     8    3
    91     8     9    1
    92    47    46    3
    93    38    42    1
    94    26    25   ar
    95    26    29    1
    96    25    33    1
    97    16    15   ar
    98    16    22    1
    99    15    19    1
   100    42    45    1
   101    42    43    1
   102    22    23    3
   103    23    24    1
