@<TRIPOS>MOLECULE
mol_data/noopt/geoms/mol2/12ee12ee-.out
 24 25 0 0 0
SMALL
GASTEIGER

@<TRIPOS>ATOM
      1 C           0.1763    1.8460    0.0000 C.ar    1  LIG1        0.1093
      2 C           1.5558    1.8460    0.0000 C.ar    1  LIG1        0.0785
      3 C           1.9706    3.2334    0.0000 C.ar    1  LIG1        0.0888
      4 C           0.8165    3.9895   -0.0001 C.ar    1  LIG1        0.1874
      5 O          -0.3030    3.1567   -0.0002 O.2     1  LIG1       -0.4573
      6 H          -0.7504    0.9343    0.0000 H       1  LIG1        0.1042
      7 C           2.3515    0.8179    0.0001 C.1     1  LIG1       -0.0653
      8 C           3.0867   -0.1320    0.0002 C.1     1  LIG1       -0.1138
      9 H           3.7416   -0.9782    0.0003 H       1  LIG1        0.1232
     10 C           3.1998    3.6567    0.0000 C.1     1  LIG1       -0.0645
     11 C           4.3355    4.0478    0.0000 C.1     1  LIG1       -0.1138
     12 H           5.3472    4.3962    0.0000 H       1  LIG1        0.1232
     13 C           0.5416    5.2601   -0.0001 C.ar    1  LIG1        0.1874
     14 C          -0.6119    6.0167   -0.0001 C.ar    1  LIG1        0.0888
     15 C          -0.1979    7.4043   -0.0001 C.ar    1  LIG1        0.0785
     16 C           1.1818    7.4036   -0.0002 C.ar    1  LIG1        0.1093
     17 O           1.6612    6.0932   -0.0003 O.2     1  LIG1       -0.4573
     18 H           2.1085    8.3153   -0.0002 H       1  LIG1        0.1042
     19 C          -1.8411    5.5934   -0.0000 C.1     1  LIG1       -0.0645
     20 C          -2.9768    5.2022    0.0000 C.1     1  LIG1       -0.1138
     21 H          -3.9885    4.8538    0.0001 H       1  LIG1        0.1232
     22 C          -0.9936    8.4323   -0.0001 C.1     1  LIG1       -0.0653
     23 C          -1.7288    9.3823   -0.0001 C.1     1  LIG1       -0.1138
     24 H          -2.3837   10.2284   -0.0001 H       1  LIG1        0.1232
@<TRIPOS>BOND
     1    17    16   ar
     2    17    13   ar
     3     5     4   ar
     4     5     1   ar
     5    16    18    1
     6    16    15   ar
     7    24    23    1
     8    23    22    3
     9    14    15   ar
    10    14    13   ar
    11    14    19    1
    12    22    15    1
    13    13     4    1
    14     4     3   ar
    15    19    20    3
    16    11    12    1
    17    11    10    3
    18     1     6    1
    19     1     2   ar
    20    10     3    1
    21     3     2   ar
    22     2     7    1
    23    20    21    1
    24     7     8    3
    25     8     9    1
