@<TRIPOS>MOLECULE
mol_data/noopt/geoms/mol2/12ee12ee-12ee-12ee.out
 46 47 0 0 0
SMALL
GASTEIGER

@<TRIPOS>ATOM
      1 C           0.1763    1.8460    0.0000 C.ar    1  LIG1        0.1084
      2 C           1.5558    1.8460    0.0000 C.ar    1  LIG1        0.0668
      3 C           1.9706    3.2334    0.0000 C.ar    1  LIG1        0.0257
      4 C           0.8165    3.9895   -0.0001 C.ar    1  LIG1        0.1759
      5 O          -0.3030    3.1567   -0.0002 O.2     1  LIG1       -0.4582
      6 H          -0.7504    0.9343    0.0000 H       1  LIG1        0.1042
      7 C           2.3515    0.8179    0.0001 C.1     1  LIG1       -0.0662
      8 C           3.0867   -0.1320    0.0002 C.1     1  LIG1       -0.1138
      9 H           3.7416   -0.9782    0.0003 H       1  LIG1        0.1232
     10 C           3.1998    3.6567    0.0000 C.3     1  LIG1        0.0351
     11 C           4.3355    4.0478    0.0000 C.3     2  LIG2       -0.0309
     12 H           5.3472    4.3962    0.0000 H       2  LIG2        0.0309
     13 C           0.5416    5.2601   -0.0001 C.ar    1  LIG1        0.1875
     14 C          -0.6119    6.0167   -0.0001 C.ar    1  LIG1        0.0896
     15 C          -0.1979    7.4043   -0.0001 C.ar    1  LIG1        0.0896
     16 C           1.1818    7.4036   -0.0002 C.ar    1  LIG1        0.1885
     17 O           1.6612    6.0932   -0.0003 O.2     1  LIG1       -0.4460
     18 C          -1.8411    5.5934   -0.0000 C.1     1  LIG1       -0.0645
     19 C          -2.9768    5.2022    0.0000 C.1     1  LIG1       -0.1138
     20 H          -3.9885    4.8538    0.0001 H       1  LIG1        0.1232
     21 C          -0.9936    8.4323   -0.0001 C.1     1  LIG1       -0.0645
     22 C          -1.7288    9.3823   -0.0001 C.1     1  LIG1       -0.1138
     23 H          -2.3837   10.2284   -0.0001 H       1  LIG1        0.1232
     24 C           2.1085    8.3153   -0.0002 C.ar    1  LIG1        0.1885
     25 C           2.1310    9.6946   -0.0002 C.ar    1  LIG1        0.0896
     26 C           3.5250   10.0867   -0.0001 C.ar    1  LIG1        0.0896
     27 C           4.2622    8.9204   -0.0002 C.ar    1  LIG1        0.1875
     28 O           3.4112    7.8147   -0.0003 O.2     1  LIG1       -0.4460
     29 C           1.1161   10.5069   -0.0001 C.1     1  LIG1       -0.0645
     30 C           0.1783   11.2575   -0.0000 C.1     1  LIG1       -0.1138
     31 H          -0.6571   11.9262    0.0000 H       1  LIG1        0.1232
     32 C           3.9683   11.3088   -0.0001 C.1     1  LIG1       -0.0645
     33 C           4.3779   12.4380   -0.0001 C.1     1  LIG1       -0.1138
     34 H           4.7428   13.4439   -0.0001 H       1  LIG1        0.1232
     35 C           5.5281    8.6248   -0.0002 C.ar    1  LIG1        0.1759
     36 C           6.2658    7.4591   -0.0001 C.ar    1  LIG1        0.0257
     37 C           7.6600    7.8504   -0.0001 C.ar    1  LIG1        0.0668
     38 C           7.6818    9.2300   -0.0002 C.ar    1  LIG1        0.1084
     39 O           6.3794    9.7307   -0.0003 O.2     1  LIG1       -0.4582
     40 H           8.6085   10.1417   -0.0002 H       1  LIG1        0.1042
     41 C           5.8225    6.2370   -0.0000 C.3     1  LIG1        0.0351
     42 C           5.4129    5.1078    0.0001 C.3     3  LIG3       -0.0309
     43 H           5.0480    4.1019    0.0001 H       1  LIG1        0.0309
     44 C           8.6749    7.0381   -0.0001 C.1     1  LIG1       -0.0662
     45 C           9.6127    6.2875   -0.0000 C.1     1  LIG1       -0.1138
     46 H          10.4481    5.6189   -0.0000 H       1  LIG1        0.1232
@<TRIPOS>BOND
     1    39    38   ar
     2    39    35   ar
     3    28    27   ar
     4    28    24   ar
     5    17    16   ar
     6    17    13   ar
     7    38    40    1
     8    38    37   ar
     9     5     4   ar
    10     5     1   ar
    11    27    35    1
    12    27    26   ar
    13    16    24    1
    14    16    15   ar
    15    35    36   ar
    16    25    24   ar
    17    25    26   ar
    18    25    29    1
    19    23    22    1
    20    36    37   ar
    21    36    41    1
    22    22    21    3
    23    14    15   ar
    24    14    13   ar
    25    14    18    1
    26    26    32    1
    27    21    15    1
    28    32    33    3
    29    33    34    1
    30    13     4    1
    31     4     3   ar
    32    37    44    1
    33    29    30    3
    34    44    45    3
    35    18    19    3
    36    45    46    1
    37    30    31    1
    38    12    42    1
    39    11    43    1
    40    10     3    1
    41     6     1    1
    42     3     2   ar
    43     2     1   ar
    44     2     7    1
    45    19    20    1
    46     7     8    3
    47     8     9    1
