@<TRIPOS>MOLECULE
mol_data/noopt/geoms/mol2/12ee12ee12ee.out
 35 37 0 0 0
SMALL
GASTEIGER

@<TRIPOS>ATOM
      1 C           0.1763    1.8460    0.0000 C.ar    1  LIG1        0.1093
      2 C           1.5558    1.8460    0.0000 C.ar    1  LIG1        0.0785
      3 C           1.9706    3.2334    0.0000 C.ar    1  LIG1        0.0888
      4 C           0.8165    3.9895   -0.0001 C.ar    1  LIG1        0.1875
      5 O          -0.3030    3.1567   -0.0002 O.2     1  LIG1       -0.4573
      6 H          -0.7504    0.9343    0.0000 H       1  LIG1        0.1042
      7 C           2.3515    0.8179    0.0001 C.1     1  LIG1       -0.0653
      8 C           3.0867   -0.1320    0.0002 C.1     1  LIG1       -0.1138
      9 H           3.7416   -0.9782    0.0003 H       1  LIG1        0.1232
     10 C           3.1998    3.6567    0.0000 C.1     1  LIG1       -0.0645
     11 C           4.3355    4.0478    0.0000 C.1     1  LIG1       -0.1138
     12 H           5.3472    4.3962    0.0000 H       1  LIG1        0.1232
     13 C           0.5416    5.2601   -0.0001 C.ar    1  LIG1        0.1885
     14 C           1.2792    6.4258   -0.0001 C.ar    1  LIG1        0.0896
     15 C           0.3286    7.5182   -0.0001 C.ar    1  LIG1        0.0896
     16 C          -0.9274    6.9472   -0.0002 C.ar    1  LIG1        0.1885
     17 O          -0.8223    5.5559   -0.0003 O.2     1  LIG1       -0.4460
     18 C           2.5734    6.5485   -0.0000 C.1     1  LIG1       -0.0645
     19 C           3.7693    6.6618    0.0001 C.1     1  LIG1       -0.1138
     20 H           4.8345    6.7627    0.0002 H       1  LIG1        0.1232
     21 C           0.6282    8.7832   -0.0001 C.1     1  LIG1       -0.0645
     22 C           0.9050    9.9521   -0.0001 C.1     1  LIG1       -0.1138
     23 H           1.1515   10.9933   -0.0001 H       1  LIG1        0.1232
     24 C          -2.1481    7.3943   -0.0002 C.ar    1  LIG1        0.1875
     25 C          -2.7387    8.6410   -0.0002 C.ar    1  LIG1        0.0888
     26 C          -4.1701    8.4218   -0.0002 C.ar    1  LIG1        0.0785
     27 C          -4.3593    7.0551   -0.0003 C.ar    1  LIG1        0.1093
     28 O          -3.1273    6.4000   -0.0004 O.2     1  LIG1       -0.4573
     29 H          -5.3898    6.2627   -0.0003 H       1  LIG1        0.1042
     30 C          -2.1504    9.8002   -0.0001 C.1     1  LIG1       -0.0645
     31 C          -1.6067   10.8713   -0.0000 C.1     1  LIG1       -0.1138
     32 H          -1.1224   11.8255    0.0001 H       1  LIG1        0.1232
     33 C          -5.0789    9.3514   -0.0002 C.1     1  LIG1       -0.0653
     34 C          -5.9187   10.2103   -0.0002 C.1     1  LIG1       -0.1138
     35 H          -6.6667   10.9754   -0.0002 H       1  LIG1        0.1232
@<TRIPOS>BOND
     1    28    27   ar
     2    28    24   ar
     3    29    27    1
     4    27    26   ar
     5    17    16   ar
     6    17    13   ar
     7    35    34    1
     8    34    33    3
     9     5     4   ar
    10     5     1   ar
    11    33    26    1
    12    24    25   ar
    13    24    16    1
    14    26    25   ar
    15    25    30    1
    16    16    15   ar
    17    22    21    3
    18    22    23    1
    19    21    15    1
    20    15    14   ar
    21    14    13   ar
    22    14    18    1
    23    13     4    1
    24    30    31    3
    25     4     3   ar
    26    31    32    1
    27    18    19    3
    28     1     6    1
    29     1     2   ar
    30    12    11    1
    31    11    10    3
    32    10     3    1
    33     3     2   ar
    34     2     7    1
    35    19    20    1
    36     7     8    3
    37     8     9    1
