@<TRIPOS>MOLECULE
mol_data/noopt/geoms/mol2/12ee12ee-12ee12ee.out
 46 49 0 0 0
SMALL
GASTEIGER

@<TRIPOS>ATOM
      1 C           0.1763    1.8460    0.0000 C.ar    1  LIG1        0.1093
      2 C           1.5558    1.8460    0.0000 C.ar    1  LIG1        0.0785
      3 C           1.9706    3.2334    0.0000 C.ar    1  LIG1        0.0888
      4 C           0.8165    3.9895   -0.0001 C.ar    1  LIG1        0.1875
      5 O          -0.3030    3.1567   -0.0002 O.2     1  LIG1       -0.4573
      6 H          -0.7504    0.9343    0.0000 H       1  LIG1        0.1042
      7 C           2.3515    0.8179    0.0001 C.1     1  LIG1       -0.0653
      8 C           3.0867   -0.1320    0.0002 C.1     1  LIG1       -0.1138
      9 H           3.7416   -0.9782    0.0003 H       1  LIG1        0.1232
     10 C           3.1998    3.6567    0.0000 C.1     1  LIG1       -0.0645
     11 C           4.3355    4.0478    0.0000 C.1     1  LIG1       -0.1138
     12 H           5.3472    4.3962    0.0000 H       1  LIG1        0.1232
     13 C           0.5416    5.2601   -0.0001 C.ar    1  LIG1        0.1885
     14 C          -0.6119    6.0167   -0.0001 C.ar    1  LIG1        0.0896
     15 C          -0.1979    7.4043   -0.0001 C.ar    1  LIG1        0.0896
     16 C           1.1818    7.4036   -0.0002 C.ar    1  LIG1        0.1885
     17 O           1.6612    6.0932   -0.0003 O.2     1  LIG1       -0.4460
     18 C          -1.8411    5.5934   -0.0000 C.1     1  LIG1       -0.0645
     19 C          -2.9768    5.2022    0.0000 C.1     1  LIG1       -0.1138
     20 H          -3.9885    4.8538    0.0001 H       1  LIG1        0.1232
     21 C          -0.9936    8.4323   -0.0001 C.1     1  LIG1       -0.0645
     22 C          -1.7288    9.3823   -0.0001 C.1     1  LIG1       -0.1138
     23 H          -2.3837   10.2284   -0.0001 H       1  LIG1        0.1232
     24 C           2.1085    8.3153   -0.0002 C.ar    1  LIG1        0.1885
     25 C           3.4880    8.3153   -0.0001 C.ar    1  LIG1        0.0896
     26 C           3.9028    9.7027   -0.0001 C.ar    1  LIG1        0.0896
     27 C           2.7487   10.4588   -0.0002 C.ar    1  LIG1        0.1885
     28 O           1.6292    9.6260   -0.0003 O.2     1  LIG1       -0.4460
     29 C           4.2837    7.2872   -0.0000 C.1     1  LIG1       -0.0645
     30 C           5.0189    6.3373    0.0001 C.1     1  LIG1       -0.1138
     31 H           5.6738    5.4911    0.0001 H       1  LIG1        0.1232
     32 C           5.1320   10.1260   -0.0001 C.1     1  LIG1       -0.0645
     33 C           6.2677   10.5171   -0.0001 C.1     1  LIG1       -0.1138
     34 H           7.2794   10.8655   -0.0001 H       1  LIG1        0.1232
     35 C           2.4738   11.7294   -0.0002 C.ar    1  LIG1        0.1875
     36 C           3.2115   12.8951   -0.0002 C.ar    1  LIG1        0.0888
     37 C           2.2609   13.9875   -0.0002 C.ar    1  LIG1        0.0785
     38 C           1.0048   13.4165   -0.0003 C.ar    1  LIG1        0.1093
     39 O           1.1100   12.0252   -0.0004 O.2     1  LIG1       -0.4573
     40 H          -0.2159   13.8636   -0.0003 H       1  LIG1        0.1042
     41 C           4.5057   13.0177   -0.0001 C.1     1  LIG1       -0.0645
     42 C           5.7015   13.1311   -0.0000 C.1     1  LIG1       -0.1138
     43 H           6.7667   13.2320    0.0001 H       1  LIG1        0.1232
     44 C           2.5604   15.2525   -0.0002 C.1     1  LIG1       -0.0653
     45 C           2.8372   16.4214   -0.0002 C.1     1  LIG1       -0.1138
     46 H           3.0838   17.4626   -0.0002 H       1  LIG1        0.1232
@<TRIPOS>BOND
     1    39    38   ar
     2    39    35   ar
     3    28    27   ar
     4    28    24   ar
     5    38    40    1
     6    38    37   ar
     7    17    16   ar
     8    17    13   ar
     9    27    35    1
    10    27    26   ar
    11    35    36   ar
    12     5     4   ar
    13     5     1   ar
    14    36    37   ar
    15    36    41    1
    16    37    44    1
    17    16    24    1
    18    16    15   ar
    19    44    45    3
    20    45    46    1
    21    24    25   ar
    22    23    22    1
    23    25    26   ar
    24    25    29    1
    25    22    21    3
    26    14    15   ar
    27    14    13   ar
    28    14    18    1
    29    21    15    1
    30    26    32    1
    31     4    13    1
    32     4     3   ar
    33    41    42    3
    34    32    33    3
    35    33    34    1
    36    18    19    3
    37    29    30    3
    38    42    43    1
    39     2     3   ar
    40     2     1   ar
    41     2     7    1
    42    10     3    1
    43    10    11    3
    44     6     1    1
    45    11    12    1
    46    19    20    1
    47    30    31    1
    48     7     8    3
    49     8     9    1
