@<TRIPOS>MOLECULE
mol_data/noopt/geoms/mol2/12ee12ee-12ee-12ee-.out
 46 49 0 0 0
SMALL
GASTEIGER

@<TRIPOS>ATOM
      1 C           0.1763    1.8460    0.0000 C.ar    1  LIG1        0.1093
      2 C           1.5558    1.8460    0.0000 C.ar    1  LIG1        0.0785
      3 C           1.9706    3.2334    0.0000 C.ar    1  LIG1        0.0888
      4 C           0.8165    3.9895   -0.0001 C.ar    1  LIG1        0.1875
      5 O          -0.3030    3.1567   -0.0002 O.2     1  LIG1       -0.4573
      6 H          -0.7504    0.9343    0.0000 H       1  LIG1        0.1042
      7 C           2.3515    0.8179    0.0001 C.1     1  LIG1       -0.0653
      8 C           3.0867   -0.1320    0.0002 C.1     1  LIG1       -0.1138
      9 H           3.7416   -0.9782    0.0003 H       1  LIG1        0.1232
     10 C           3.1998    3.6567    0.0000 C.1     1  LIG1       -0.0645
     11 C           4.3355    4.0478    0.0000 C.1     1  LIG1       -0.1138
     12 H           5.3472    4.3962    0.0000 H       1  LIG1        0.1232
     13 C           0.5416    5.2601   -0.0001 C.ar    1  LIG1        0.1885
     14 C          -0.6119    6.0167   -0.0001 C.ar    1  LIG1        0.0896
     15 C          -0.1979    7.4043   -0.0001 C.ar    1  LIG1        0.0896
     16 C           1.1818    7.4036   -0.0002 C.ar    1  LIG1        0.1885
     17 O           1.6612    6.0932   -0.0003 O.2     1  LIG1       -0.4460
     18 C          -1.8411    5.5934   -0.0000 C.1     1  LIG1       -0.0645
     19 C          -2.9768    5.2022    0.0000 C.1     1  LIG1       -0.1138
     20 H          -3.9885    4.8538    0.0001 H       1  LIG1        0.1232
     21 C          -0.9936    8.4323   -0.0001 C.1     1  LIG1       -0.0645
     22 C          -1.7288    9.3823   -0.0001 C.1     1  LIG1       -0.1138
     23 H          -2.3837   10.2284   -0.0001 H       1  LIG1        0.1232
     24 C           2.1085    8.3153   -0.0002 C.ar    1  LIG1        0.1885
     25 C           2.1310    9.6946   -0.0002 C.ar    1  LIG1        0.0896
     26 C           3.5250   10.0867   -0.0001 C.ar    1  LIG1        0.0896
     27 C           4.2622    8.9204   -0.0002 C.ar    1  LIG1        0.1885
     28 O           3.4112    7.8147   -0.0003 O.2     1  LIG1       -0.4460
     29 C           1.1161   10.5069   -0.0001 C.1     1  LIG1       -0.0645
     30 C           0.1783   11.2575   -0.0000 C.1     1  LIG1       -0.1138
     31 H          -0.6571   11.9262    0.0000 H       1  LIG1        0.1232
     32 C           3.9683   11.3088   -0.0001 C.1     1  LIG1       -0.0645
     33 C           4.3779   12.4380   -0.0001 C.1     1  LIG1       -0.1138
     34 H           4.7428   13.4439   -0.0001 H       1  LIG1        0.1232
     35 C           5.5281    8.6248   -0.0002 C.ar    1  LIG1        0.1875
     36 C           6.7057    9.3433   -0.0002 C.ar    1  LIG1        0.0888
     37 C           7.7825    8.3750   -0.0001 C.ar    1  LIG1        0.0785
     38 C           7.1911    7.1285   -0.0002 C.ar    1  LIG1        0.1093
     39 O           5.8017    7.2563   -0.0003 O.2     1  LIG1       -0.4573
     40 H           7.6182    5.9007   -0.0001 H       1  LIG1        0.1042
     41 C           6.8495   10.6354   -0.0001 C.1     1  LIG1       -0.0645
     42 C           6.9823   11.8292   -0.0000 C.1     1  LIG1       -0.1138
     43 H           7.1006   12.8926    0.0000 H       1  LIG1        0.1232
     44 C           9.0522    8.6539   -0.0001 C.1     1  LIG1       -0.0653
     45 C          10.2254    8.9116   -0.0001 C.1     1  LIG1       -0.1138
     46 H          11.2705    9.1411   -0.0000 H       1  LIG1        0.1232
@<TRIPOS>BOND
     1    28    27   ar
     2    28    24   ar
     3    39    38   ar
     4    39    35   ar
     5    17    16   ar
     6    17    13   ar
     7     5     4   ar
     8     5     1   ar
     9    27    35    1
    10    27    26   ar
    11    38    40    1
    12    38    37   ar
    13    16    24    1
    14    16    15   ar
    15    35    36   ar
    16    25    24   ar
    17    25    26   ar
    18    25    29    1
    19    36    37   ar
    20    36    41    1
    21    23    22    1
    22    22    21    3
    23    14    15   ar
    24    14    13   ar
    25    14    18    1
    26    26    32    1
    27    21    15    1
    28    32    33    3
    29    37    44    1
    30    33    34    1
    31    13     4    1
    32     4     3   ar
    33    29    30    3
    34    41    42    3
    35    44    45    3
    36    45    46    1
    37    18    19    3
    38    30    31    1
    39    42    43    1
    40    12    11    1
    41    11    10    3
    42    10     3    1
    43     6     1    1
    44     3     2   ar
    45     2     1   ar
    46     2     7    1
    47    19    20    1
    48     7     8    3
    49     8     9    1
