@<TRIPOS>MOLECULE
mol_data/noopt/geoms/mol2/12ee12ee.out
 24 25 0 0 0
SMALL
GASTEIGER

@<TRIPOS>ATOM
      1 C           0.1763    1.8460    0.0000 C.ar    1  LIG1        0.1093
      2 C           1.5558    1.8460    0.0000 C.ar    1  LIG1        0.0785
      3 C           1.9706    3.2334    0.0000 C.ar    1  LIG1        0.0888
      4 C           0.8165    3.9895   -0.0001 C.ar    1  LIG1        0.1874
      5 O          -0.3030    3.1567   -0.0002 O.2     1  LIG1       -0.4573
      6 H          -0.7504    0.9343    0.0000 H       1  LIG1        0.1042
      7 C           2.3515    0.8179    0.0001 C.1     1  LIG1       -0.0653
      8 C           3.0867   -0.1320    0.0002 C.1     1  LIG1       -0.1138
      9 H           3.7416   -0.9782    0.0003 H       1  LIG1        0.1232
     10 C           3.1998    3.6567    0.0000 C.1     1  LIG1       -0.0645
     11 C           4.3355    4.0478    0.0000 C.1     1  LIG1       -0.1138
     12 H           5.3472    4.3962    0.0000 H       1  LIG1        0.1232
     13 C           0.5416    5.2601   -0.0001 C.ar    1  LIG1        0.1874
     14 C           1.2792    6.4258   -0.0001 C.ar    1  LIG1        0.0888
     15 C           0.3286    7.5182   -0.0001 C.ar    1  LIG1        0.0785
     16 C          -0.9274    6.9472   -0.0002 C.ar    1  LIG1        0.1093
     17 O          -0.8223    5.5559   -0.0003 O.2     1  LIG1       -0.4573
     18 H          -2.1481    7.3943   -0.0002 H       1  LIG1        0.1042
     19 C           2.5734    6.5485   -0.0000 C.1     1  LIG1       -0.0645
     20 C           3.7693    6.6618    0.0001 C.1     1  LIG1       -0.1138
     21 H           4.8345    6.7627    0.0002 H       1  LIG1        0.1232
     22 C           0.6282    8.7832   -0.0001 C.1     1  LIG1       -0.0653
     23 C           0.9050    9.9521   -0.0001 C.1     1  LIG1       -0.1138
     24 H           1.1515   10.9933   -0.0001 H       1  LIG1        0.1232
@<TRIPOS>BOND
     1    17    16   ar
     2    17    13   ar
     3     5     4   ar
     4     5     1   ar
     5    18    16    1
     6    16    15   ar
     7    13    14   ar
     8    13     4    1
     9    24    23    1
    10    23    22    3
    11    22    15    1
    12    15    14   ar
    13    14    19    1
    14     4     3   ar
    15    11    12    1
    16    11    10    3
    17     1     6    1
    18     1     2   ar
    19    10     3    1
    20    19    20    3
    21     3     2   ar
    22     2     7    1
    23    20    21    1
    24     7     8    3
    25     8     9    1
