@<TRIPOS>MOLECULE
mol_data/noopt/geoms/mol2/12ee12ee12ee12ee-.out
 46 49 0 0 0
SMALL
GASTEIGER

@<TRIPOS>ATOM
      1 C           0.1763    1.8460    0.0000 C.ar    1  LIG1        0.1093
      2 C           1.5558    1.8460    0.0000 C.ar    1  LIG1        0.0785
      3 C           1.9706    3.2334    0.0000 C.ar    1  LIG1        0.0888
      4 C           0.8165    3.9895   -0.0001 C.ar    1  LIG1        0.1875
      5 O          -0.3030    3.1567   -0.0002 O.2     1  LIG1       -0.4573
      6 H          -0.7504    0.9343    0.0000 H       1  LIG1        0.1042
      7 C           2.3515    0.8179    0.0001 C.1     1  LIG1       -0.0653
      8 C           3.0867   -0.1320    0.0002 C.1     1  LIG1       -0.1138
      9 H           3.7416   -0.9782    0.0003 H       1  LIG1        0.1232
     10 C           3.1998    3.6567    0.0000 C.1     1  LIG1       -0.0645
     11 C           4.3355    4.0478    0.0000 C.1     1  LIG1       -0.1138
     12 H           5.3472    4.3962    0.0000 H       1  LIG1        0.1232
     13 C           0.5416    5.2601   -0.0001 C.ar    1  LIG1        0.1885
     14 C           1.2792    6.4258   -0.0001 C.ar    1  LIG1        0.0896
     15 C           0.3286    7.5182   -0.0001 C.ar    1  LIG1        0.0896
     16 C          -0.9274    6.9472   -0.0002 C.ar    1  LIG1        0.1885
     17 O          -0.8223    5.5559   -0.0003 O.2     1  LIG1       -0.4460
     18 C           2.5734    6.5485   -0.0000 C.1     1  LIG1       -0.0645
     19 C           3.7693    6.6618    0.0001 C.1     1  LIG1       -0.1138
     20 H           4.8345    6.7627    0.0002 H       1  LIG1        0.1232
     21 C           0.6282    8.7832   -0.0001 C.1     1  LIG1       -0.0645
     22 C           0.9050    9.9521   -0.0001 C.1     1  LIG1       -0.1138
     23 H           1.1515   10.9933   -0.0001 H       1  LIG1        0.1232
     24 C          -2.1481    7.3943   -0.0002 C.ar    1  LIG1        0.1885
     25 C          -2.7387    8.6410   -0.0002 C.ar    1  LIG1        0.0896
     26 C          -4.1701    8.4218   -0.0002 C.ar    1  LIG1        0.0896
     27 C          -4.3593    7.0551   -0.0003 C.ar    1  LIG1        0.1885
     28 O          -3.1273    6.4000   -0.0004 O.2     1  LIG1       -0.4460
     29 C          -2.1504    9.8002   -0.0001 C.1     1  LIG1       -0.0645
     30 C          -1.6067   10.8713   -0.0000 C.1     1  LIG1       -0.1138
     31 H          -1.1224   11.8255    0.0001 H       1  LIG1        0.1232
     32 C          -5.0789    9.3514   -0.0002 C.1     1  LIG1       -0.0645
     33 C          -5.9187   10.2103   -0.0002 C.1     1  LIG1       -0.1138
     34 H          -6.6667   10.9754   -0.0002 H       1  LIG1        0.1232
     35 C          -5.3898    6.2627   -0.0003 C.ar    1  LIG1        0.1875
     36 C          -5.5796    4.8963   -0.0003 C.ar    1  LIG1        0.0888
     37 C          -7.0109    4.6763   -0.0003 C.ar    1  LIG1        0.0785
     38 C          -7.6010    5.9235   -0.0004 C.ar    1  LIG1        0.1093
     39 O          -6.6221    6.9178   -0.0005 O.2     1  LIG1       -0.4573
     40 H          -8.8217    6.3706   -0.0004 H       1  LIG1        0.1042
     41 C          -4.6708    3.9667   -0.0002 C.1     1  LIG1       -0.0645
     42 C          -3.8311    3.1078   -0.0002 C.1     1  LIG1       -0.1138
     43 H          -3.0831    2.3427   -0.0001 H       1  LIG1        0.1232
     44 C          -7.5993    3.5171   -0.0003 C.1     1  LIG1       -0.0653
     45 C          -8.1429    2.4460   -0.0003 C.1     1  LIG1       -0.1138
     46 H          -8.6272    1.4918   -0.0003 H       1  LIG1        0.1232
@<TRIPOS>BOND
     1    39    38   ar
     2    39    35   ar
     3    28    27   ar
     4    28    24   ar
     5    38    40    1
     6    38    37   ar
     7    46    45    1
     8    45    44    3
     9    36    37   ar
    10    36    35   ar
    11    36    41    1
    12    44    37    1
    13    35    27    1
    14    17    16   ar
    15    17    13   ar
    16    27    26   ar
    17    41    42    3
    18    25    24   ar
    19    25    26   ar
    20    25    29    1
    21    24    16    1
    22    26    32    1
    23    32    33    3
    24    33    34    1
    25    16    15   ar
    26     5     4   ar
    27     5     1   ar
    28    42    43    1
    29    21    22    3
    30    21    15    1
    31    22    23    1
    32     4    13    1
    33     4     3   ar
    34    15    14   ar
    35    29    30    3
    36    14    13   ar
    37    14    18    1
    38    30    31    1
    39     2     3   ar
    40     2     1   ar
    41     2     7    1
    42     3    10    1
    43     6     1    1
    44    10    11    3
    45    11    12    1
    46    18    19    3
    47    19    20    1
    48     7     8    3
    49     8     9    1
