@<TRIPOS>MOLECULE
mol_data/noopt/geoms/mol2/12ee12ee-12ee.out
 35 37 0 0 0
SMALL
GASTEIGER

@<TRIPOS>ATOM
      1 C           0.1763    1.8460    0.0000 C.ar    1  LIG1        0.1093
      2 C           1.5558    1.8460    0.0000 C.ar    1  LIG1        0.0785
      3 C           1.9706    3.2334    0.0000 C.ar    1  LIG1        0.0888
      4 C           0.8165    3.9895   -0.0001 C.ar    1  LIG1        0.1875
      5 O          -0.3030    3.1567   -0.0002 O.2     1  LIG1       -0.4573
      6 H          -0.7504    0.9343    0.0000 H       1  LIG1        0.1042
      7 C           2.3515    0.8179    0.0001 C.1     1  LIG1       -0.0653
      8 C           3.0867   -0.1320    0.0002 C.1     1  LIG1       -0.1138
      9 H           3.7416   -0.9782    0.0003 H       1  LIG1        0.1232
     10 C           3.1998    3.6567    0.0000 C.1     1  LIG1       -0.0645
     11 C           4.3355    4.0478    0.0000 C.1     1  LIG1       -0.1138
     12 H           5.3472    4.3962    0.0000 H       1  LIG1        0.1232
     13 C           0.5416    5.2601   -0.0001 C.ar    1  LIG1        0.1885
     14 C          -0.6119    6.0167   -0.0001 C.ar    1  LIG1        0.0896
     15 C          -0.1979    7.4043   -0.0001 C.ar    1  LIG1        0.0896
     16 C           1.1818    7.4036   -0.0002 C.ar    1  LIG1        0.1885
     17 O           1.6612    6.0932   -0.0003 O.2     1  LIG1       -0.4460
     18 C          -1.8411    5.5934   -0.0000 C.1     1  LIG1       -0.0645
     19 C          -2.9768    5.2022    0.0000 C.1     1  LIG1       -0.1138
     20 H          -3.9885    4.8538    0.0001 H       1  LIG1        0.1232
     21 C          -0.9936    8.4323   -0.0001 C.1     1  LIG1       -0.0645
     22 C          -1.7288    9.3823   -0.0001 C.1     1  LIG1       -0.1138
     23 H          -2.3837   10.2284   -0.0001 H       1  LIG1        0.1232
     24 C           2.1085    8.3153   -0.0002 C.ar    1  LIG1        0.1875
     25 C           3.4880    8.3153   -0.0001 C.ar    1  LIG1        0.0888
     26 C           3.9028    9.7027   -0.0001 C.ar    1  LIG1        0.0785
     27 C           2.7487   10.4588   -0.0002 C.ar    1  LIG1        0.1093
     28 O           1.6292    9.6260   -0.0003 O.2     1  LIG1       -0.4573
     29 H           2.4738   11.7294   -0.0002 H       1  LIG1        0.1042
     30 C           4.2837    7.2872   -0.0000 C.1     1  LIG1       -0.0645
     31 C           5.0189    6.3373    0.0001 C.1     1  LIG1       -0.1138
     32 H           5.6738    5.4911    0.0001 H       1  LIG1        0.1232
     33 C           5.1320   10.1260   -0.0001 C.1     1  LIG1       -0.0653
     34 C           6.2677   10.5171   -0.0001 C.1     1  LIG1       -0.1138
     35 H           7.2794   10.8655   -0.0001 H       1  LIG1        0.1232
@<TRIPOS>BOND
     1    28    27   ar
     2    28    24   ar
     3    17    16   ar
     4    17    13   ar
     5    27    29    1
     6    27    26   ar
     7     5     4   ar
     8     5     1   ar
     9    16    24    1
    10    16    15   ar
    11    24    25   ar
    12    23    22    1
    13    25    26   ar
    14    25    30    1
    15    22    21    3
    16    14    15   ar
    17    14    13   ar
    18    14    18    1
    19    21    15    1
    20    26    33    1
    21    13     4    1
    22     4     3   ar
    23    33    34    3
    24    34    35    1
    25    18    19    3
    26    30    31    3
    27     1     6    1
    28     1     2   ar
    29    12    11    1
    30    11    10    3
    31    10     3    1
    32     3     2   ar
    33     2     7    1
    34    19    20    1
    35    31    32    1
    36     7     8    3
    37     8     9    1
