@<TRIPOS>MOLECULE
mol_data/noopt/geoms/mol2/12ee12ee12ee-12ee.out
 46 49 0 0 0
SMALL
GASTEIGER

@<TRIPOS>ATOM
      1 C           0.1763    1.8460    0.0000 C.ar    1  LIG1        0.1093
      2 C           1.5558    1.8460    0.0000 C.ar    1  LIG1        0.0785
      3 C           1.9706    3.2334    0.0000 C.ar    1  LIG1        0.0888
      4 C           0.8165    3.9895   -0.0001 C.ar    1  LIG1        0.1875
      5 O          -0.3030    3.1567   -0.0002 O.2     1  LIG1       -0.4573
      6 H          -0.7504    0.9343    0.0000 H       1  LIG1        0.1042
      7 C           2.3515    0.8179    0.0001 C.1     1  LIG1       -0.0653
      8 C           3.0867   -0.1320    0.0002 C.1     1  LIG1       -0.1138
      9 H           3.7416   -0.9782    0.0003 H       1  LIG1        0.1232
     10 C           3.1998    3.6567    0.0000 C.1     1  LIG1       -0.0645
     11 C           4.3355    4.0478    0.0000 C.1     1  LIG1       -0.1138
     12 H           5.3472    4.3962    0.0000 H       1  LIG1        0.1232
     13 C           0.5416    5.2601   -0.0001 C.ar    1  LIG1        0.1885
     14 C           1.2792    6.4258   -0.0001 C.ar    1  LIG1        0.0896
     15 C           0.3286    7.5182   -0.0001 C.ar    1  LIG1        0.0896
     16 C          -0.9274    6.9472   -0.0002 C.ar    1  LIG1        0.1885
     17 O          -0.8223    5.5559   -0.0003 O.2     1  LIG1       -0.4460
     18 C           2.5734    6.5485   -0.0000 C.1     1  LIG1       -0.0645
     19 C           3.7693    6.6618    0.0001 C.1     1  LIG1       -0.1138
     20 H           4.8345    6.7627    0.0002 H       1  LIG1        0.1232
     21 C           0.6282    8.7832   -0.0001 C.1     1  LIG1       -0.0645
     22 C           0.9050    9.9521   -0.0001 C.1     1  LIG1       -0.1138
     23 H           1.1515   10.9933   -0.0001 H       1  LIG1        0.1232
     24 C          -2.1481    7.3943   -0.0002 C.ar    1  LIG1        0.1885
     25 C          -3.4042    6.8241   -0.0002 C.ar    1  LIG1        0.0896
     26 C          -4.3554    7.9160   -0.0002 C.ar    1  LIG1        0.0896
     27 C          -3.6171    9.0815   -0.0003 C.ar    1  LIG1        0.1885
     28 O          -2.2534    8.7859   -0.0004 O.2     1  LIG1       -0.4460
     29 C          -3.7038    5.5591   -0.0001 C.1     1  LIG1       -0.0645
     30 C          -3.9806    4.3902   -0.0001 C.1     1  LIG1       -0.1138
     31 H          -4.2271    3.3490   -0.0000 H       1  LIG1        0.1232
     32 C          -5.6496    7.7933   -0.0002 C.1     1  LIG1       -0.0645
     33 C          -6.8455    7.6800   -0.0002 C.1     1  LIG1       -0.1138
     34 H          -7.9107    7.5790   -0.0002 H       1  LIG1        0.1232
     35 C          -3.8920   10.3521   -0.0003 C.ar    1  LIG1        0.1875
     36 C          -3.1543   11.5178   -0.0002 C.ar    1  LIG1        0.0888
     37 C          -4.1049   12.6102   -0.0002 C.ar    1  LIG1        0.0785
     38 C          -5.3610   12.0393   -0.0003 C.ar    1  LIG1        0.1093
     39 O          -5.2558   10.6479   -0.0004 O.2     1  LIG1       -0.4573
     40 H          -6.5817   12.4864   -0.0003 H       1  LIG1        0.1042
     41 C          -1.8601   11.6405   -0.0001 C.1     1  LIG1       -0.0645
     42 C          -0.6643   11.7538   -0.0000 C.1     1  LIG1       -0.1138
     43 H           0.4009   11.8548    0.0000 H       1  LIG1        0.1232
     44 C          -3.8054   13.8752   -0.0002 C.1     1  LIG1       -0.0653
     45 C          -3.5286   15.0441   -0.0002 C.1     1  LIG1       -0.1138
     46 H          -3.2820   16.0853   -0.0002 H       1  LIG1        0.1232
@<TRIPOS>BOND
     1    39    38   ar
     2    39    35   ar
     3    28    27   ar
     4    28    24   ar
     5    38    40    1
     6    38    37   ar
     7    17    16   ar
     8    17    13   ar
     9    27    35    1
    10    27    26   ar
    11    35    36   ar
    12    34    33    1
    13    36    37   ar
    14    36    41    1
    15    33    32    3
    16    25    26   ar
    17    25    24   ar
    18    25    29    1
    19    32    26    1
    20    37    44    1
    21    24    16    1
    22    16    15   ar
    23     5     4   ar
    24     5     1   ar
    25    44    45    3
    26    45    46    1
    27    29    30    3
    28    41    42    3
    29    22    23    1
    30    22    21    3
    31    21    15    1
    32    15    14   ar
    33    14    13   ar
    34    14    18    1
    35    13     4    1
    36     4     3   ar
    37    30    31    1
    38    42    43    1
    39     1     2   ar
    40     1     6    1
    41     2     3   ar
    42     2     7    1
    43     3    10    1
    44    10    11    3
    45    11    12    1
    46    18    19    3
    47    19    20    1
    48     7     8    3
    49     8     9    1
