@<TRIPOS>MOLECULE
mol_data/noopt/geoms/mol2/12ef13al-4if6ff.out
 49 51 0 0 0
SMALL
GASTEIGER

@<TRIPOS>ATOM
      1 C           0.1763    1.8460    0.0000 C.ar    1  LIG1        0.1117
      2 C           1.5558    1.8460    0.0000 C.ar    1  LIG1        0.1045
      3 C           1.9706    3.2334    0.0000 C.ar    1  LIG1        0.1798
      4 C           0.8165    3.9895   -0.0001 C.ar    1  LIG1        0.1934
      5 O          -0.3030    3.1567   -0.0002 O.2     1  LIG1       -0.4564
      6 H          -0.7504    0.9343    0.0000 H       1  LIG1        0.1043
      7 C           2.3515    0.8179    0.0001 C.1     1  LIG1       -0.0628
      8 C           3.0867   -0.1320    0.0002 C.1     1  LIG1       -0.1137
      9 H           3.7416   -0.9782    0.0003 H       1  LIG1        0.1232
     10 O           3.1998    3.6567    0.0000 O.3     1  LIG1       -0.5024
     11 H           3.2081    4.6167    0.0000 H       1  LIG1        0.2923
     12 C           0.5416    5.2601   -0.0001 C.ar    1  LIG1        0.0900
     13 C           1.3662    6.3409   -0.0005 C.ar    1  LIG1        0.0142
     14 C           0.5391    7.5098    0.0008 C.ar    1  LIG1        0.2047
     15 C          -0.7546    7.0920    0.0002 C.ar    1  LIG1        0.0946
     16 N          -0.7576    5.7154    0.0001 N.ar    1  LIG1       -0.3486
     17 H          -1.5690    5.1412   -0.0005 H       1  LIG1        0.1661
     18 H           2.6659    6.3141   -0.0004 H       1  LIG1        0.0678
     19 O           0.9464    8.7444    0.0020 O.3     1  LIG1       -0.2856
     20 C           2.3760    8.7754    0.0023 C.3     2  LIG2       -0.0681
     21 H           2.7108    9.7917    0.0031 H       1  LIG1        0.0227
     22 H           2.7434    8.2782    0.8758 H       1  LIG1        0.0227
     23 H           2.7437    8.2794   -0.8715 H       1  LIG1        0.0227
     24 C          -1.8179    9.1833    0.0018 C.ar    1  LIG1       -0.0404
     25 C          -3.0441    9.8759    0.0039 C.ar    1  LIG1       -0.0468
     26 C          -1.8613    7.7740    0.0007 C.ar    1  LIG1        0.0084
     27 C          -4.2608    9.1975    0.0043 C.ar    1  LIG1        0.0290
     28 H          -3.0336   10.9636    0.0049 H       1  LIG1        0.0628
     29 C          -3.0756    7.0963    0.0012 C.ar    1  LIG1       -0.0101
     30 C          -4.2831    7.8023    0.0029 C.ar    1  LIG1        0.1253
     31 H          -3.0827    6.0093    0.0004 H       1  LIG1        0.0661
     32 C          -0.7148    9.8717    0.0012 C.3     1  LIG1       -0.0391
     33 H          -0.8746   10.8018    0.5055 H       1  LIG1        0.0278
     34 H          -0.4126   10.0603   -1.0078 H       1  LIG1        0.0278
     35 H           0.0505    9.3194    0.5054 H       1  LIG1        0.0278
     36 O          -5.4153    7.1633    0.0034 O.3     1  LIG1       -0.5061
     37 H          -5.2496    6.2177    0.0035 H       1  LIG1        0.2922
     38 C          -6.6099    9.1964    0.0073 C.ar    1  LIG1        0.2205
     39 C          -5.3741    9.8688    0.0062 C.ar    1  LIG1        0.0504
     40 C          -5.3747   11.2648    0.0074 C.ar    1  LIG1       -0.0058
     41 C          -6.5985   11.9363    0.0095 C.ar    1  LIG1        0.1357
     42 C          -7.7820   11.1754    0.0103 C.ar    1  LIG1        0.0728
     43 N          -7.7998    9.8281    0.0094 N.ar    1  LIG1       -0.2173
     44 H          -4.4288   11.8247    0.0055 H       1  LIG1        0.0662
     45 H          -8.9457   11.7547    0.0123 H       1  LIG1        0.0868
     46 O          -6.6609    7.8973    0.0064 O.3     1  LIG1       -0.4920
     47 H          -5.7692    7.5417    0.0062 H       1  LIG1        0.2937
     48 O          -6.6525   13.2352    0.0104 O.3     1  LIG1       -0.5052
     49 H          -7.5699   13.5178    0.0107 H       1  LIG1        0.2922
@<TRIPOS>BOND
     1    34    32    1
     2    23    20    1
     3    17    16    1
     4    13    18    1
     5    13    12   ar
     6    13    14   ar
     7     5     4   ar
     8     5     1   ar
     9     4    12    1
    10     4     3   ar
    11    12    16   ar
    12     1     6    1
    13     1     2   ar
    14    11    10    1
    15    10     3    1
    16     3     2   ar
    17     2     7    1
    18    16    15   ar
    19     7     8    3
    20     8     9    1
    21    15    26    1
    22    15    14   ar
    23    31    29    1
    24    26    29   ar
    25    26    24   ar
    26    14    19    1
    27    29    30   ar
    28    32    24    1
    29    32    35    1
    30    32    33    1
    31    24    25   ar
    32    20    21    1
    33    20    22    1
    34    30    36    1
    35    30    27   ar
    36    36    37    1
    37    25    27   ar
    38    25    28    1
    39    27    39    1
    40    44    40    1
    41    39    38   ar
    42    39    40   ar
    43    47    46    1
    44    46    38    1
    45    38    43   ar
    46    40    41   ar
    47    43    42   ar
    48    41    42   ar
    49    41    48    1
    50    42    45    1
    51    48    49    1
