@<TRIPOS>MOLECULE
mol_data/noopt/geoms/mol2/12ef12ef12ef.out
 32 34 0 0 0
SMALL
GASTEIGER

@<TRIPOS>ATOM
      1 C           0.1763    1.8460    0.0000 C.ar    1  LIG1        0.1118
      2 C           1.5558    1.8460    0.0000 C.ar    1  LIG1        0.1045
      3 C           1.9706    3.2334    0.0000 C.ar    1  LIG1        0.1815
      4 C           0.8165    3.9895   -0.0001 C.ar    1  LIG1        0.2134
      5 O          -0.3030    3.1567   -0.0002 O.2     1  LIG1       -0.4547
      6 H          -0.7504    0.9343    0.0000 H       1  LIG1        0.1043
      7 C           2.3515    0.8179    0.0001 C.1     1  LIG1       -0.0628
      8 C           3.0867   -0.1320    0.0002 C.1     1  LIG1       -0.1137
      9 H           3.7416   -0.9782    0.0003 H       1  LIG1        0.1232
     10 O           3.1998    3.6567    0.0000 O.3     1  LIG1       -0.5023
     11 H           3.2081    4.6167    0.0000 H       1  LIG1        0.2923
     12 C           0.5416    5.2601   -0.0001 C.ar    1  LIG1        0.1934
     13 C           1.2792    6.4258   -0.0001 C.ar    1  LIG1        0.1157
     14 C           0.3286    7.5182   -0.0001 C.ar    1  LIG1        0.1823
     15 C          -0.9274    6.9472   -0.0002 C.ar    1  LIG1        0.2144
     16 O          -0.8223    5.5559   -0.0003 O.2     1  LIG1       -0.4434
     17 C           2.5734    6.5485   -0.0000 C.1     1  LIG1       -0.0621
     18 C           3.7693    6.6618    0.0001 C.1     1  LIG1       -0.1137
     19 H           4.8345    6.7627    0.0002 H       1  LIG1        0.1232
     20 O           0.6282    8.7833   -0.0001 O.3     1  LIG1       -0.5023
     21 H          -0.1786    9.3036   -0.0001 H       1  LIG1        0.2923
     22 C          -2.1481    7.3943   -0.0002 C.ar    1  LIG1        0.1924
     23 C          -2.7387    8.6410   -0.0002 C.ar    1  LIG1        0.1149
     24 C          -4.1701    8.4218   -0.0002 C.ar    1  LIG1        0.1709
     25 C          -4.3593    7.0551   -0.0003 C.ar    1  LIG1        0.1353
     26 O          -3.1273    6.4000   -0.0004 O.2     1  LIG1       -0.4547
     27 H          -5.3898    6.2627   -0.0003 H       1  LIG1        0.1068
     28 C          -2.1504    9.8002   -0.0001 C.1     1  LIG1       -0.0621
     29 C          -1.6067   10.8713   -0.0000 C.1     1  LIG1       -0.1137
     30 H          -1.1224   11.8255    0.0001 H       1  LIG1        0.1232
     31 O          -5.0790    9.3514   -0.0002 O.3     1  LIG1       -0.5028
     32 H          -5.9500    8.9479   -0.0002 H       1  LIG1        0.2923
@<TRIPOS>BOND
     1    26    25   ar
     2    26    22   ar
     3    27    25    1
     4    25    24   ar
     5    16    15   ar
     6    16    12   ar
     7    32    31    1
     8    31    24    1
     9     5     4   ar
    10     5     1   ar
    11    22    23   ar
    12    22    15    1
    13    23    24   ar
    14    23    28    1
    15    15    14   ar
    16    20    21    1
    17    20    14    1
    18    14    13   ar
    19    13    12   ar
    20    13    17    1
    21    12     4    1
    22    28    29    3
    23     4     3   ar
    24    29    30    1
    25    17    18    3
    26     1     6    1
    27     1     2   ar
    28    11    10    1
    29    10     3    1
    30     3     2   ar
    31     2     7    1
    32    18    19    1
    33     7     8    3
    34     8     9    1
