@<TRIPOS>MOLECULE
mol_data/noopt/geoms/mol2/12ef12ai(90)6ed(120)12ha(260).out
 43 46 0 0 0
SMALL
GASTEIGER

@<TRIPOS>ATOM
      1 C           0.1763    1.8460    0.0000 C.ar    1  LIG1        0.1118
      2 C           1.5558    1.8460    0.0000 C.ar    1  LIG1        0.1045
      3 C           1.9706    3.2334    0.0000 C.ar    1  LIG1        0.1815
      4 C           0.8165    3.9895   -0.0001 C.ar    1  LIG1        0.2120
      5 O          -0.3030    3.1567   -0.0002 O.2     1  LIG1       -0.4548
      6 H          -0.7504    0.9343    0.0000 H       1  LIG1        0.1043
      7 C           2.3515    0.8179    0.0001 C.1     1  LIG1       -0.0628
      8 C           3.0867   -0.1320    0.0002 C.1     1  LIG1       -0.1137
      9 H           3.7416   -0.9782    0.0003 H       1  LIG1        0.1232
     10 O           3.1998    3.6567    0.0000 O.3     1  LIG1       -0.5023
     11 H           3.2081    4.6167    0.0000 H       1  LIG1        0.2923
     12 C           0.5416    5.2601   -0.0001 C.ar    1  LIG1        0.1745
     13 C           0.3337    6.2212    0.9674 C.ar    1  LIG1       -0.0091
     14 C           0.0654    7.4612    0.2693 C.ar    1  LIG1       -0.0039
     15 C           0.1273    7.1754   -1.0791 C.ar    1  LIG1        0.1414
     16 O           0.4197    5.8246   -1.2706 O.2     1  LIG1       -0.4512
     17 H           0.3661    6.0709    2.2582 H       1  LIG1        0.0659
     18 C          -0.1827    8.6080    0.8297 C.3     1  LIG1       -0.0361
     19 H          -1.0587    8.5254    1.4386 H       1  LIG1        0.0279
     20 H          -0.3428    9.3476    0.0731 H       1  LIG1        0.0279
     21 H           0.6491    8.8949    1.4385 H       1  LIG1        0.0279
     22 C           0.6812    7.4867   -3.3407 C.ar    1  LIG1        0.1246
     23 C          -0.0197    7.8548   -2.1777 C.ar    1  LIG1        0.0526
     24 C          -0.8708    8.9600   -2.2339 C.ar    1  LIG1       -0.0288
     25 C          -0.9920    9.6542   -3.4389 C.ar    1  LIG1        0.0815
     26 C          -0.2492    9.2092   -4.5479 C.ar    1  LIG1        0.1265
     27 N           0.5763    8.1450   -4.5113 N.ar    1  LIG1       -0.2332
     28 H          -1.4341    9.2782   -1.3452 H       1  LIG1        0.0639
     29 C           1.4852    6.4652   -3.3379 C.1     1  LIG1       -0.0491
     30 C           2.2281    5.5213   -3.3354 C.1     1  LIG1       -0.1124
     31 H           2.8899    4.6804   -3.3332 H       1  LIG1        0.1232
     32 N          -2.4583   11.6029   -3.6340 N.1     1  LIG1       -0.1908
     33 C          -1.7711   10.6897   -3.5426 C.1     1  LIG1        0.1014
     34 C          -0.3285    9.8225   -5.6914 C.ar    1  LIG1        0.1747
     35 C          -0.4709    9.4345   -7.0075 C.ar    1  LIG1        0.0725
     36 C          -0.4887   10.6477   -7.7980 C.ar    1  LIG1       -0.0025
     37 C          -0.3562   11.6970   -6.9120 C.ar    1  LIG1        0.0945
     38 O          -0.2557   11.2136   -5.6069 O.2     1  LIG1       -0.4594
     39 H          -0.3050   12.9922   -7.0111 H       1  LIG1        0.1030
     40 N          -0.5714    8.2253   -7.4742 N.pl3   1  LIG1       -0.3550
     41 H          -1.3968    8.1516   -8.0339 H       1  LIG1        0.1424
     42 H           0.2305    8.0163   -8.0339 H       1  LIG1        0.1424
     43 H          -0.6080   10.7078   -9.0911 H       1  LIG1        0.0668
@<TRIPOS>BOND
     1    43    36    1
     2    42    40    1
     3    41    40    1
     4    36    35   ar
     5    36    37   ar
     6    40    35    1
     7    39    37    1
     8    35    34   ar
     9    37    38   ar
    10    34    38   ar
    11    34    26    1
    12    26    27   ar
    13    26    25   ar
    14    27    22   ar
    15    32    33    3
    16    33    25    1
    17    25    24   ar
    18    22    29    1
    19    22    23   ar
    20    29    30    3
    21    30    31    1
    22    24    23   ar
    23    24    28    1
    24    23    15    1
    25    16    15   ar
    26    16    12   ar
    27    15    14   ar
    28     5     4   ar
    29     5     1   ar
    30     4    12    1
    31     4     3   ar
    32    12    13   ar
    33     2     3   ar
    34     2     1   ar
    35     2     7    1
    36     3    10    1
    37     6     1    1
    38    10    11    1
    39     7     8    3
    40     8     9    1
    41    20    18    1
    42    14    18    1
    43    14    13   ar
    44    18    21    1
    45    18    19    1
    46    13    17    1
