@<TRIPOS>MOLECULE
mol_data/noopt/geoms/mol2/12ef6la4if-12fe-.out
 49 52 0 0 0
SMALL
GASTEIGER

@<TRIPOS>ATOM
      1 C           0.1763    1.8460    0.0000 C.ar    1  LIG1        0.1116
      2 C           1.5558    1.8460    0.0000 C.ar    1  LIG1        0.1044
      3 C           1.9706    3.2334    0.0000 C.ar    1  LIG1        0.1785
      4 C           0.8165    3.9895   -0.0001 C.ar    1  LIG1        0.1823
      5 O          -0.3030    3.1567   -0.0002 O.2     1  LIG1       -0.4577
      6 H          -0.7504    0.9343    0.0000 H       1  LIG1        0.1043
      7 C           2.3515    0.8179    0.0001 C.1     1  LIG1       -0.0628
      8 C           3.0867   -0.1320    0.0002 C.1     1  LIG1       -0.1137
      9 H           3.7416   -0.9782    0.0003 H       1  LIG1        0.1232
     10 O           3.1998    3.6567    0.0000 O.3     1  LIG1       -0.5024
     11 H           3.2081    4.6167    0.0000 H       1  LIG1        0.2923
     12 C          -0.7953    5.6985    0.0001 C.ar    1  LIG1        0.2261
     13 C           0.5416    5.2601   -0.0001 C.ar    1  LIG1        0.0824
     14 C           1.5573    6.2179    0.0001 C.ar    1  LIG1       -0.0438
     15 C           1.2067    7.5691    0.0002 C.ar    1  LIG1       -0.0348
     16 C          -0.1587    7.9086    0.0001 C.ar    1  LIG1        0.0752
     17 N          -1.1514    6.9977    0.0002 N.ar    1  LIG1       -0.2123
     18 H           2.6135    5.9134   -0.0011 H       1  LIG1        0.0627
     19 O          -1.7757    4.8447    0.0000 O.3     1  LIG1       -0.4792
     20 C          -3.0209    5.5479   -0.0001 C.3     1  LIG1        0.0804
     21 H          -3.8275    4.8448   -0.0003 H       1  LIG1        0.0660
     22 H          -3.0836    6.1624    0.8737 H       1  LIG1        0.0660
     23 H          -3.0833    6.1626   -0.8736 H       1  LIG1        0.0660
     24 H           2.1151    8.4991    0.0002 H       1  LIG1        0.0639
     25 C           0.4315   10.1791    0.0225 C.ar    1  LIG1       -0.0404
     26 C          -0.0272   11.5106    0.0233 C.ar    1  LIG1       -0.0439
     27 C          -0.5350    9.1529    0.0003 C.ar    1  LIG1        0.0069
     28 C          -1.3877   11.8094    0.0023 C.ar    1  LIG1        0.0626
     29 H           0.7016   12.3178    0.0405 H       1  LIG1        0.0629
     30 C          -1.8933    9.4507   -0.0206 C.ar    1  LIG1       -0.0100
     31 C          -2.3292   10.7798   -0.0199 C.ar    1  LIG1        0.1283
     32 H          -2.6191    8.6416   -0.0374 H       1  LIG1        0.0661
     33 C           1.7136    9.9631    0.0424 C.3     1  LIG1       -0.0391
     34 H           2.2029   10.7666    0.5523 H       1  LIG1        0.0278
     35 H           2.0806    9.9013   -0.9608 H       1  LIG1        0.0278
     36 H           1.9125    9.0435    0.5522 H       1  LIG1        0.0278
     37 O          -3.6003   11.0521   -0.0394 O.3     1  LIG1       -0.5060
     38 H          -4.1031   10.2343   -0.0442 H       1  LIG1        0.2922
     39 C          -1.7761   13.0500    0.0036 C.ar    1  LIG1        0.1807
     40 C          -1.1467   14.2776    0.0046 C.ar    1  LIG1        0.1785
     41 C          -2.1919   15.2797    0.0058 C.ar    1  LIG1        0.1044
     42 C          -3.3913   14.5977    0.0054 C.ar    1  LIG1        0.1116
     43 O          -3.1611   13.2216    0.0040 O.2     1  LIG1       -0.4578
     44 H          -4.6474   14.9329    0.0061 H       1  LIG1        0.1043
     45 O           0.1312   14.5165    0.0045 O.3     1  LIG1       -0.5024
     46 H           0.2799   15.4649    0.0045 H       1  LIG1        0.2923
     47 C          -2.0077   16.5666    0.0070 C.1     1  LIG1       -0.0628
     48 C          -1.8376   17.7557    0.0081 C.1     1  LIG1       -0.1137
     49 H          -1.6860   18.8149    0.0090 H       1  LIG1        0.1232
@<TRIPOS>BOND
     1    35    33    1
     2    23    20    1
     3    38    37    1
     4    37    31    1
     5    32    30    1
     6    30    31   ar
     7    30    27   ar
     8    31    28   ar
     9    18    14    1
    10    21    20    1
    11     5     4   ar
    12     5     1   ar
    13     4    13    1
    14     4     3   ar
    15    13    12   ar
    16    13    14   ar
    17    20    19    1
    18    20    22    1
    19    11    10    1
    20     1     6    1
    21     1     2   ar
    22    10     3    1
    23     3     2   ar
    24     2     7    1
    25    19    12    1
    26    12    17   ar
    27    14    15   ar
    28     7     8    3
    29    16    17   ar
    30    16    15   ar
    31    16    27    1
    32    24    15    1
    33     8     9    1
    34    27    25   ar
    35    28    39    1
    36    28    26   ar
    37    39    43   ar
    38    39    40   ar
    39    43    42   ar
    40    46    45    1
    41    45    40    1
    42    40    41   ar
    43    42    41   ar
    44    42    44    1
    45    41    47    1
    46    47    48    3
    47    48    49    1
    48    25    26   ar
    49    25    33    1
    50    26    29    1
    51    33    36    1
    52    33    34    1
