@<TRIPOS>MOLECULE
mol_data/noopt/geoms/mol2/12ef12fd(320)12he(230)4ee(120).out
 46 49 0 0 0
SMALL
GASTEIGER

@<TRIPOS>ATOM
      1 C           0.1763    1.8460    0.0000 C.ar    1  LIG1        0.1118
      2 C           1.5558    1.8460    0.0000 C.ar    1  LIG1        0.1045
      3 C           1.9706    3.2334    0.0000 C.ar    1  LIG1        0.1816
      4 C           0.8165    3.9895   -0.0001 C.ar    1  LIG1        0.2157
      5 O          -0.3030    3.1567   -0.0002 O.2     1  LIG1       -0.4546
      6 H          -0.7504    0.9343    0.0000 H       1  LIG1        0.1043
      7 C           2.3515    0.8179    0.0001 C.1     1  LIG1       -0.0628
      8 C           3.0867   -0.1320    0.0002 C.1     1  LIG1       -0.1137
      9 H           3.7416   -0.9782    0.0003 H       1  LIG1        0.1232
     10 O           3.1998    3.6567    0.0000 O.3     1  LIG1       -0.5023
     11 H           3.2081    4.6167    0.0000 H       1  LIG1        0.2923
     12 C           0.5416    5.2601   -0.0001 C.ar    1  LIG1        0.2168
     13 C           1.0956    6.3861   -0.5731 C.ar    1  LIG1        0.1844
     14 C           0.2775    7.5071   -0.1596 C.ar    1  LIG1        0.1426
     15 C          -0.7226    6.9915    0.6389 C.ar    1  LIG1        0.1936
     16 O          -0.5812    5.6081    0.7522 O.2     1  LIG1       -0.4433
     17 O           2.1448    6.4557   -1.3376 O.3     1  LIG1       -0.5023
     18 H           2.3434    7.3758   -1.5260 H       1  LIG1        0.2923
     19 N           0.6411    9.8446   -0.7841 N.1     1  LIG1       -0.1906
     20 C           0.4707    8.7491   -0.4915 C.1     1  LIG1        0.1068
     21 C          -1.7347    7.4838    1.2895 C.ar    1  LIG1        0.1937
     22 C          -3.1075    7.4072    1.1768 C.ar    1  LIG1        0.0904
     23 C          -3.6571    8.2115    2.2482 C.ar    1  LIG1        0.0918
     24 C          -2.5833    8.7264    2.9449 C.ar    1  LIG1        0.1542
     25 O          -1.3871    8.2918    2.3729 O.2     1  LIG1       -0.4485
     26 N          -3.7978    6.7501    0.2927 N.pl3   1  LIG1       -0.3540
     27 H          -4.3056    7.3940   -0.2796 H       1  LIG1        0.1425
     28 H          -3.1797    6.2112   -0.2796 H       1  LIG1        0.1425
     29 C          -4.9220    8.3957    2.4850 C.1     1  LIG1       -0.0640
     30 C          -6.0908    8.5659    2.7038 C.1     1  LIG1       -0.1137
     31 H          -7.1319    8.7175    2.8987 H       1  LIG1        0.1232
     32 C          -3.1146    9.2049    5.1793 C.ar    1  LIG1        0.0354
     33 C          -2.9220   10.0738    6.2708 C.ar    1  LIG1       -0.0445
     34 C          -2.4351    9.4993    3.9795 C.ar    1  LIG1        0.0351
     35 C          -2.0897   11.1867    6.1745 C.ar    1  LIG1       -0.0451
     36 H          -3.4369    9.8653    7.2060 H       1  LIG1        0.0630
     37 C          -1.6041   10.6102    3.8828 C.ar    1  LIG1       -0.0344
     38 C          -1.4254   11.4612    4.9784 C.ar    1  LIG1        0.0254
     39 H          -1.0912   10.8159    2.9467 H       1  LIG1        0.0637
     40 H          -1.9347   11.9677    7.2021 H       1  LIG1        0.0630
     41 C          -3.9032    8.1825    5.3301 C.1     1  LIG1       -0.0690
     42 C          -4.6319    7.2378    5.4694 C.1     1  LIG1       -0.1139
     43 H          -5.2810    6.3963    5.5934 H       1  LIG1        0.1232
     44 C          -0.6474   12.4983    4.8821 C.1     1  LIG1       -0.0696
     45 C           0.0714   13.4565    4.7930 C.1     1  LIG1       -0.1139
     46 H           0.7117   14.3101    4.7137 H       1  LIG1        0.1232
@<TRIPOS>BOND
     1    18    17    1
     2    17    13    1
     3    19    20    3
     4    13    14   ar
     5    13    12   ar
     6    20    14    1
     7    28    26    1
     8    27    26    1
     9    14    15   ar
    10     5     4   ar
    11     5     1   ar
    12     4    12    1
    13     4     3   ar
    14    12    16   ar
    15     1     6    1
    16     1     2   ar
    17    11    10    1
    18    10     3    1
    19     3     2   ar
    20     2     7    1
    21     7     8    3
    22     8     9    1
    23    26    22    1
    24    15    16   ar
    25    15    21    1
    26    22    21   ar
    27    22    23   ar
    28    21    25   ar
    29    23    29    1
    30    23    24   ar
    31    25    24   ar
    32    29    30    3
    33    30    31    1
    34    24    34    1
    35    39    37    1
    36    37    34   ar
    37    37    38   ar
    38    34    32   ar
    39    46    45    1
    40    45    44    3
    41    44    38    1
    42    38    35   ar
    43    32    41    1
    44    32    33   ar
    45    41    42    3
    46    42    43    1
    47    35    33   ar
    48    35    40    1
    49    33    36    1
