@<TRIPOS>MOLECULE
mol_data/noopt/geoms/mol2/12ef12ef-.out
 22 23 0 0 0
SMALL
GASTEIGER

@<TRIPOS>ATOM
      1 C           0.1763    1.8460    0.0000 C.ar    1  LIG1        0.1118
      2 C           1.5558    1.8460    0.0000 C.ar    1  LIG1        0.1045
      3 C           1.9706    3.2334    0.0000 C.ar    1  LIG1        0.1815
      4 C           0.8165    3.9895   -0.0001 C.ar    1  LIG1        0.2134
      5 O          -0.3030    3.1567   -0.0002 O.2     1  LIG1       -0.4547
      6 H          -0.7504    0.9343    0.0000 H       1  LIG1        0.1043
      7 C           2.3515    0.8179    0.0001 C.1     1  LIG1       -0.0628
      8 C           3.0867   -0.1320    0.0002 C.1     1  LIG1       -0.1137
      9 H           3.7416   -0.9782    0.0003 H       1  LIG1        0.1232
     10 O           3.1998    3.6567    0.0000 O.3     1  LIG1       -0.5023
     11 H           3.2081    4.6167    0.0000 H       1  LIG1        0.2923
     12 C           0.5416    5.2601   -0.0001 C.ar    1  LIG1        0.1923
     13 C          -0.6119    6.0167   -0.0001 C.ar    1  LIG1        0.1149
     14 C          -0.1979    7.4043   -0.0001 C.ar    1  LIG1        0.1709
     15 C           1.1818    7.4036   -0.0002 C.ar    1  LIG1        0.1353
     16 O           1.6612    6.0932   -0.0003 O.2     1  LIG1       -0.4547
     17 H           2.1085    8.3153   -0.0002 H       1  LIG1        0.1068
     18 C          -1.8411    5.5934   -0.0000 C.1     1  LIG1       -0.0621
     19 C          -2.9768    5.2022    0.0000 C.1     1  LIG1       -0.1137
     20 H          -3.9885    4.8538    0.0001 H       1  LIG1        0.1232
     21 O          -0.9936    8.4324   -0.0001 O.3     1  LIG1       -0.5028
     22 H          -1.9053    8.1319   -0.0001 H       1  LIG1        0.2923
@<TRIPOS>BOND
     1    16    15   ar
     2    16    12   ar
     3     5     4   ar
     4     5     1   ar
     5    15    17    1
     6    15    14   ar
     7    22    21    1
     8    13    14   ar
     9    13    12   ar
    10    13    18    1
    11    21    14    1
    12    12     4    1
    13     4     3   ar
    14    18    19    3
    15    10    11    1
    16    10     3    1
    17     1     6    1
    18     1     2   ar
    19     3     2   ar
    20     2     7    1
    21    19    20    1
    22     7     8    3
    23     8     9    1
