@<TRIPOS>MOLECULE
mol_data/noopt/geoms/mol2/12ef12ef-12ef.out
 32 34 0 0 0
SMALL
GASTEIGER

@<TRIPOS>ATOM
      1 C           0.1763    1.8460    0.0000 C.ar    1  LIG1        0.1118
      2 C           1.5558    1.8460    0.0000 C.ar    1  LIG1        0.1045
      3 C           1.9706    3.2334    0.0000 C.ar    1  LIG1        0.1815
      4 C           0.8165    3.9895   -0.0001 C.ar    1  LIG1        0.2134
      5 O          -0.3030    3.1567   -0.0002 O.2     1  LIG1       -0.4547
      6 H          -0.7504    0.9343    0.0000 H       1  LIG1        0.1043
      7 C           2.3515    0.8179    0.0001 C.1     1  LIG1       -0.0628
      8 C           3.0867   -0.1320    0.0002 C.1     1  LIG1       -0.1137
      9 H           3.7416   -0.9782    0.0003 H       1  LIG1        0.1232
     10 O           3.1998    3.6567    0.0000 O.3     1  LIG1       -0.5023
     11 H           3.2081    4.6167    0.0000 H       1  LIG1        0.2923
     12 C           0.5416    5.2601   -0.0001 C.ar    1  LIG1        0.1934
     13 C          -0.6119    6.0167   -0.0001 C.ar    1  LIG1        0.1157
     14 C          -0.1979    7.4043   -0.0001 C.ar    1  LIG1        0.1823
     15 C           1.1818    7.4036   -0.0002 C.ar    1  LIG1        0.2144
     16 O           1.6612    6.0932   -0.0003 O.2     1  LIG1       -0.4434
     17 C          -1.8411    5.5934   -0.0000 C.1     1  LIG1       -0.0621
     18 C          -2.9768    5.2022    0.0000 C.1     1  LIG1       -0.1137
     19 H          -3.9885    4.8538    0.0001 H       1  LIG1        0.1232
     20 O          -0.9936    8.4324   -0.0001 O.3     1  LIG1       -0.5023
     21 H          -1.9053    8.1319   -0.0001 H       1  LIG1        0.2923
     22 C           2.1085    8.3153   -0.0002 C.ar    1  LIG1        0.1924
     23 C           3.4880    8.3153   -0.0001 C.ar    1  LIG1        0.1149
     24 C           3.9028    9.7027   -0.0001 C.ar    1  LIG1        0.1709
     25 C           2.7487   10.4588   -0.0002 C.ar    1  LIG1        0.1353
     26 O           1.6292    9.6260   -0.0003 O.2     1  LIG1       -0.4547
     27 H           2.4738   11.7294   -0.0002 H       1  LIG1        0.1068
     28 C           4.2837    7.2872   -0.0000 C.1     1  LIG1       -0.0621
     29 C           5.0189    6.3373    0.0001 C.1     1  LIG1       -0.1137
     30 H           5.6738    5.4911    0.0001 H       1  LIG1        0.1232
     31 O           5.1320   10.1260   -0.0001 O.3     1  LIG1       -0.5028
     32 H           5.1403   11.0859   -0.0001 H       1  LIG1        0.2923
@<TRIPOS>BOND
     1    26    25   ar
     2    26    22   ar
     3    16    15   ar
     4    16    12   ar
     5    25    27    1
     6    25    24   ar
     7     5     4   ar
     8     5     1   ar
     9    15    22    1
    10    15    14   ar
    11    22    23   ar
    12    23    24   ar
    13    23    28    1
    14    21    20    1
    15    13    14   ar
    16    13    12   ar
    17    13    17    1
    18    20    14    1
    19    24    31    1
    20    12     4    1
    21     4     3   ar
    22    31    32    1
    23    17    18    3
    24    28    29    3
    25     1     6    1
    26     1     2   ar
    27    11    10    1
    28    10     3    1
    29     3     2   ar
    30     2     7    1
    31    18    19    1
    32    29    30    1
    33     7     8    3
    34     8     9    1
