@<TRIPOS>MOLECULE
mol_data/noopt/geoms/mol2/12ef6lh-13fl-4af-13ah-12hi-6ah-12lf.out
 96 101 0 0 0
SMALL
GASTEIGER

@<TRIPOS>ATOM
      1 C           0.1763    1.8460    0.0000 C.ar    1  LIG1        0.1116
      2 C           1.5558    1.8460    0.0000 C.ar    1  LIG1        0.1044
      3 C           1.9706    3.2334    0.0000 C.ar    1  LIG1        0.1785
      4 C           0.8165    3.9895   -0.0001 C.ar    1  LIG1        0.1824
      5 O          -0.3030    3.1567   -0.0002 O.2     1  LIG1       -0.4577
      6 H          -0.7504    0.9343    0.0000 H       1  LIG1        0.1043
      7 C           2.3515    0.8179    0.0001 C.1     1  LIG1       -0.0628
      8 C           3.0867   -0.1320    0.0002 C.1     1  LIG1       -0.1137
      9 H           3.7416   -0.9782    0.0003 H       1  LIG1        0.1232
     10 O           3.1998    3.6567    0.0000 O.3     1  LIG1       -0.5024
     11 H           3.2081    4.6167    0.0000 H       1  LIG1        0.2923
     12 C          -0.7951    5.6985   -0.0211 C.ar    1  LIG1        0.2262
     13 C           0.5416    5.2601   -0.0001 C.ar    1  LIG1        0.0841
     14 C           1.5571    6.2179    0.0209 C.ar    1  LIG1       -0.0230
     15 C           1.2066    7.5691    0.0200 C.ar    1  LIG1        0.0534
     16 C          -0.1586    7.9086   -0.0020 C.ar    1  LIG1        0.1152
     17 N          -1.1512    6.9977   -0.0223 N.ar    1  LIG1       -0.2088
     18 H           2.6132    5.9133    0.0367 H       1  LIG1        0.0645
     19 O          -1.7753    4.8448   -0.0410 O.3     1  LIG1       -0.4792
     20 C          -3.0205    5.5479   -0.0484 C.3     1  LIG1        0.0804
     21 H          -3.8270    4.8449   -0.0649 H       1  LIG1        0.0660
     22 H          -3.0934    6.1536    0.8307 H       1  LIG1        0.0660
     23 H          -3.0730    6.1713   -0.9164 H       1  LIG1        0.0660
     24 N           2.1148    8.4990    0.0389 N.pl3   1  LIG1       -0.3563
     25 H           2.9366    8.1718   -0.4276 H       1  LIG1        0.1424
     26 H           1.7683    9.3128   -0.4276 H       1  LIG1        0.1424
     27 C          -0.5350    9.1530   -0.0037 C.ar    1  LIG1        0.1131
     28 C           0.1999   10.2966   -0.0051 C.ar    1  LIG1        0.1866
     29 C          -0.7187   11.3952   -0.0055 C.ar    1  LIG1        0.1873
     30 C          -1.9745   10.8745   -0.0060 C.ar    1  LIG1        0.0931
     31 N          -1.8666    9.5021   -0.0044 N.ar    1  LIG1       -0.3470
     32 H          -2.6292    8.8645   -0.0044 H       1  LIG1        0.1662
     33 O           1.4976   10.3746   -0.0047 O.3     1  LIG1       -0.5019
     34 H           1.7631   11.2972   -0.0046 H       1  LIG1        0.2924
     35 O          -0.4122   12.6586   -0.0057 O.3     1  LIG1       -0.4895
     36 C           1.0104   12.8045   -0.0059 C.3     1  LIG1        0.0791
     37 H           1.2622   13.8445   -0.0063 H       1  LIG1        0.0660
     38 H           1.4168   12.3395    0.8679 H       1  LIG1        0.0660
     39 H           1.4166   12.3389   -0.8794 H       1  LIG1        0.0660
     40 C          -3.2029   12.8732    0.0152 C.ar    1  LIG1       -0.0517
     41 C          -4.4809   13.4648    0.0152 C.ar    1  LIG1       -0.0485
     42 C          -3.1325   11.4652   -0.0065 C.ar    1  LIG1        0.0055
     43 C          -5.6389   12.6907   -0.0062 C.ar    1  LIG1        0.0398
     44 H          -4.5581   14.5496    0.0320 H       1  LIG1        0.0625
     45 C          -4.2883   10.6920   -0.0279 C.ar    1  LIG1       -0.0103
     46 C          -5.5487   11.2984   -0.0280 C.ar    1  LIG1        0.1266
     47 H          -4.2076    9.6081   -0.0444 H       1  LIG1        0.0661
     48 H          -2.1592   13.6478    0.0355 H       1  LIG1        0.0624
     49 O          -6.6257   10.5705   -0.0478 O.3     1  LIG1       -0.5061
     50 H          -6.3843    9.6413   -0.0527 H       1  LIG1        0.2922
     51 C          -6.8027   13.2701   -0.0057 C.ar    1  LIG1        0.0523
     52 C          -7.1312   14.5891    0.0109 C.ar    1  LIG1       -0.0149
     53 C          -8.5607   14.6740    0.0037 C.ar    1  LIG1        0.0539
     54 C          -9.0428   13.4031   -0.0187 C.ar    1  LIG1        0.1053
     55 N          -7.9699   12.5405   -0.0241 N.ar    1  LIG1       -0.3501
     56 H          -8.0287   11.5484   -0.0395 H       1  LIG1        0.1661
     57 H          -6.2982   15.5870    0.0312 H       1  LIG1        0.0657
     58 N          -9.2700   15.7633    0.0158 N.pl3   1  LIG1       -0.3562
     59 H          -8.7701   16.4919   -0.4524 H       1  LIG1        0.1424
     60 H         -10.1385   15.6008   -0.4525 H       1  LIG1        0.1424
     61 C         -10.2668   12.9654   -0.0329 C.ar    1  LIG1        0.1743
     62 C         -11.5185   13.5452   -0.0436 C.ar    1  LIG1        0.0761
     63 C         -12.4780   12.4607   -0.0574 C.ar    1  LIG1        0.0167
     64 C         -11.7486   11.2896   -0.0543 C.ar    1  LIG1        0.1419
     65 O         -10.3828   11.5746   -0.0394 O.2     1  LIG1       -0.4511
     66 N         -11.8084   14.8125   -0.0418 N.pl3   1  LIG1       -0.3548
     67 H         -11.0869   15.3201   -0.5128 H       1  LIG1        0.1424
     68 H         -12.6787   14.9561   -0.5128 H       1  LIG1        0.1424
     69 C         -13.7714   12.5934   -0.0702 C.3     1  LIG1       -0.0343
     70 H         -14.2203   11.7612    0.4307 H       1  LIG1        0.0279
     71 H         -14.1164   12.6287   -1.0825 H       1  LIG1        0.0279
     72 H         -14.0420   13.4994    0.4306 H       1  LIG1        0.0279
     73 C         -11.0045    9.0617   -0.0871 C.ar    1  LIG1        0.0391
     74 C         -12.0332   10.0211   -0.0619 C.ar    1  LIG1        0.0363
     75 C         -13.3572    9.5788   -0.0451 C.ar    1  LIG1       -0.0397
     76 C         -13.6070    8.2054   -0.0541 C.ar    1  LIG1        0.0141
     77 C         -12.5109    7.3236   -0.0798 C.ar    1  LIG1        0.1175
     78 N         -11.2274    7.7331   -0.0961 N.ar    1  LIG1       -0.2504
     79 H         -14.1875   10.2989   -0.0263 H       1  LIG1        0.0632
     80 H          -9.7562    9.4244   -0.1033 H       1  LIG1        0.0837
     81 N         -14.8220    7.7432   -0.0394 N.3     1  LIG1       -0.2553
     82 H         -15.4288    8.3860   -0.5070 H       2  UNK2        0.0000
     83 H         -14.8482    6.8597   -0.5070 H       1  LIG1        0.2924
     84 C         -12.6924    6.0364   -0.0890 C.ar    1  LIG1        0.1985
     85 C         -13.7877    5.1978   -0.0959 C.ar    1  LIG1        0.2067
     86 C         -13.2736    3.8441   -0.1049 C.ar    1  LIG1        0.1977
     87 C         -11.8976    3.9454   -0.1029 C.ar    1  LIG1        0.1378
     88 O         -11.5150    5.2872   -0.0932 O.2     1  LIG1       -0.4538
     89 H         -10.9069    3.1037   -0.1078 H       1  LIG1        0.1069
     90 O         -15.0445    5.5303   -0.0947 O.3     1  LIG1       -0.5008
     91 C         -15.1611    6.9555   -0.0944 C.3     1  LIG1        0.0245
     92 H         -16.1956    7.2288   -0.0935 H       1  LIG1        0.0451
     93 H         -14.6868    7.3520    0.7791 H       1  LIG1        0.1406
     94 H         -14.6881    7.3523   -0.9682 H       1  LIG1        0.0451
     95 O         -13.9922    2.7607   -0.1131 O.3     1  LIG1       -0.5012
     96 H         -13.4152    1.9935   -0.1152 H       1  LIG1        0.2924
@<TRIPOS>BOND
     1    71    69    1
     2    94    91    1
     3    23    20    1
     4    39    36    1
     5    68    66    1
     6    67    66    1
     7    83    90    1
     8    60    58    1
     9    59    58    1
    10    26    24    1
    11    25    24    1
    12    96    95    1
    13    95    86    1
    14    89    87    1
    15    86    87   ar
    16    86    85   ar
    17    80    73    1
    18    87    88   ar
    19    78    73   ar
    20    78    77   ar
    21    85    90    1
    22    85    84   ar
    23    91    92    1
    24    91    81    1
    25    88    84   ar
    26    84    77    1
    27    73    74   ar
    28    77    76   ar
    29    69    63    1
    30    69    72    1
    31    69    70    1
    32    21    20    1
    33    74    64    1
    34    74    75   ar
    35    63    64   ar
    36    63    62   ar
    37    64    65   ar
    38    76    75   ar
    39    50    49    1
    40    20    19    1
    41    20    22    1
    42    49    46    1
    43    75    79    1
    44    47    45    1
    45    62    66    1
    46    62    61   ar
    47    19    12    1
    48    56    55    1
    49    81    93    1
    50    65    61   ar
    51    61    54    1
    52    46    45   ar
    53    46    43   ar
    54    45    42   ar
    55    55    54   ar
    56    55    51   ar
    57    17    12   ar
    58    17    16   ar
    59    12    13   ar
    60    54    53   ar
    61    42    30    1
    62    42    40   ar
    63    37    36    1
    64    43    51    1
    65    43    41   ar
    66    30    29   ar
    67    30    31   ar
    68    36    35    1
    69    36    38    1
    70    35    29    1
    71    51    52   ar
    72    29    28   ar
    73    28    33    1
    74    28    27   ar
    75    33    34    1
    76    32    31    1
    77    31    27   ar
    78    27    16    1
    79    16    15   ar
    80     5     4   ar
    81     5     1   ar
    82    13     4    1
    83    13    14   ar
    84     4     3   ar
    85    11    10    1
    86    10     3    1
    87     6     1    1
    88     3     2   ar
    89     2     1   ar
    90     2     7    1
    91     7     8    3
    92     8     9    1
    93    53    52   ar
    94    53    58    1
    95    52    57    1
    96    41    40   ar
    97    41    44    1
    98    40    48    1
    99    15    14   ar
   100    15    24    1
   101    14    18    1
