@<TRIPOS>MOLECULE
mol_data/noopt/geoms/mol2/12ef12ef-12ef-12ef.out
 42 45 0 0 0
SMALL
GASTEIGER

@<TRIPOS>ATOM
      1 C           0.1763    1.8460    0.0000 C.ar    1  LIG1        0.1118
      2 C           1.5558    1.8460    0.0000 C.ar    1  LIG1        0.1045
      3 C           1.9706    3.2334    0.0000 C.ar    1  LIG1        0.1815
      4 C           0.8165    3.9895   -0.0001 C.ar    1  LIG1        0.2134
      5 O          -0.3030    3.1567   -0.0002 O.2     1  LIG1       -0.4547
      6 H          -0.7504    0.9343    0.0000 H       1  LIG1        0.1043
      7 C           2.3515    0.8179    0.0001 C.1     1  LIG1       -0.0628
      8 C           3.0867   -0.1320    0.0002 C.1     1  LIG1       -0.1137
      9 H           3.7416   -0.9782    0.0003 H       1  LIG1        0.1232
     10 O           3.1998    3.6567    0.0000 O.3     1  LIG1       -0.5023
     11 H           3.2081    4.6167    0.0000 H       1  LIG1        0.2923
     12 C           0.5416    5.2601   -0.0001 C.ar    1  LIG1        0.1934
     13 C          -0.6119    6.0167   -0.0001 C.ar    1  LIG1        0.1157
     14 C          -0.1979    7.4043   -0.0001 C.ar    1  LIG1        0.1823
     15 C           1.1818    7.4036   -0.0002 C.ar    1  LIG1        0.2144
     16 O           1.6612    6.0932   -0.0003 O.2     1  LIG1       -0.4434
     17 C          -1.8411    5.5934   -0.0000 C.1     1  LIG1       -0.0621
     18 C          -2.9768    5.2022    0.0000 C.1     1  LIG1       -0.1137
     19 H          -3.9885    4.8538    0.0001 H       1  LIG1        0.1232
     20 O          -0.9936    8.4324   -0.0001 O.3     1  LIG1       -0.5023
     21 H          -1.9053    8.1319   -0.0001 H       1  LIG1        0.2923
     22 C           2.1085    8.3153   -0.0002 C.ar    1  LIG1        0.1934
     23 C           2.1310    9.6946   -0.0002 C.ar    1  LIG1        0.1157
     24 C           3.5250   10.0867   -0.0001 C.ar    1  LIG1        0.1823
     25 C           4.2622    8.9204   -0.0002 C.ar    1  LIG1        0.2144
     26 O           3.4112    7.8147   -0.0003 O.2     1  LIG1       -0.4434
     27 C           1.1161   10.5069   -0.0001 C.1     1  LIG1       -0.0621
     28 C           0.1783   11.2575   -0.0000 C.1     1  LIG1       -0.1137
     29 H          -0.6571   11.9262    0.0000 H       1  LIG1        0.1232
     30 O           3.9683   11.3088   -0.0001 O.3     1  LIG1       -0.5023
     31 H           3.2269   11.9186   -0.0001 H       1  LIG1        0.2923
     32 C           5.5281    8.6248   -0.0002 C.ar    1  LIG1        0.1924
     33 C           6.2658    7.4591   -0.0001 C.ar    1  LIG1        0.1149
     34 C           7.6600    7.8504   -0.0001 C.ar    1  LIG1        0.1709
     35 C           7.6818    9.2300   -0.0002 C.ar    1  LIG1        0.1353
     36 O           6.3794    9.7307   -0.0003 O.2     1  LIG1       -0.4547
     37 H           8.6085   10.1417   -0.0002 H       1  LIG1        0.1068
     38 C           5.8225    6.2370   -0.0000 C.1     1  LIG1       -0.0621
     39 C           5.4129    5.1078    0.0001 C.1     1  LIG1       -0.1137
     40 H           5.0480    4.1019    0.0001 H       1  LIG1        0.1232
     41 O           8.6749    7.0381   -0.0001 O.3     1  LIG1       -0.5028
     42 H           9.4906    7.5444   -0.0001 H       1  LIG1        0.2923
@<TRIPOS>BOND
     1    36    35   ar
     2    36    32   ar
     3    26    25   ar
     4    26    22   ar
     5    16    15   ar
     6    16    12   ar
     7    35    37    1
     8    35    34   ar
     9     5     4   ar
    10     5     1   ar
    11    25    32    1
    12    25    24   ar
    13    15    22    1
    14    15    14   ar
    15    32    33   ar
    16    23    22   ar
    17    23    24   ar
    18    23    27    1
    19    33    34   ar
    20    33    38    1
    21    13    14   ar
    22    13    12   ar
    23    13    17    1
    24    21    20    1
    25    24    30    1
    26    20    14    1
    27    30    31    1
    28    12     4    1
    29     4     3   ar
    30    34    41    1
    31    27    28    3
    32    41    42    1
    33    17    18    3
    34    38    39    3
    35    28    29    1
    36    11    10    1
    37    10     3    1
    38     1     2   ar
    39     1     6    1
    40     2     3   ar
    41     2     7    1
    42    18    19    1
    43    39    40    1
    44     7     8    3
    45     8     9    1
