@<TRIPOS>MOLECULE
mol_data/noopt/geoms/mol2/12ef13ee(340)13la(20)13ae(260).out
 46 49 0 0 0
SMALL
GASTEIGER

@<TRIPOS>ATOM
      1 C           0.1763    1.8460    0.0000 C.ar    1  LIG1        0.1117
      2 C           1.5558    1.8460    0.0000 C.ar    1  LIG1        0.1045
      3 C           1.9706    3.2334    0.0000 C.ar    1  LIG1        0.1799
      4 C           0.8165    3.9895   -0.0001 C.ar    1  LIG1        0.1945
      5 O          -0.3030    3.1567   -0.0002 O.2     1  LIG1       -0.4564
      6 H          -0.7504    0.9343    0.0000 H       1  LIG1        0.1043
      7 C           2.3515    0.8179    0.0001 C.1     1  LIG1       -0.0628
      8 C           3.0867   -0.1320    0.0002 C.1     1  LIG1       -0.1137
      9 H           3.7416   -0.9782    0.0003 H       1  LIG1        0.1232
     10 O           3.1998    3.6567    0.0000 O.3     1  LIG1       -0.5024
     11 H           3.2081    4.6167    0.0000 H       1  LIG1        0.2923
     12 C           0.5416    5.2601   -0.0001 C.ar    1  LIG1        0.1021
     13 C           1.3137    6.3295   -0.3289 C.ar    1  LIG1        0.0572
     14 C           0.5154    7.5047   -0.1495 C.ar    1  LIG1       -0.0005
     15 C          -0.7100    7.1017    0.2794 C.ar    1  LIG1        0.0717
     16 N          -0.6982    5.7282    0.3727 N.ar    1  LIG1       -0.3492
     17 H          -1.4635    5.1641    0.6626 H       1  LIG1        0.1661
     18 C           2.5495    6.2889   -0.7304 C.1     1  LIG1       -0.0671
     19 C           3.6914    6.2515   -1.1014 C.1     1  LIG1       -0.1138
     20 H           4.7085    6.2181   -1.4319 H       1  LIG1        0.1232
     21 C           0.8897    8.7321   -0.3577 C.3     1  LIG1       -0.0021
     22 C           1.2355    9.8663   -0.5501 C.3     1  LIG1       -0.0262
     23 H           1.5436   10.8765   -0.7215 H       1  LIG1        0.0313
     24 C          -1.7691    7.7940    0.5776 C.ar    1  LIG1        0.1059
     25 C          -1.8879    9.0437    1.0993 C.ar    1  LIG1        0.1479
     26 C          -3.2866    9.3217    1.2293 C.ar    1  LIG1        0.0075
     27 C          -3.9611    8.2304    0.7797 C.ar    1  LIG1        0.0670
     28 N          -3.0359    7.2925    0.3802 N.ar    1  LIG1       -0.3489
     29 H          -3.2487    6.3959    0.0077 H       1  LIG1        0.1661
     30 O          -0.9094    9.8368    1.4212 O.3     1  LIG1       -0.4864
     31 C           0.2986    9.0808    1.5393 C.3     1  LIG1        0.1236
     32 H           1.1038    9.7339    1.8041 H       1  LIG1        0.0731
     33 H           0.1801    8.3352    2.2976 H       1  LIG1        0.0731
     34 H           0.5160    8.6075    0.6047 H       1  LIG1        0.0359
     35 H          -3.8174   10.4149    1.6911 H       1  LIG1        0.0676
     36 C          -5.2384    8.0031    0.6971 C.ar    1  LIG1        0.0642
     37 C          -6.0072    7.6679   -0.3728 C.ar    1  LIG1       -0.0196
     38 C          -7.3549    7.5368    0.0933 C.ar    1  LIG1        0.0426
     39 C          -7.3501    7.7959    1.4278 C.ar    1  LIG1        0.0177
     40 N          -6.0564    8.0822    1.8015 N.ar    1  LIG1       -0.3584
     41 H          -5.7600    8.3095    2.7226 H       1  LIG1        0.1654
     42 H          -8.3236    7.8025    2.2893 H       1  LIG1        0.0819
     43 H          -5.5920    7.4999   -1.5932 H       1  LIG1        0.0651
     44 C          -8.3937    7.2269   -0.6242 C.1     1  LIG1       -0.0682
     45 C          -9.3536    6.9406   -1.2871 C.1     1  LIG1       -0.1139
     46 H         -10.2087    6.6855   -1.8776 H       1  LIG1        0.1232
@<TRIPOS>BOND
     1    46    45    1
     2    43    37    1
     3    20    19    1
     4    45    44    3
     5    19    18    3
     6    18    13    1
     7    23    22    1
     8    44    38    1
     9    22    21    1
    10    37    38   ar
    11    37    36   ar
    12    21    14    1
    13    21    34    1
    14    13    14   ar
    15    13    12   ar
    16    14    15   ar
    17     5     4   ar
    18     5     1   ar
    19    12     4    1
    20    12    16   ar
    21     4     3   ar
    22     1     2   ar
    23     1     6    1
    24    11    10    1
    25    10     3    1
    26     2     3   ar
    27     2     7    1
    28     7     8    3
    29     8     9    1
    30    29    28    1
    31    38    39   ar
    32    15    16   ar
    33    15    24    1
    34    16    17    1
    35    28    24   ar
    36    28    27   ar
    37    24    25   ar
    38    36    27    1
    39    36    40   ar
    40    27    26   ar
    41    25    26   ar
    42    25    30    1
    43    26    35    1
    44    30    31    1
    45    39    40   ar
    46    39    42    1
    47    31    32    1
    48    31    33    1
    49    40    41    1
