@<TRIPOS>MOLECULE
mol_data/noopt/geoms/mol2/12ef6hh-13ea-13ha-.out
 45 48 0 0 0
SMALL
GASTEIGER

@<TRIPOS>ATOM
      1 C           0.1763    1.8460    0.0000 C.ar    1  LIG1        0.1116
      2 C           1.5558    1.8460    0.0000 C.ar    1  LIG1        0.1044
      3 C           1.9706    3.2334    0.0000 C.ar    1  LIG1        0.1785
      4 C           0.8165    3.9895   -0.0001 C.ar    1  LIG1        0.1806
      5 O          -0.3030    3.1567   -0.0002 O.2     1  LIG1       -0.4578
      6 H          -0.7504    0.9343    0.0000 H       1  LIG1        0.1043
      7 C           2.3515    0.8179    0.0001 C.1     1  LIG1       -0.0628
      8 C           3.0867   -0.1320    0.0002 C.1     1  LIG1       -0.1137
      9 H           3.7416   -0.9782    0.0003 H       1  LIG1        0.1232
     10 O           3.1998    3.6567    0.0000 O.3     1  LIG1       -0.5024
     11 H           3.2081    4.6167    0.0000 H       1  LIG1        0.2923
     12 C          -0.7951    5.6985   -0.0211 C.ar    1  LIG1        0.1279
     13 C           0.5416    5.2601   -0.0001 C.ar    1  LIG1        0.0622
     14 C           1.5571    6.2179    0.0209 C.ar    1  LIG1       -0.0248
     15 C           1.2066    7.5691    0.0200 C.ar    1  LIG1        0.0532
     16 C          -0.1586    7.9086   -0.0020 C.ar    1  LIG1        0.1110
     17 N          -1.1512    6.9977   -0.0223 N.ar    1  LIG1       -0.2284
     18 H           2.6132    5.9133    0.0367 H       1  LIG1        0.0645
     19 N          -1.7753    4.8448   -0.0410 N.pl3   1  LIG1       -0.3426
     20 H          -2.5574    5.2464   -0.5175 H       1  LIG1        0.1437
     21 H          -1.4850    4.0150   -0.5175 H       1  LIG1        0.1437
     22 N           2.1148    8.4990    0.0389 N.pl3   1  LIG1       -0.3563
     23 H           2.9366    8.1718   -0.4276 H       1  LIG1        0.1424
     24 H           1.7683    9.3128   -0.4276 H       1  LIG1        0.1424
     25 C          -0.5350    9.1530   -0.0037 C.ar    1  LIG1        0.0829
     26 C           0.1999   10.2966   -0.0051 C.ar    1  LIG1        0.0521
     27 C          -0.7187   11.3952   -0.0055 C.ar    1  LIG1       -0.0188
     28 C          -1.9745   10.8745   -0.0060 C.ar    1  LIG1        0.0664
     29 N          -1.8666    9.5021   -0.0044 N.ar    1  LIG1       -0.3507
     30 H          -2.6292    8.8645   -0.0044 H       1  LIG1        0.1660
     31 C           1.4975   10.3746   -0.0047 C.1     1  LIG1       -0.0675
     32 C           2.6966   10.4467   -0.0042 C.1     1  LIG1       -0.1138
     33 H           3.7646   10.5110   -0.0039 H       1  LIG1        0.1232
     34 H          -0.4122   12.6585   -0.0057 H       1  LIG1        0.0652
     35 C          -3.1326   11.4652   -0.0065 C.ar    1  LIG1        0.0838
     36 C          -3.4482   12.7873    0.0093 C.ar    1  LIG1        0.0516
     37 C          -4.8768   12.8861    0.0010 C.ar    1  LIG1       -0.0230
     38 C          -5.3713   11.6199   -0.0213 C.ar    1  LIG1        0.0040
     39 N          -4.3068   10.7470   -0.0255 N.ar    1  LIG1       -0.3580
     40 H          -4.3752    9.7554   -0.0406 H       1  LIG1        0.1654
     41 H          -6.5995   11.1941   -0.0362 H       1  LIG1        0.0807
     42 N          -2.6056   13.7771    0.0298 N.pl3   1  LIG1       -0.3563
     43 H          -1.7630   13.5072   -0.4362 H       1  LIG1        0.1424
     44 H          -3.0063   14.5658   -0.4363 H       1  LIG1        0.1424
     45 H          -5.5756   13.9823    0.0122 H       1  LIG1        0.0651
@<TRIPOS>BOND
     1    21    19    1
     2    20    19    1
     3    44    42    1
     4    43    42    1
     5    24    22    1
     6    23    22    1
     7    19    12    1
     8    40    39    1
     9    41    38    1
    10    39    38   ar
    11    39    35   ar
    12    17    12   ar
    13    17    16   ar
    14    38    37   ar
    15    12    13   ar
    16    35    28    1
    17    35    36   ar
    18    28    27   ar
    19    28    29   ar
    20    34    27    1
    21    27    26   ar
    22    26    31    1
    23    26    25   ar
    24    31    32    3
    25    30    29    1
    26    29    25   ar
    27    32    33    1
    28    25    16    1
    29    16    15   ar
    30     5     4   ar
    31     5     1   ar
    32    13     4    1
    33    13    14   ar
    34     4     3   ar
    35     1     6    1
    36     1     2   ar
    37    11    10    1
    38    10     3    1
    39     3     2   ar
    40     2     7    1
    41     7     8    3
    42     8     9    1
    43    37    36   ar
    44    37    45    1
    45    36    42    1
    46    15    14   ar
    47    15    22    1
    48    14    18    1
