@<TRIPOS>MOLECULE
mol_data/noopt/geoms/mol2/12ef12ef12ef-12ef.out
 42 45 0 0 0
SMALL
GASTEIGER

@<TRIPOS>ATOM
      1 C           0.1763    1.8460    0.0000 C.ar    1  LIG1        0.1118
      2 C           1.5558    1.8460    0.0000 C.ar    1  LIG1        0.1045
      3 C           1.9706    3.2334    0.0000 C.ar    1  LIG1        0.1815
      4 C           0.8165    3.9895   -0.0001 C.ar    1  LIG1        0.2134
      5 O          -0.3030    3.1567   -0.0002 O.2     1  LIG1       -0.4547
      6 H          -0.7504    0.9343    0.0000 H       1  LIG1        0.1043
      7 C           2.3515    0.8179    0.0001 C.1     1  LIG1       -0.0628
      8 C           3.0867   -0.1320    0.0002 C.1     1  LIG1       -0.1137
      9 H           3.7416   -0.9782    0.0003 H       1  LIG1        0.1232
     10 O           3.1998    3.6567    0.0000 O.3     1  LIG1       -0.5023
     11 H           3.2081    4.6167    0.0000 H       1  LIG1        0.2923
     12 C           0.5416    5.2601   -0.0001 C.ar    1  LIG1        0.1934
     13 C           1.2792    6.4258   -0.0001 C.ar    1  LIG1        0.1157
     14 C           0.3286    7.5182   -0.0001 C.ar    1  LIG1        0.1823
     15 C          -0.9274    6.9472   -0.0002 C.ar    1  LIG1        0.2144
     16 O          -0.8223    5.5559   -0.0003 O.2     1  LIG1       -0.4434
     17 C           2.5734    6.5485   -0.0000 C.1     1  LIG1       -0.0621
     18 C           3.7693    6.6618    0.0001 C.1     1  LIG1       -0.1137
     19 H           4.8345    6.7627    0.0002 H       1  LIG1        0.1232
     20 O           0.6282    8.7833   -0.0001 O.3     1  LIG1       -0.5023
     21 H          -0.1786    9.3036   -0.0001 H       1  LIG1        0.2923
     22 C          -2.1481    7.3943   -0.0002 C.ar    1  LIG1        0.1934
     23 C          -3.4042    6.8241   -0.0002 C.ar    1  LIG1        0.1157
     24 C          -4.3554    7.9160   -0.0002 C.ar    1  LIG1        0.1823
     25 C          -3.6171    9.0815   -0.0003 C.ar    1  LIG1        0.2144
     26 O          -2.2534    8.7859   -0.0004 O.2     1  LIG1       -0.4434
     27 C          -3.7038    5.5591   -0.0001 C.1     1  LIG1       -0.0621
     28 C          -3.9806    4.3902   -0.0001 C.1     1  LIG1       -0.1137
     29 H          -4.2271    3.3490   -0.0000 H       1  LIG1        0.1232
     30 O          -5.6497    7.7933   -0.0002 O.3     1  LIG1       -0.5023
     31 H          -5.8833    6.8622   -0.0002 H       1  LIG1        0.2923
     32 C          -3.8920   10.3521   -0.0003 C.ar    1  LIG1        0.1924
     33 C          -3.1543   11.5178   -0.0002 C.ar    1  LIG1        0.1149
     34 C          -4.1049   12.6102   -0.0002 C.ar    1  LIG1        0.1709
     35 C          -5.3610   12.0393   -0.0003 C.ar    1  LIG1        0.1353
     36 O          -5.2558   10.6479   -0.0004 O.2     1  LIG1       -0.4547
     37 H          -6.5817   12.4864   -0.0003 H       1  LIG1        0.1068
     38 C          -1.8601   11.6405   -0.0001 C.1     1  LIG1       -0.0621
     39 C          -0.6643   11.7538   -0.0000 C.1     1  LIG1       -0.1137
     40 H           0.4009   11.8548    0.0000 H       1  LIG1        0.1232
     41 O          -3.8054   13.8753   -0.0002 O.3     1  LIG1       -0.5028
     42 H          -4.6121   14.3956   -0.0002 H       1  LIG1        0.2923
@<TRIPOS>BOND
     1    36    35   ar
     2    36    32   ar
     3    26    25   ar
     4    26    22   ar
     5    35    37    1
     6    35    34   ar
     7    16    15   ar
     8    16    12   ar
     9    25    32    1
    10    25    24   ar
    11    32    33   ar
    12    33    34   ar
    13    33    38    1
    14    23    24   ar
    15    23    22   ar
    16    23    27    1
    17    31    30    1
    18    30    24    1
    19    34    41    1
    20    22    15    1
    21    15    14   ar
    22     5     4   ar
    23     5     1   ar
    24    41    42    1
    25    27    28    3
    26    38    39    3
    27    20    21    1
    28    20    14    1
    29    14    13   ar
    30    13    12   ar
    31    13    17    1
    32    12     4    1
    33     4     3   ar
    34    28    29    1
    35    39    40    1
    36    10     3    1
    37    10    11    1
    38     1     2   ar
    39     1     6    1
    40     2     3   ar
    41     2     7    1
    42    17    18    3
    43    18    19    1
    44     7     8    3
    45     8     9    1
