@<TRIPOS>MOLECULE
mol_data/noopt/geoms/mol2/12ef12ef.out
 22 23 0 0 0
SMALL
GASTEIGER

@<TRIPOS>ATOM
      1 C           0.1763    1.8460    0.0000 C.ar    1  LIG1        0.1118
      2 C           1.5558    1.8460    0.0000 C.ar    1  LIG1        0.1045
      3 C           1.9706    3.2334    0.0000 C.ar    1  LIG1        0.1815
      4 C           0.8165    3.9895   -0.0001 C.ar    1  LIG1        0.2134
      5 O          -0.3030    3.1567   -0.0002 O.2     1  LIG1       -0.4547
      6 H          -0.7504    0.9343    0.0000 H       1  LIG1        0.1043
      7 C           2.3515    0.8179    0.0001 C.1     1  LIG1       -0.0628
      8 C           3.0867   -0.1320    0.0002 C.1     1  LIG1       -0.1137
      9 H           3.7416   -0.9782    0.0003 H       1  LIG1        0.1232
     10 O           3.1998    3.6567    0.0000 O.3     1  LIG1       -0.5023
     11 H           3.2081    4.6167    0.0000 H       1  LIG1        0.2923
     12 C           0.5416    5.2601   -0.0001 C.ar    1  LIG1        0.1923
     13 C           1.2792    6.4258   -0.0001 C.ar    1  LIG1        0.1149
     14 C           0.3286    7.5182   -0.0001 C.ar    1  LIG1        0.1709
     15 C          -0.9274    6.9472   -0.0002 C.ar    1  LIG1        0.1353
     16 O          -0.8223    5.5559   -0.0003 O.2     1  LIG1       -0.4547
     17 H          -2.1481    7.3943   -0.0002 H       1  LIG1        0.1068
     18 C           2.5734    6.5485   -0.0000 C.1     1  LIG1       -0.0621
     19 C           3.7693    6.6618    0.0001 C.1     1  LIG1       -0.1137
     20 H           4.8345    6.7627    0.0002 H       1  LIG1        0.1232
     21 O           0.6282    8.7833   -0.0001 O.3     1  LIG1       -0.5028
     22 H          -0.1786    9.3036   -0.0001 H       1  LIG1        0.2923
@<TRIPOS>BOND
     1    16    15   ar
     2    16    12   ar
     3    17    15    1
     4     5     4   ar
     5     5     1   ar
     6    15    14   ar
     7    12    13   ar
     8    12     4    1
     9    22    21    1
    10    21    14    1
    11    14    13   ar
    12    13    18    1
    13     4     3   ar
    14    10    11    1
    15    10     3    1
    16     1     6    1
    17     1     2   ar
    18    18    19    3
    19     3     2   ar
    20     2     7    1
    21    19    20    1
    22     7     8    3
    23     8     9    1
