@<TRIPOS>MOLECULE
mol_data/noopt/geoms/mol2/12ef12ef12ef12ef-.out
 42 45 0 0 0
SMALL
GASTEIGER

@<TRIPOS>ATOM
      1 C           0.1763    1.8460    0.0000 C.ar    1  LIG1        0.1118
      2 C           1.5558    1.8460    0.0000 C.ar    1  LIG1        0.1045
      3 C           1.9706    3.2334    0.0000 C.ar    1  LIG1        0.1815
      4 C           0.8165    3.9895   -0.0001 C.ar    1  LIG1        0.2134
      5 O          -0.3030    3.1567   -0.0002 O.2     1  LIG1       -0.4547
      6 H          -0.7504    0.9343    0.0000 H       1  LIG1        0.1043
      7 C           2.3515    0.8179    0.0001 C.1     1  LIG1       -0.0628
      8 C           3.0867   -0.1320    0.0002 C.1     1  LIG1       -0.1137
      9 H           3.7416   -0.9782    0.0003 H       1  LIG1        0.1232
     10 O           3.1998    3.6567    0.0000 O.3     1  LIG1       -0.5023
     11 H           3.2081    4.6167    0.0000 H       1  LIG1        0.2923
     12 C           0.5416    5.2601   -0.0001 C.ar    1  LIG1        0.1934
     13 C           1.2792    6.4258   -0.0001 C.ar    1  LIG1        0.1157
     14 C           0.3286    7.5182   -0.0001 C.ar    1  LIG1        0.1823
     15 C          -0.9274    6.9472   -0.0002 C.ar    1  LIG1        0.2144
     16 O          -0.8223    5.5559   -0.0003 O.2     1  LIG1       -0.4434
     17 C           2.5734    6.5485   -0.0000 C.1     1  LIG1       -0.0621
     18 C           3.7693    6.6618    0.0001 C.1     1  LIG1       -0.1137
     19 H           4.8345    6.7627    0.0002 H       1  LIG1        0.1232
     20 O           0.6282    8.7833   -0.0001 O.3     1  LIG1       -0.5023
     21 H          -0.1786    9.3036   -0.0001 H       1  LIG1        0.2923
     22 C          -2.1481    7.3943   -0.0002 C.ar    1  LIG1        0.1934
     23 C          -2.7387    8.6410   -0.0002 C.ar    1  LIG1        0.1157
     24 C          -4.1701    8.4218   -0.0002 C.ar    1  LIG1        0.1823
     25 C          -4.3593    7.0551   -0.0003 C.ar    1  LIG1        0.2144
     26 O          -3.1273    6.4000   -0.0004 O.2     1  LIG1       -0.4434
     27 C          -2.1504    9.8002   -0.0001 C.1     1  LIG1       -0.0621
     28 C          -1.6067   10.8713   -0.0000 C.1     1  LIG1       -0.1137
     29 H          -1.1224   11.8255    0.0001 H       1  LIG1        0.1232
     30 O          -5.0790    9.3514   -0.0002 O.3     1  LIG1       -0.5023
     31 H          -5.9500    8.9479   -0.0002 H       1  LIG1        0.2923
     32 C          -5.3898    6.2627   -0.0003 C.ar    1  LIG1        0.1924
     33 C          -5.5796    4.8963   -0.0003 C.ar    1  LIG1        0.1149
     34 C          -7.0109    4.6763   -0.0003 C.ar    1  LIG1        0.1709
     35 C          -7.6010    5.9235   -0.0004 C.ar    1  LIG1        0.1353
     36 O          -6.6221    6.9178   -0.0005 O.2     1  LIG1       -0.4547
     37 H          -8.8217    6.3706   -0.0004 H       1  LIG1        0.1068
     38 C          -4.6708    3.9667   -0.0002 C.1     1  LIG1       -0.0621
     39 C          -3.8311    3.1078   -0.0002 C.1     1  LIG1       -0.1137
     40 H          -3.0831    2.3427   -0.0001 H       1  LIG1        0.1232
     41 O          -7.5993    3.5171   -0.0003 O.3     1  LIG1       -0.5028
     42 H          -6.9374    2.8218   -0.0003 H       1  LIG1        0.2923
@<TRIPOS>BOND
     1    36    35   ar
     2    36    32   ar
     3    26    25   ar
     4    26    22   ar
     5    35    37    1
     6    35    34   ar
     7    42    41    1
     8    33    34   ar
     9    33    32   ar
    10    33    38    1
    11    41    34    1
    12    32    25    1
    13    16    15   ar
    14    16    12   ar
    15    25    24   ar
    16    38    39    3
    17    23    22   ar
    18    23    24   ar
    19    23    27    1
    20    22    15    1
    21    24    30    1
    22    30    31    1
    23    15    14   ar
    24     5     4   ar
    25     5     1   ar
    26    39    40    1
    27    20    21    1
    28    20    14    1
    29    14    13   ar
    30    13    12   ar
    31    13    17    1
    32    27    28    3
    33     4    12    1
    34     4     3   ar
    35    28    29    1
    36     2     3   ar
    37     2     1   ar
    38     2     7    1
    39     3    10    1
    40     6     1    1
    41    10    11    1
    42    17    18    3
    43    18    19    1
    44     7     8    3
    45     8     9    1
