@<TRIPOS>MOLECULE
mol_data/noopt/geoms/mol2/12ef12ef-12ef12ef-.out
 42 45 0 0 0
SMALL
GASTEIGER

@<TRIPOS>ATOM
      1 C           0.1763    1.8460    0.0000 C.ar    1  LIG1        0.1118
      2 C           1.5558    1.8460    0.0000 C.ar    1  LIG1        0.1045
      3 C           1.9706    3.2334    0.0000 C.ar    1  LIG1        0.1815
      4 C           0.8165    3.9895   -0.0001 C.ar    1  LIG1        0.2134
      5 O          -0.3030    3.1567   -0.0002 O.2     1  LIG1       -0.4547
      6 H          -0.7504    0.9343    0.0000 H       1  LIG1        0.1043
      7 C           2.3515    0.8179    0.0001 C.1     1  LIG1       -0.0628
      8 C           3.0867   -0.1320    0.0002 C.1     1  LIG1       -0.1137
      9 H           3.7416   -0.9782    0.0003 H       1  LIG1        0.1232
     10 O           3.1998    3.6567    0.0000 O.3     1  LIG1       -0.5023
     11 H           3.2081    4.6167    0.0000 H       1  LIG1        0.2923
     12 C           0.5416    5.2601   -0.0001 C.ar    1  LIG1        0.1934
     13 C          -0.6119    6.0167   -0.0001 C.ar    1  LIG1        0.1157
     14 C          -0.1979    7.4043   -0.0001 C.ar    1  LIG1        0.1823
     15 C           1.1818    7.4036   -0.0002 C.ar    1  LIG1        0.2144
     16 O           1.6612    6.0932   -0.0003 O.2     1  LIG1       -0.4434
     17 C          -1.8411    5.5934   -0.0000 C.1     1  LIG1       -0.0621
     18 C          -2.9768    5.2022    0.0000 C.1     1  LIG1       -0.1137
     19 H          -3.9885    4.8538    0.0001 H       1  LIG1        0.1232
     20 O          -0.9936    8.4324   -0.0001 O.3     1  LIG1       -0.5023
     21 H          -1.9053    8.1319   -0.0001 H       1  LIG1        0.2923
     22 C           2.1085    8.3153   -0.0002 C.ar    1  LIG1        0.1934
     23 C           3.4880    8.3153   -0.0001 C.ar    1  LIG1        0.1157
     24 C           3.9028    9.7027   -0.0001 C.ar    1  LIG1        0.1823
     25 C           2.7487   10.4588   -0.0002 C.ar    1  LIG1        0.2144
     26 O           1.6292    9.6260   -0.0003 O.2     1  LIG1       -0.4434
     27 C           4.2837    7.2872   -0.0000 C.1     1  LIG1       -0.0621
     28 C           5.0189    6.3373    0.0001 C.1     1  LIG1       -0.1137
     29 H           5.6738    5.4911    0.0001 H       1  LIG1        0.1232
     30 O           5.1320   10.1260   -0.0001 O.3     1  LIG1       -0.5023
     31 H           5.1403   11.0859   -0.0001 H       1  LIG1        0.2923
     32 C           2.4738   11.7294   -0.0002 C.ar    1  LIG1        0.1924
     33 C           1.3203   12.4859   -0.0002 C.ar    1  LIG1        0.1149
     34 C           1.7343   13.8736   -0.0002 C.ar    1  LIG1        0.1709
     35 C           3.1141   13.8729   -0.0003 C.ar    1  LIG1        0.1353
     36 O           3.5935   12.5625   -0.0004 O.2     1  LIG1       -0.4547
     37 H           4.0408   14.7846   -0.0002 H       1  LIG1        0.1068
     38 C           0.0911   12.0626   -0.0001 C.1     1  LIG1       -0.0621
     39 C          -1.0446   11.6715   -0.0001 C.1     1  LIG1       -0.1137
     40 H          -2.0563   11.3231   -0.0000 H       1  LIG1        0.1232
     41 O           0.9386   14.9017   -0.0002 O.3     1  LIG1       -0.5028
     42 H           0.0269   14.6012   -0.0002 H       1  LIG1        0.2923
@<TRIPOS>BOND
     1    36    35   ar
     2    36    32   ar
     3    26    25   ar
     4    26    22   ar
     5    16    15   ar
     6    16    12   ar
     7    35    37    1
     8    35    34   ar
     9    25    32    1
    10    25    24   ar
    11    33    32   ar
    12    33    34   ar
    13    33    38    1
    14     5     4   ar
    15     5     1   ar
    16    42    41    1
    17    41    34    1
    18    15    22    1
    19    15    14   ar
    20    22    23   ar
    21    38    39    3
    22    23    24   ar
    23    23    27    1
    24    13    14   ar
    25    13    12   ar
    26    13    17    1
    27    21    20    1
    28    20    14    1
    29    24    30    1
    30     4    12    1
    31     4     3   ar
    32    30    31    1
    33    39    40    1
    34    17    18    3
    35    27    28    3
    36     2     3   ar
    37     2     1   ar
    38     2     7    1
    39     6     1    1
    40     3    10    1
    41    10    11    1
    42    18    19    1
    43    28    29    1
    44     7     8    3
    45     8     9    1
