@<TRIPOS>MOLECULE
mol_data/noopt/geoms/mol2/12eg12eg-12eg-12eg.out
 42 45 0 0 0
SMALL
GASTEIGER

@<TRIPOS>ATOM
      1 C           0.1763    1.8460    0.0000 C.ar    1  LIG1        0.1092
      2 C           1.5558    1.8460    0.0000 C.ar    1  LIG1        0.0762
      3 C           1.9706    3.2334    0.0000 C.ar    1  LIG1        0.0691
      4 C           0.8165    3.9895   -0.0001 C.ar    1  LIG1        0.1852
      5 O          -0.3030    3.1567   -0.0002 O.2     1  LIG1       -0.4574
      6 H          -0.7504    0.9343    0.0000 H       1  LIG1        0.1042
      7 C           2.3515    0.8179    0.0001 C.1     1  LIG1       -0.0654
      8 C           3.0867   -0.1320    0.0002 C.1     1  LIG1       -0.1138
      9 H           3.7416   -0.9782    0.0003 H       1  LIG1        0.1232
     10 S           3.1997    3.6567    0.0000 S.3     1  LIG1       -0.1377
     11 H           3.2111    4.9666    0.0000 H       1  LIG1        0.1073
     12 C           0.5416    5.2601   -0.0001 C.ar    1  LIG1        0.1882
     13 C           1.2792    6.4258   -0.0001 C.ar    1  LIG1        0.0874
     14 C           0.3286    7.5182   -0.0001 C.ar    1  LIG1        0.0699
     15 C          -0.9274    6.9472   -0.0002 C.ar    1  LIG1        0.1863
     16 O          -0.8223    5.5559   -0.0003 O.2     1  LIG1       -0.4461
     17 C           2.5734    6.5485   -0.0000 C.1     1  LIG1       -0.0646
     18 C           3.7693    6.6618    0.0001 C.1     1  LIG1       -0.1138
     19 H           4.8345    6.7627    0.0002 H       1  LIG1        0.1232
     20 S           0.6282    8.7832   -0.0001 S.3     1  LIG1       -0.1377
     21 H          -0.4727    9.4932   -0.0001 H       1  LIG1        0.1073
     22 C          -2.1481    7.3943   -0.0002 C.ar    1  LIG1        0.1882
     23 C          -2.7388    8.6409    0.0146 C.ar    1  LIG1        0.0874
     24 C          -4.1701    8.4218    0.0039 C.ar    1  LIG1        0.0699
     25 C          -4.3592    7.0552   -0.0168 C.ar    1  LIG1        0.1863
     26 O          -3.1273    6.4001   -0.0198 O.2     1  LIG1       -0.4461
     27 C          -2.1504    9.8000    0.0344 C.1     1  LIG1       -0.0646
     28 C          -1.6068   10.8710    0.0528 C.1     1  LIG1       -0.1138
     29 H          -1.1226   11.8250    0.0691 H       1  LIG1        0.1232
     30 S          -5.0789    9.3513    0.0125 S.3     1  LIG1       -0.1377
     31 H          -6.2676    8.8006    0.0154 H       1  LIG1        0.1073
     32 C          -5.3897    6.2629   -0.0336 C.ar    1  LIG1        0.1872
     33 C          -6.7590    6.4303   -0.0315 C.ar    1  LIG1        0.0866
     34 C          -7.3391    5.1038   -0.0586 C.ar    1  LIG1        0.0587
     35 C          -6.2853    4.2134   -0.0755 C.ar    1  LIG1        0.1071
     36 O          -5.0730    4.9040   -0.0607 O.2     1  LIG1       -0.4574
     37 H          -6.1666    2.9191   -0.1013 H       1  LIG1        0.1041
     38 C          -7.4241    7.5471   -0.0097 C.1     1  LIG1       -0.0647
     39 C          -8.0385    8.5791    0.0105 C.1     1  LIG1       -0.1138
     40 H          -8.5859    9.4983    0.0284 H       1  LIG1        0.1232
     41 S          -8.6105    4.8329   -0.0652 S.3     1  LIG1       -0.1384
     42 H          -8.7808    3.5340   -0.0674 H       1  LIG1        0.1072
@<TRIPOS>BOND
     1    37    35    1
     2    35    36   ar
     3    35    34   ar
     4    42    41    1
     5    41    34    1
     6    36    32   ar
     7    34    33   ar
     8    32    33   ar
     9    32    25    1
    10    33    38    1
    11    26    25   ar
    12    26    22   ar
    13    25    24   ar
    14    38    39    3
    15    16    15   ar
    16    16    12   ar
    17    22    15    1
    18    22    23   ar
    19    15    14   ar
    20     5     4   ar
    21     5     1   ar
    22    13    14   ar
    23    13    12   ar
    24    13    17    1
    25    14    20    1
    26     4    12    1
    27     4     3   ar
    28    20    21    1
    29     2     3   ar
    30     2     1   ar
    31     2     7    1
    32     3    10    1
    33     6     1    1
    34    10    11    1
    35    17    18    3
    36    18    19    1
    37     7     8    3
    38     8     9    1
    39    24    30    1
    40    24    23   ar
    41    39    40    1
    42    30    31    1
    43    23    27    1
    44    27    28    3
    45    28    29    1
