@<TRIPOS>MOLECULE
mol_data/noopt/geoms/mol2/12eg12eg12eg-12eg-.out
 42 45 0 0 0
SMALL
GASTEIGER

@<TRIPOS>ATOM
      1 C           0.1763    1.8460    0.0000 C.ar    1  LIG1        0.1092
      2 C           1.5558    1.8460    0.0000 C.ar    1  LIG1        0.0762
      3 C           1.9706    3.2334    0.0000 C.ar    1  LIG1        0.0691
      4 C           0.8165    3.9895   -0.0001 C.ar    1  LIG1        0.1852
      5 O          -0.3030    3.1567   -0.0002 O.2     1  LIG1       -0.4574
      6 H          -0.7504    0.9343    0.0000 H       1  LIG1        0.1042
      7 C           2.3515    0.8179    0.0001 C.1     1  LIG1       -0.0654
      8 C           3.0867   -0.1320    0.0002 C.1     1  LIG1       -0.1138
      9 H           3.7416   -0.9782    0.0003 H       1  LIG1        0.1232
     10 S           3.1997    3.6567    0.0000 S.3     1  LIG1       -0.1377
     11 H           3.2111    4.9666    0.0000 H       1  LIG1        0.1073
     12 C           0.5416    5.2601   -0.0001 C.ar    1  LIG1        0.1882
     13 C           1.2791    6.4258    0.0147 C.ar    1  LIG1        0.0874
     14 C           0.3286    7.5182    0.0040 C.ar    1  LIG1        0.0699
     15 C          -0.9273    6.9473   -0.0167 C.ar    1  LIG1        0.1863
     16 O          -0.8221    5.5559   -0.0197 O.2     1  LIG1       -0.4461
     17 C           2.5732    6.5484    0.0345 C.1     1  LIG1       -0.0646
     18 C           3.7689    6.6617    0.0529 C.1     1  LIG1       -0.1138
     19 H           4.8340    6.7626    0.0692 H       1  LIG1        0.1232
     20 S           0.6281    8.7831    0.0126 S.3     1  LIG1       -0.1377
     21 H          -0.4728    9.4931    0.0155 H       1  LIG1        0.1073
     22 C          -2.1478    7.3944   -0.0335 C.ar    1  LIG1        0.1882
     23 C          -2.7386    8.6410   -0.0314 C.ar    1  LIG1        0.0874
     24 C          -4.1697    8.4219   -0.0585 C.ar    1  LIG1        0.0699
     25 C          -4.3586    7.0553   -0.0754 C.ar    1  LIG1        0.1863
     26 O          -3.1268    6.4002   -0.0606 O.2     1  LIG1       -0.4461
     27 C          -2.1504    9.8002   -0.0096 C.1     1  LIG1       -0.0646
     28 C          -1.6070   10.8712    0.0106 C.1     1  LIG1       -0.1138
     29 H          -1.1229   11.8253    0.0285 H       1  LIG1        0.1232
     30 S          -5.0785    9.3514   -0.0651 S.3     1  LIG1       -0.1377
     31 H          -6.2671    8.8008   -0.0673 H       1  LIG1        0.1073
     32 C          -5.3889    6.2629   -0.1012 C.ar    1  LIG1        0.1872
     33 C          -6.7581    6.4304   -0.1207 C.ar    1  LIG1        0.0866
     34 C          -7.3380    5.1038   -0.1458 C.ar    1  LIG1        0.0587
     35 C          -6.2842    4.2132   -0.1401 C.ar    1  LIG1        0.1071
     36 O          -5.0721    4.9038   -0.1128 O.2     1  LIG1       -0.4574
     37 H          -6.1654    2.9187   -0.1539 H       1  LIG1        0.1041
     38 C          -7.4232    7.5474   -0.1175 C.1     1  LIG1       -0.0647
     39 C          -8.0377    8.5795   -0.1146 C.1     1  LIG1       -0.1138
     40 H          -8.5851    9.4989   -0.1120 H       1  LIG1        0.1232
     41 S          -8.6092    4.8329   -0.1691 S.3     1  LIG1       -0.1384
     42 H          -8.7794    3.5340   -0.1769 H       1  LIG1        0.1072
@<TRIPOS>BOND
     1    42    41    1
     2    41    34    1
     3    37    35    1
     4    34    35   ar
     5    34    33   ar
     6    35    36   ar
     7    33    38    1
     8    33    32   ar
     9    38    39    3
    10    39    40    1
    11    36    32   ar
    12    32    25    1
    13    25    26   ar
    14    25    24   ar
    15    31    30    1
    16    30    24    1
    17    26    22   ar
    18    24    23   ar
    19    22    23   ar
    20    22    15    1
    21    23    27    1
    22    16    15   ar
    23    16    12   ar
    24    15    14   ar
    25    27    28    3
    26     5     4   ar
    27     5     1   ar
    28    12     4    1
    29    12    13   ar
    30     4     3   ar
    31    10    11    1
    32    10     3    1
    33     6     1    1
    34     1     2   ar
    35     3     2   ar
    36     2     7    1
    37     7     8    3
    38     8     9    1
    39    14    20    1
    40    14    13   ar
    41    28    29    1
    42    20    21    1
    43    13    17    1
    44    17    18    3
    45    18    19    1
