@<TRIPOS>MOLECULE
mol_data/noopt/geoms/mol2/12eg12eg-12eg12eg.out
 42 45 0 0 0
SMALL
GASTEIGER

@<TRIPOS>ATOM
      1 C           0.1763    1.8460    0.0000 C.ar    1  LIG1        0.1092
      2 C           1.5558    1.8460    0.0000 C.ar    1  LIG1        0.0762
      3 C           1.9706    3.2334    0.0000 C.ar    1  LIG1        0.0691
      4 C           0.8165    3.9895   -0.0001 C.ar    1  LIG1        0.1852
      5 O          -0.3030    3.1567   -0.0002 O.2     1  LIG1       -0.4574
      6 H          -0.7504    0.9343    0.0000 H       1  LIG1        0.1042
      7 C           2.3515    0.8179    0.0001 C.1     1  LIG1       -0.0654
      8 C           3.0867   -0.1320    0.0002 C.1     1  LIG1       -0.1138
      9 H           3.7416   -0.9782    0.0003 H       1  LIG1        0.1232
     10 S           3.1997    3.6567    0.0000 S.3     1  LIG1       -0.1377
     11 H           3.2111    4.9666    0.0000 H       1  LIG1        0.1073
     12 C           0.5416    5.2601   -0.0001 C.ar    1  LIG1        0.1882
     13 C           1.2792    6.4258   -0.0001 C.ar    1  LIG1        0.0874
     14 C           0.3286    7.5182   -0.0001 C.ar    1  LIG1        0.0699
     15 C          -0.9274    6.9472   -0.0002 C.ar    1  LIG1        0.1863
     16 O          -0.8223    5.5559   -0.0003 O.2     1  LIG1       -0.4461
     17 C           2.5734    6.5485   -0.0000 C.1     1  LIG1       -0.0646
     18 C           3.7693    6.6618    0.0001 C.1     1  LIG1       -0.1138
     19 H           4.8345    6.7627    0.0002 H       1  LIG1        0.1232
     20 S           0.6282    8.7832   -0.0001 S.3     1  LIG1       -0.1377
     21 H          -0.4727    9.4932   -0.0001 H       1  LIG1        0.1073
     22 C          -2.1481    7.3943   -0.0002 C.ar    1  LIG1        0.1882
     23 C          -2.7387    8.6410   -0.0002 C.ar    1  LIG1        0.0874
     24 C          -4.1701    8.4218   -0.0002 C.ar    1  LIG1        0.0699
     25 C          -4.3593    7.0551   -0.0003 C.ar    1  LIG1        0.1863
     26 O          -3.1273    6.4000   -0.0004 O.2     1  LIG1       -0.4461
     27 C          -2.1504    9.8002   -0.0001 C.1     1  LIG1       -0.0646
     28 C          -1.6067   10.8713   -0.0000 C.1     1  LIG1       -0.1138
     29 H          -1.1224   11.8255    0.0001 H       1  LIG1        0.1232
     30 S          -5.0789    9.3513   -0.0002 S.3     1  LIG1       -0.1377
     31 H          -6.2676    8.8007   -0.0002 H       1  LIG1        0.1073
     32 C          -5.3898    6.2627   -0.0003 C.ar    1  LIG1        0.1872
     33 C          -6.7590    6.4301    0.0145 C.ar    1  LIG1        0.0866
     34 C          -7.3393    5.1034    0.0038 C.ar    1  LIG1        0.0587
     35 C          -6.2856    4.2129   -0.0169 C.ar    1  LIG1        0.1071
     36 O          -5.0733    4.9036   -0.0199 O.2     1  LIG1       -0.4574
     37 H          -6.1671    2.9184   -0.0337 H       1  LIG1        0.1041
     38 C          -7.4239    7.5470    0.0343 C.1     1  LIG1       -0.0647
     39 C          -8.0383    8.5791    0.0527 C.1     1  LIG1       -0.1138
     40 H          -8.5855    9.4984    0.0690 H       1  LIG1        0.1232
     41 S          -8.6106    4.8324    0.0124 S.3     1  LIG1       -0.1384
     42 H          -8.7809    3.5335    0.0153 H       1  LIG1        0.1072
@<TRIPOS>BOND
     1    37    35    1
     2    36    35   ar
     3    36    32   ar
     4    35    34   ar
     5    26    25   ar
     6    26    22   ar
     7    16    15   ar
     8    16    12   ar
     9    32    25    1
    10    32    33   ar
    11    25    24   ar
    12    30    24    1
    13    30    31    1
    14    15    22    1
    15    15    14   ar
    16    24    23   ar
    17    22    23   ar
    18     5     4   ar
    19     5     1   ar
    20    23    27    1
    21    21    20    1
    22    20    14    1
    23    12    13   ar
    24    12     4    1
    25    14    13   ar
    26    13    17    1
    27    27    28    3
    28     4     3   ar
    29    28    29    1
    30     1     6    1
    31     1     2   ar
    32    17    18    3
    33    11    10    1
    34    10     3    1
    35     3     2   ar
    36     2     7    1
    37    18    19    1
    38     7     8    3
    39     8     9    1
    40    34    41    1
    41    34    33   ar
    42    41    42    1
    43    33    38    1
    44    38    39    3
    45    39    40    1
