@<TRIPOS>MOLECULE
mol_data/noopt/geoms/mol2/12eg12eg.out
 22 23 0 0 0
SMALL
GASTEIGER

@<TRIPOS>ATOM
      1 C           0.1763    1.8460    0.0000 C.ar    1  LIG1        0.1092
      2 C           1.5558    1.8460    0.0000 C.ar    1  LIG1        0.0762
      3 C           1.9706    3.2334    0.0000 C.ar    1  LIG1        0.0691
      4 C           0.8165    3.9895   -0.0001 C.ar    1  LIG1        0.1852
      5 O          -0.3030    3.1567   -0.0002 O.2     1  LIG1       -0.4574
      6 H          -0.7504    0.9343    0.0000 H       1  LIG1        0.1042
      7 C           2.3515    0.8179    0.0001 C.1     1  LIG1       -0.0654
      8 C           3.0867   -0.1320    0.0002 C.1     1  LIG1       -0.1138
      9 H           3.7416   -0.9782    0.0003 H       1  LIG1        0.1232
     10 S           3.1997    3.6567    0.0000 S.3     1  LIG1       -0.1377
     11 H           3.2111    4.9666    0.0000 H       1  LIG1        0.1073
     12 C           0.5416    5.2601   -0.0001 C.ar    1  LIG1        0.1872
     13 C           1.2791    6.4258    0.0147 C.ar    1  LIG1        0.0866
     14 C           0.3286    7.5182    0.0040 C.ar    1  LIG1        0.0587
     15 C          -0.9273    6.9473   -0.0167 C.ar    1  LIG1        0.1071
     16 O          -0.8221    5.5559   -0.0197 O.2     1  LIG1       -0.4574
     17 H          -2.1478    7.3944   -0.0335 H       1  LIG1        0.1041
     18 C           2.5732    6.5484    0.0345 C.1     1  LIG1       -0.0647
     19 C           3.7689    6.6617    0.0529 C.1     1  LIG1       -0.1138
     20 H           4.8340    6.7626    0.0692 H       1  LIG1        0.1232
     21 S           0.6281    8.7831    0.0126 S.3     1  LIG1       -0.1384
     22 H          -0.4728    9.4931    0.0155 H       1  LIG1        0.1072
@<TRIPOS>BOND
     1    17    15    1
     2    16    15   ar
     3    16    12   ar
     4    15    14   ar
     5     5     4   ar
     6     5     1   ar
     7     4    12    1
     8     4     3   ar
     9    12    13   ar
    10     1     6    1
    11     1     2   ar
    12    11    10    1
    13    10     3    1
    14     3     2   ar
    15     2     7    1
    16     7     8    3
    17     8     9    1
    18    14    21    1
    19    14    13   ar
    20    21    22    1
    21    13    18    1
    22    18    19    3
    23    19    20    1
