@<TRIPOS>MOLECULE
mol_data/noopt/geoms/mol2/12eg12eg-12eg-.out
 32 34 0 0 0
SMALL
GASTEIGER

@<TRIPOS>ATOM
      1 C           0.1763    1.8460    0.0000 C.ar    1  LIG1        0.1092
      2 C           1.5558    1.8460    0.0000 C.ar    1  LIG1        0.0762
      3 C           1.9706    3.2334    0.0000 C.ar    1  LIG1        0.0691
      4 C           0.8165    3.9895   -0.0001 C.ar    1  LIG1        0.1852
      5 O          -0.3030    3.1567   -0.0002 O.2     1  LIG1       -0.4574
      6 H          -0.7504    0.9343    0.0000 H       1  LIG1        0.1042
      7 C           2.3515    0.8179    0.0001 C.1     1  LIG1       -0.0654
      8 C           3.0867   -0.1320    0.0002 C.1     1  LIG1       -0.1138
      9 H           3.7416   -0.9782    0.0003 H       1  LIG1        0.1232
     10 S           3.1997    3.6567    0.0000 S.3     1  LIG1       -0.1377
     11 H           3.2111    4.9666    0.0000 H       1  LIG1        0.1073
     12 C           0.5416    5.2601   -0.0001 C.ar    1  LIG1        0.1882
     13 C           1.2792    6.4258   -0.0001 C.ar    1  LIG1        0.0874
     14 C           0.3286    7.5182   -0.0001 C.ar    1  LIG1        0.0699
     15 C          -0.9274    6.9472   -0.0002 C.ar    1  LIG1        0.1863
     16 O          -0.8223    5.5559   -0.0003 O.2     1  LIG1       -0.4461
     17 C           2.5734    6.5485   -0.0000 C.1     1  LIG1       -0.0646
     18 C           3.7693    6.6618    0.0001 C.1     1  LIG1       -0.1138
     19 H           4.8345    6.7627    0.0002 H       1  LIG1        0.1232
     20 S           0.6282    8.7832   -0.0001 S.3     1  LIG1       -0.1377
     21 H          -0.4727    9.4932   -0.0001 H       1  LIG1        0.1073
     22 C          -2.1481    7.3943   -0.0002 C.ar    1  LIG1        0.1872
     23 C          -2.7388    8.6409    0.0146 C.ar    1  LIG1        0.0866
     24 C          -4.1701    8.4218    0.0039 C.ar    1  LIG1        0.0587
     25 C          -4.3592    7.0552   -0.0168 C.ar    1  LIG1        0.1071
     26 O          -3.1273    6.4001   -0.0198 O.2     1  LIG1       -0.4574
     27 H          -5.3897    6.2629   -0.0336 H       1  LIG1        0.1041
     28 C          -2.1504    9.8000    0.0344 C.1     1  LIG1       -0.0647
     29 C          -1.6068   10.8710    0.0528 C.1     1  LIG1       -0.1138
     30 H          -1.1226   11.8250    0.0691 H       1  LIG1        0.1232
     31 S          -5.0789    9.3513    0.0125 S.3     1  LIG1       -0.1384
     32 H          -6.2676    8.8006    0.0154 H       1  LIG1        0.1072
@<TRIPOS>BOND
     1    27    25    1
     2    26    25   ar
     3    26    22   ar
     4    25    24   ar
     5    16    15   ar
     6    16    12   ar
     7     5     4   ar
     8     5     1   ar
     9    22    15    1
    10    22    23   ar
    11    15    14   ar
    12     4    12    1
    13     4     3   ar
    14    21    20    1
    15    20    14    1
    16    12    13   ar
    17    13    14   ar
    18    13    17    1
    19     1     2   ar
    20     1     6    1
    21    17    18    3
    22    10    11    1
    23    10     3    1
    24     2     3   ar
    25     2     7    1
    26    18    19    1
    27     7     8    3
    28     8     9    1
    29    24    31    1
    30    24    23   ar
    31    31    32    1
    32    23    28    1
    33    28    29    3
    34    29    30    1
