@<TRIPOS>MOLECULE
mol_data/noopt/geoms/mol2/12eg12eg12eg-.out
 32 34 0 0 0
SMALL
GASTEIGER

@<TRIPOS>ATOM
      1 C           0.1763    1.8460    0.0000 C.ar    1  LIG1        0.1092
      2 C           1.5558    1.8460    0.0000 C.ar    1  LIG1        0.0762
      3 C           1.9706    3.2334    0.0000 C.ar    1  LIG1        0.0691
      4 C           0.8165    3.9895   -0.0001 C.ar    1  LIG1        0.1852
      5 O          -0.3030    3.1567   -0.0002 O.2     1  LIG1       -0.4574
      6 H          -0.7504    0.9343    0.0000 H       1  LIG1        0.1042
      7 C           2.3515    0.8179    0.0001 C.1     1  LIG1       -0.0654
      8 C           3.0867   -0.1320    0.0002 C.1     1  LIG1       -0.1138
      9 H           3.7416   -0.9782    0.0003 H       1  LIG1        0.1232
     10 S           3.1997    3.6567    0.0000 S.3     1  LIG1       -0.1377
     11 H           3.2111    4.9666    0.0000 H       1  LIG1        0.1073
     12 C           0.5416    5.2601   -0.0001 C.ar    1  LIG1        0.1882
     13 C           1.2791    6.4258    0.0147 C.ar    1  LIG1        0.0874
     14 C           0.3286    7.5182    0.0040 C.ar    1  LIG1        0.0699
     15 C          -0.9273    6.9473   -0.0167 C.ar    1  LIG1        0.1863
     16 O          -0.8221    5.5559   -0.0197 O.2     1  LIG1       -0.4461
     17 C           2.5732    6.5484    0.0345 C.1     1  LIG1       -0.0646
     18 C           3.7689    6.6617    0.0529 C.1     1  LIG1       -0.1138
     19 H           4.8340    6.7626    0.0692 H       1  LIG1        0.1232
     20 S           0.6281    8.7831    0.0126 S.3     1  LIG1       -0.1377
     21 H          -0.4728    9.4931    0.0155 H       1  LIG1        0.1073
     22 C          -2.1478    7.3944   -0.0335 C.ar    1  LIG1        0.1872
     23 C          -2.7386    8.6410   -0.0314 C.ar    1  LIG1        0.0866
     24 C          -4.1697    8.4219   -0.0585 C.ar    1  LIG1        0.0587
     25 C          -4.3586    7.0553   -0.0754 C.ar    1  LIG1        0.1071
     26 O          -3.1268    6.4002   -0.0606 O.2     1  LIG1       -0.4574
     27 H          -5.3889    6.2629   -0.1012 H       1  LIG1        0.1041
     28 C          -2.1504    9.8002   -0.0096 C.1     1  LIG1       -0.0647
     29 C          -1.6070   10.8712    0.0106 C.1     1  LIG1       -0.1138
     30 H          -1.1229   11.8253    0.0285 H       1  LIG1        0.1232
     31 S          -5.0785    9.3514   -0.0651 S.3     1  LIG1       -0.1384
     32 H          -6.2671    8.8008   -0.0673 H       1  LIG1        0.1072
@<TRIPOS>BOND
     1    27    25    1
     2    25    26   ar
     3    25    24   ar
     4    32    31    1
     5    31    24    1
     6    26    22   ar
     7    24    23   ar
     8    22    23   ar
     9    22    15    1
    10    23    28    1
    11    16    15   ar
    12    16    12   ar
    13    15    14   ar
    14    28    29    3
    15     5     4   ar
    16     5     1   ar
    17     4    12    1
    18     4     3   ar
    19    12    13   ar
    20     1     2   ar
    21     1     6    1
    22    10     3    1
    23    10    11    1
    24     2     3   ar
    25     2     7    1
    26     7     8    3
    27     8     9    1
    28    14    20    1
    29    14    13   ar
    30    29    30    1
    31    20    21    1
    32    13    17    1
    33    17    18    3
    34    18    19    1
