@<TRIPOS>MOLECULE
mol_data/noopt/geoms/mol2/12eg12eg12eg12eg.out
 42 45 0 0 0
SMALL
GASTEIGER

@<TRIPOS>ATOM
      1 C           0.1763    1.8460    0.0000 C.ar    1  LIG1        0.1092
      2 C           1.5558    1.8460    0.0000 C.ar    1  LIG1        0.0762
      3 C           1.9706    3.2334    0.0000 C.ar    1  LIG1        0.0691
      4 C           0.8165    3.9895   -0.0001 C.ar    1  LIG1        0.1852
      5 O          -0.3030    3.1567   -0.0002 O.2     1  LIG1       -0.4574
      6 H          -0.7504    0.9343    0.0000 H       1  LIG1        0.1042
      7 C           2.3515    0.8179    0.0001 C.1     1  LIG1       -0.0654
      8 C           3.0867   -0.1320    0.0002 C.1     1  LIG1       -0.1138
      9 H           3.7416   -0.9782    0.0003 H       1  LIG1        0.1232
     10 S           3.1997    3.6567    0.0000 S.3     1  LIG1       -0.1377
     11 H           3.2111    4.9666    0.0000 H       1  LIG1        0.1073
     12 C           0.5416    5.2601   -0.0001 C.ar    1  LIG1        0.1882
     13 C           1.2791    6.4258    0.0147 C.ar    1  LIG1        0.0874
     14 C           0.3286    7.5182    0.0040 C.ar    1  LIG1        0.0699
     15 C          -0.9273    6.9473   -0.0167 C.ar    1  LIG1        0.1863
     16 O          -0.8221    5.5559   -0.0197 O.2     1  LIG1       -0.4461
     17 C           2.5732    6.5484    0.0345 C.1     1  LIG1       -0.0646
     18 C           3.7689    6.6617    0.0529 C.1     1  LIG1       -0.1138
     19 H           4.8340    6.7626    0.0692 H       1  LIG1        0.1232
     20 S           0.6281    8.7831    0.0126 S.3     1  LIG1       -0.1377
     21 H          -0.4728    9.4931    0.0155 H       1  LIG1        0.1073
     22 C          -2.1478    7.3944   -0.0335 C.ar    1  LIG1        0.1882
     23 C          -2.7383    8.6411   -0.0462 C.ar    1  LIG1        0.0874
     24 C          -4.1697    8.4219   -0.0626 C.ar    1  LIG1        0.0699
     25 C          -4.3589    7.0552   -0.0589 C.ar    1  LIG1        0.1863
     26 O          -3.1271    6.4001   -0.0412 O.2     1  LIG1       -0.4461
     27 C          -2.1499    9.8003   -0.0441 C.1     1  LIG1       -0.0646
     28 C          -1.6062   10.8714   -0.0422 C.1     1  LIG1       -0.1138
     29 H          -1.1219   11.8255   -0.0405 H       1  LIG1        0.1232
     30 S          -5.0783    9.3515   -0.0777 S.3     1  LIG1       -0.1377
     31 H          -6.2670    8.8009   -0.0828 H       1  LIG1        0.1073
     32 C          -5.3894    6.2628   -0.0679 C.ar    1  LIG1        0.1872
     33 C          -6.7587    6.4302   -0.0599 C.ar    1  LIG1        0.0866
     34 C          -7.3389    5.1036   -0.0793 C.ar    1  LIG1        0.0587
     35 C          -6.2851    4.2131   -0.0980 C.ar    1  LIG1        0.1071
     36 O          -5.0728    4.9038   -0.0915 O.2     1  LIG1       -0.4574
     37 H          -6.1665    2.9187   -0.1196 H       1  LIG1        0.1041
     38 C          -7.4237    7.5471   -0.0390 C.1     1  LIG1       -0.0647
     39 C          -8.0381    8.5790   -0.0197 C.1     1  LIG1       -0.1138
     40 H          -8.5854    9.4983   -0.0025 H       1  LIG1        0.1232
     41 S          -8.6103    4.8326   -0.0789 S.3     1  LIG1       -0.1384
     42 H          -8.7805    3.5337   -0.0787 H       1  LIG1        0.1072
@<TRIPOS>BOND
     1    37    35    1
     2    35    36   ar
     3    35    34   ar
     4    36    32   ar
     5    31    30    1
     6    34    41    1
     7    34    33   ar
     8    41    42    1
     9    30    24    1
    10    32    33   ar
    11    32    25    1
    12    24    25   ar
    13    24    23   ar
    14    33    38    1
    15    25    26   ar
    16    23    27    1
    17    23    22   ar
    18    27    28    3
    19    28    29    1
    20    26    22   ar
    21    38    39    3
    22    22    15    1
    23    16    15   ar
    24    16    12   ar
    25    39    40    1
    26    15    14   ar
    27     5     4   ar
    28     5     1   ar
    29     4    12    1
    30     4     3   ar
    31    12    13   ar
    32    11    10    1
    33     2     3   ar
    34     2     1   ar
    35     2     7    1
    36     3    10    1
    37     6     1    1
    38     7     8    3
    39     8     9    1
    40    14    20    1
    41    14    13   ar
    42    20    21    1
    43    13    17    1
    44    17    18    3
    45    18    19    1
