@<TRIPOS>MOLECULE
mol_data/noopt/geoms/mol2/12eh12fh-4hf12ll.out
 51 53 0 0 0
SMALL
GASTEIGER

@<TRIPOS>ATOM
      1 C           0.1763    1.8460    0.0000 C.ar    1  LIG1        0.1099
      2 C           1.5558    1.8460    0.0000 C.ar    1  LIG1        0.0837
      3 C           1.9706    3.2334    0.0000 C.ar    1  LIG1        0.0898
      4 C           0.8165    3.9895   -0.0001 C.ar    1  LIG1        0.1951
      5 O          -0.3030    3.1567   -0.0002 O.2     1  LIG1       -0.4565
      6 H          -0.7504    0.9343    0.0000 H       1  LIG1        0.1043
      7 C           2.3515    0.8179    0.0001 C.1     1  LIG1       -0.0646
      8 C           3.0867   -0.1320    0.0002 C.1     1  LIG1       -0.1138
      9 H           3.7416   -0.9782    0.0003 H       1  LIG1        0.1232
     10 N           3.1998    3.6567   -0.0000 N.pl3   1  LIG1       -0.3540
     11 H           3.7808    2.9932   -0.4714 H       1  LIG1        0.1425
     12 H           3.2491    4.5372   -0.4714 H       1  LIG1        0.1425
     13 C           0.5416    5.2601   -0.0001 C.ar    1  LIG1        0.2154
     14 C           1.2792    6.4258   -0.0001 C.ar    1  LIG1        0.1877
     15 C           0.3286    7.5182   -0.0001 C.ar    1  LIG1        0.1139
     16 C          -0.9274    6.9472   -0.0002 C.ar    1  LIG1        0.1620
     17 O          -0.8223    5.5559   -0.0003 O.2     1  LIG1       -0.4459
     18 O           2.5735    6.5485   -0.0000 O.3     1  LIG1       -0.5019
     19 H           2.8071    7.4796    0.0000 H       1  LIG1        0.2924
     20 N           0.6282    8.7832   -0.0001 N.pl3   1  LIG1       -0.3522
     21 H           1.4995    8.9194   -0.4715 H       1  LIG1        0.1425
     22 H          -0.0895    9.2957   -0.4715 H       1  LIG1        0.1425
     23 C          -2.3872    8.7838    0.0006 C.ar    1  LIG1        0.0442
     24 C          -3.7271    9.2174    0.0021 C.ar    1  LIG1        0.0203
     25 C          -2.1480    7.3943   -0.0002 C.ar    1  LIG1        0.0439
     26 C          -4.7837    8.3096    0.0022 C.ar    1  LIG1        0.0721
     27 H          -3.9341   10.2853    0.0029 H       1  LIG1        0.0194
     28 C          -3.2025    6.4876   -0.0001 C.ar    1  LIG1       -0.0069
     29 C          -4.5267    6.9380    0.0010 C.ar    1  LIG1        0.1290
     30 H          -2.9922    5.4211   -0.0006 H       1  LIG1        0.0662
     31 N          -1.4441    9.6786    0.0002 N.pl3   1  LIG1       -0.3569
     32 H          -0.6404    9.3155   -0.4713 H       1  LIG1        0.1424
     33 H          -1.7643   10.5002   -0.4713 H       1  LIG1        0.1424
     34 O          -5.5084    6.0857    0.0013 O.3     1  LIG1       -0.5060
     35 H          -5.1570    5.1923    0.0014 H       1  LIG1        0.2922
     36 C          -6.0086    8.7448    0.0035 C.ar    1  LIG1        0.1892
     37 C          -6.6114    9.9857    0.0045 C.ar    1  LIG1        0.2658
     38 C          -8.0406    9.7526    0.0058 C.ar    1  LIG1        0.2054
     39 C          -8.2164    8.3842    0.0054 C.ar    1  LIG1        0.1381
     40 O          -6.9782    7.7410    0.0039 O.2     1  LIG1       -0.4551
     41 H          -9.2392    7.5818    0.0061 H       1  LIG1        0.1069
     42 O          -6.0342   11.1506    0.0044 O.3     1  LIG1       -0.2799
     43 C          -4.6145   10.9798    0.0043 C.3     2  LIG2       -0.0776
     44 H          -4.1398   11.9388    0.0041 H       1  LIG1        0.0194
     45 H          -4.3205   10.4366    0.8781 H       1  LIG1        0.0194
     46 H          -4.3206   10.4363   -0.8692 H       1  LIG1        0.0194
     47 O          -8.9584   10.6734    0.0069 O.3     1  LIG1       -0.4887
     48 C          -8.3406   11.9630    0.0073 C.3     1  LIG1        0.0791
     49 H          -9.0963   12.7205    0.0081 H       1  LIG1        0.0660
     50 H          -7.7312   12.0664    0.8807 H       1  LIG1        0.0660
     51 H          -7.7321   12.0673   -0.8666 H       1  LIG1        0.0660
@<TRIPOS>BOND
     1    46    43    1
     2    51    48    1
     3    22    20    1
     4    21    20    1
     5    12    10    1
     6    11    10    1
     7    33    31    1
     8    32    31    1
     9    30    28    1
    10    17    16   ar
    11    17    13   ar
    12     5     4   ar
    13     5     1   ar
    14    25    16    1
    15    25    28   ar
    16    25    23   ar
    17    16    15   ar
    18    20    15    1
    19    15    14   ar
    20    14    13   ar
    21    14    18    1
    22    13     4    1
    23     4     3   ar
    24    28    29   ar
    25     1     2   ar
    26     1     6    1
    27    18    19    1
    28     2     3   ar
    29     2     7    1
    30     3    10    1
    31     7     8    3
    32     8     9    1
    33    31    23    1
    34    23    24   ar
    35    29    34    1
    36    29    26   ar
    37    34    35    1
    38    24    26   ar
    39    26    36    1
    40    27    43    1
    41    36    40   ar
    42    36    37   ar
    43    40    39   ar
    44    44    43    1
    45    43    45    1
    46    42    37    1
    47    37    38   ar
    48    39    38   ar
    49    39    41    1
    50    38    47    1
    51    47    48    1
    52    48    49    1
    53    48    50    1
