@<TRIPOS>MOLECULE
mol_data/noopt/geoms/mol2/12eh13le13fh12hf-.out
 48 46 0 0 0
SMALL
GASTEIGER

@<TRIPOS>ATOM
      1 C           0.1763    1.8460    0.0000 C.ar    1  LIG1        0.1086
      2 C           1.5558    1.8460    0.0000 C.ar    1  LIG1        0.0709
      3 C           1.9706    3.2334    0.0000 C.ar    1  LIG1        0.0497
      4 C           0.8165    3.9895   -0.0001 C.ar    1  LIG1        0.1637
      5 O          -0.3030    3.1567   -0.0002 O.2     1  LIG1       -0.4595
      6 H          -0.7504    0.9343    0.0000 H       1  LIG1        0.1042
      7 C           2.3515    0.8179    0.0001 C.1     1  LIG1       -0.0659
      8 C           3.0867   -0.1320    0.0002 C.1     1  LIG1       -0.1138
      9 H           3.7416   -0.9782    0.0003 H       1  LIG1        0.1232
     10 N           3.1998    3.6567   -0.0000 N.3     2  LIG2       -0.1629
     11 H           3.7808    2.9932   -0.4714 H       1  LIG1        0.1629
     12 H           3.2491    4.5372   -0.4714 H       2  LIG2        0.0309
     13 C           0.5416    5.2601   -0.0001 C.ar    1  LIG1        0.1317
     14 C           1.3660    6.3408    0.0161 C.ar    1  LIG1        0.2230
     15 C           0.5390    7.5098    0.0084 C.ar    1  LIG1        0.0988
     16 C          -0.7545    7.0921   -0.0139 C.ar    1  LIG1        0.0865
     17 N          -0.7574    5.7154   -0.0188 N.ar    1  LIG1       -0.3464
     18 H          -1.5687    5.1413   -0.0340 H       1  LIG1        0.1662
     19 O           2.6657    6.3141    0.0365 O.3     1  LIG1       -0.2842
     20 C           3.1150    4.9565    0.0440 C.3     3  LIG3       -0.0309
     21 H           4.1847    4.9349    0.0606 H       4  UNK4        0.0000
     22 H           2.7347    4.4596    0.9120 H       5  UNK5        0.0000
     23 H           2.7619    4.4591   -0.8351 H       6  UNK6        0.0000
     24 C           0.9462    8.7444    0.0202 C.1     1  LIG1       -0.0636
     25 C           1.3224    9.8851    0.0310 C.1     1  LIG1       -0.1137
     26 H           1.6575   10.9012    0.0406 H       1  LIG1        0.1232
     27 C          -1.8611    7.7741   -0.0284 C.ar    1  LIG1        0.1086
     28 C          -2.0691    9.1175   -0.0386 C.ar    1  LIG1        0.1651
     29 C          -3.4850    9.3309   -0.0520 C.ar    1  LIG1        0.0961
     30 C          -4.0800    8.1086   -0.0512 C.ar    1  LIG1        0.1091
     31 N          -3.0894    7.1527   -0.0363 N.ar    1  LIG1       -0.3461
     32 H          -3.2377    6.1698   -0.0325 H       1  LIG1        0.1662
     33 O          -1.1493   10.0362   -0.0352 O.3     1  LIG1       -0.5030
     34 H          -1.5621   10.9029   -0.0343 H       1  LIG1        0.2923
     35 N          -4.0930   10.4799   -0.0634 N.pl3   1  LIG1       -0.3534
     36 H          -3.5253   11.1528   -0.5377 H       1  LIG1        0.1425
     37 H          -4.9686   10.3890   -0.5377 H       1  LIG1        0.1425
     38 C          -5.3385    7.7831   -0.0607 C.ar    1  LIG1        0.1770
     39 C          -6.5328    8.4734   -0.0679 C.ar    1  LIG1        0.1146
     40 C          -7.5862    7.4799   -0.0771 C.ar    1  LIG1        0.1763
     41 C          -6.9655    6.2477   -0.0751 C.ar    1  LIG1        0.1359
     42 O          -5.5795    6.4084   -0.0651 O.2     1  LIG1       -0.4557
     43 H          -7.3633    5.0101   -0.0802 H       1  LIG1        0.1068
     44 N          -6.7072    9.7617   -0.0666 N.pl3   1  LIG1       -0.3522
     45 H          -5.9429   10.2020   -0.5377 H       1  LIG1        0.1425
     46 H          -7.5611    9.9830   -0.5378 H       1  LIG1        0.1425
     47 O          -8.8623    7.7286   -0.0857 O.3     1  LIG1       -0.5024
     48 H          -9.3499    6.9016   -0.0878 H       1  LIG1        0.2923
@<TRIPOS>BOND
     1    46    44    1
     2    37    35    1
     3    45    44    1
     4    36    35    1
     5    12    20    1
     6    11    10    1
     7    48    47    1
     8    47    40    1
     9    43    41    1
    10    40    41   ar
    11    40    39   ar
    12    41    42   ar
    13    39    44    1
    14    39    38   ar
    15    42    38   ar
    16    35    29    1
    17    38    30    1
    18    29    30   ar
    19    29    28   ar
    20    30    31   ar
    21    28    33    1
    22    28    27   ar
    23    31    32    1
    24    31    27   ar
    25    33    34    1
    26    18    17    1
    27    27    16    1
    28    17    16   ar
    29    17    13   ar
    30    16    15   ar
    31     5     4   ar
    32     5     1   ar
    33    13     4    1
    34    13    14   ar
    35     4     3   ar
    36     1     6    1
    37     1     2   ar
    38     3     2   ar
    39     2     7    1
    40     7     8    3
    41     8     9    1
    42    15    14   ar
    43    15    24    1
    44    14    19    1
    45    24    25    3
    46    25    26    1
