@<TRIPOS>MOLECULE
mol_data/noopt/geoms/mol2/12eh4lf(310)4ff(250)13fe(60).out
 51 54 0 0 0
SMALL
GASTEIGER

@<TRIPOS>ATOM
      1 C           0.1763    1.8460    0.0000 C.ar    1  LIG1        0.1098
      2 C           1.5558    1.8460    0.0000 C.ar    1  LIG1        0.0836
      3 C           1.9706    3.2334    0.0000 C.ar    1  LIG1        0.0867
      4 C           0.8165    3.9895   -0.0001 C.ar    1  LIG1        0.1602
      5 O          -0.3030    3.1567   -0.0002 O.2     1  LIG1       -0.4597
      6 H          -0.7504    0.9343    0.0000 H       1  LIG1        0.1043
      7 C           2.3515    0.8179    0.0001 C.1     1  LIG1       -0.0646
      8 C           3.0867   -0.1320    0.0002 C.1     1  LIG1       -0.1138
      9 H           3.7416   -0.9782    0.0003 H       1  LIG1        0.1232
     10 N           3.1998    3.6567   -0.0000 N.pl3   1  LIG1       -0.3541
     11 H           3.7808    2.9932   -0.4714 H       1  LIG1        0.1425
     12 H           3.2491    4.5372   -0.4714 H       1  LIG1        0.1425
     13 C           1.1617    6.1129   -0.9360 C.ar    1  LIG1        0.1316
     14 C           0.8315    7.4813   -0.8940 C.ar    1  LIG1       -0.0079
     15 C           0.5416    5.2600   -0.0001 C.ar    1  LIG1        0.0642
     16 C          -0.0761    7.9806    0.0375 C.ar    1  LIG1        0.0306
     17 H           1.2986    8.1570   -1.6070 H       1  LIG1        0.0661
     18 C          -0.3645    5.7580    0.9300 C.ar    1  LIG1       -0.0053
     19 C          -0.6798    7.1205    0.9556 C.ar    1  LIG1        0.1256
     20 H          -0.8293    5.0801    1.6414 H       1  LIG1        0.0662
     21 O           2.0153    5.7064   -1.8283 O.3     1  LIG1       -0.4944
     22 C           1.7490    4.3401   -2.1560 C.3     1  LIG1        0.0788
     23 H           2.4517    4.0060   -2.8905 H       1  LIG1        0.0660
     24 H           1.8395    3.7381   -1.2760 H       1  LIG1        0.0660
     25 H           0.7566    4.2538   -2.5465 H       1  LIG1        0.0660
     26 O          -1.5274    7.5802    1.8275 O.3     1  LIG1       -0.5061
     27 H          -2.1678    6.8981    2.0424 H       1  LIG1        0.2922
     28 C          -0.9197    9.8539   -1.0953 C.ar    1  LIG1        0.1255
     29 C          -1.2054   11.2315   -1.0340 C.ar    1  LIG1       -0.0068
     30 C          -0.3579    9.2496    0.0480 C.ar    1  LIG1        0.0306
     31 C          -0.9447   11.9764    0.1139 C.ar    1  LIG1        0.0468
     32 H          -1.6390   11.7178   -1.9050 H       1  LIG1        0.0662
     33 C          -0.0974    9.9927    1.1943 C.ar    1  LIG1       -0.0082
     34 C          -0.3887   11.3602    1.2357 C.ar    1  LIG1        0.1269
     35 H           0.3362    9.5038    2.0629 H       1  LIG1        0.0661
     36 O          -1.1855    9.2120   -2.1941 O.3     1  LIG1       -0.5061
     37 H          -0.4149    8.7075   -2.4649 H       1  LIG1        0.2922
     38 O          -0.1428   12.0499    2.3099 O.3     1  LIG1       -0.5061
     39 H          -0.9347   12.5237    2.5747 H       1  LIG1        0.2922
     40 C          -1.2211   13.2465    0.1358 C.ar    1  LIG1        0.0934
     41 C          -0.8678   14.2107    1.0265 C.ar    1  LIG1        0.1575
     42 C          -1.4422   15.4420    0.5741 C.ar    1  LIG1        0.0839
     43 C          -2.1198   15.1764   -0.5740 C.ar    1  LIG1        0.0213
     44 N          -1.9874   13.8333   -0.8458 N.ar    1  LIG1       -0.3565
     45 H          -2.3820   13.3622   -1.6271 H       1  LIG1        0.1655
     46 H          -2.8016   15.9633   -1.3525 H       1  LIG1        0.0820
     47 O          -0.1430   14.0420    2.0925 O.3     1  LIG1       -0.5035
     48 H           0.2408   14.8818    2.3552 H       1  LIG1        0.2923
     49 C          -1.3370   16.6019    1.1518 C.1     1  LIG1       -0.0645
     50 C          -1.2397   17.6735    1.6856 C.1     1  LIG1       -0.1137
     51 H          -1.1531   18.6282    2.1610 H       1  LIG1        0.1232
@<TRIPOS>BOND
     1    23    22    1
     2    25    22    1
     3    37    36    1
     4    36    28    1
     5    22    21    1
     6    22    24    1
     7    32    29    1
     8    21    13    1
     9    45    44    1
    10    17    14    1
    11    46    43    1
    12    28    29   ar
    13    28    30   ar
    14    29    31   ar
    15    13    14   ar
    16    13    15   ar
    17    14    16   ar
    18    44    43   ar
    19    44    40   ar
    20    43    42   ar
    21    12    10    1
    22    11    10    1
    23     5     4   ar
    24     5     1   ar
    25    15     4    1
    26    15    18   ar
    27     4     3   ar
    28     2     3   ar
    29     2     1   ar
    30     2     7    1
    31     3    10    1
    32     1     6    1
    33     7     8    3
    34     8     9    1
    35    16    30    1
    36    16    19   ar
    37    30    33   ar
    38    31    40    1
    39    31    34   ar
    40    40    41   ar
    41    42    41   ar
    42    42    49    1
    43    18    19   ar
    44    18    20    1
    45    19    26    1
    46    41    47    1
    47    49    50    3
    48    33    34   ar
    49    33    35    1
    50    34    38    1
    51    50    51    1
    52    26    27    1
    53    47    48    1
    54    38    39    1
