@<TRIPOS>MOLECULE
mol_data/noopt/geoms/mol2/12eh13hh(90)12il13id(340).out
 51 54 0 0 0
SMALL
GASTEIGER

@<TRIPOS>ATOM
      1 C           0.1763    1.8460    0.0000 C.ar    1  LIG1        0.1099
      2 C           1.5558    1.8460    0.0000 C.ar    1  LIG1        0.0837
      3 C           1.9706    3.2334    0.0000 C.ar    1  LIG1        0.0881
      4 C           0.8165    3.9895   -0.0001 C.ar    1  LIG1        0.1745
      5 O          -0.3030    3.1567   -0.0002 O.2     1  LIG1       -0.4582
      6 H          -0.7504    0.9343    0.0000 H       1  LIG1        0.1043
      7 C           2.3515    0.8179    0.0001 C.1     1  LIG1       -0.0646
      8 C           3.0867   -0.1320    0.0002 C.1     1  LIG1       -0.1138
      9 H           3.7416   -0.9782    0.0003 H       1  LIG1        0.1232
     10 N           3.1998    3.6567   -0.0000 N.pl3   1  LIG1       -0.3540
     11 H           3.7808    2.9932   -0.4714 H       1  LIG1        0.1425
     12 H           3.2491    4.5372   -0.4714 H       1  LIG1        0.1425
     13 C           0.5416    5.2601   -0.0001 C.ar    1  LIG1        0.1072
     14 C           0.3556    6.1222    1.0344 C.ar    1  LIG1        0.0750
     15 C           0.0757    7.4096    0.4732 C.ar    1  LIG1        0.0749
     16 C           0.1046    7.2779   -0.8796 C.ar    1  LIG1        0.1058
     17 N           0.3891    5.9634   -1.1736 N.ar    1  LIG1       -0.3463
     18 H           0.4718    5.5828   -2.0881 H       1  LIG1        0.1662
     19 N           0.4194    5.8281    2.2991 N.pl3   1  LIG1       -0.3548
     20 H          -0.2651    5.1315    2.5142 H       1  LIG1        0.1424
     21 H           1.3308    5.4774    2.5142 H       1  LIG1        0.1424
     22 N          -0.1623    8.5046    1.1323 N.pl3   1  LIG1       -0.3548
     23 H           0.5238    9.1922    0.8950 H       1  LIG1        0.1424
     24 H          -1.0719    8.8455    0.8950 H       1  LIG1        0.1424
     25 C          -0.0865    8.1580   -1.8170 C.ar    1  LIG1        0.1602
     26 C           0.7143    9.0291   -2.5262 C.ar    1  LIG1        0.0392
     27 C          -0.1544    9.7399   -3.4411 C.ar    1  LIG1        0.1706
     28 C          -1.4291    9.2557   -3.2303 C.ar    1  LIG1        0.1937
     29 O          -1.4130    8.2793   -2.2337 O.2     1  LIG1       -0.4477
     30 C           1.9987    9.1990   -2.4152 C.3     1  LIG1       -0.0325
     31 H           2.1937   10.1061   -1.8822 H       1  LIG1        0.0280
     32 H           2.4364    9.2570   -3.3899 H       1  LIG1        0.0280
     33 H           2.4229    8.3739   -1.8822 H       1  LIG1        0.0280
     34 O           0.2206   10.6530   -4.2871 O.3     1  LIG1       -0.4910
     35 C           1.6052   10.4760   -4.5977 C.3     1  LIG1        0.0790
     36 H           1.9135   11.2276   -5.2941 H       1  LIG1        0.0660
     37 H           2.1852   10.5600   -3.7024 H       1  LIG1        0.0660
     38 H           1.7531    9.5080   -5.0290 H       1  LIG1        0.0660
     39 C          -2.6048    9.4931   -3.7316 C.ar    1  LIG1        0.0900
     40 C          -3.0840   10.5905   -4.3750 C.ar    1  LIG1       -0.0047
     41 C          -4.4486   10.3237   -4.7175 C.ar    1  LIG1        0.0726
     42 C          -4.7428    9.0743   -4.2697 C.ar    1  LIG1        0.0200
     43 N          -3.6169    8.5624   -3.6651 N.ar    1  LIG1       -0.3568
     44 H          -3.5459    7.6632   -3.2474 H       1  LIG1        0.1655
     45 H          -5.8460    8.3904   -4.3419 H       1  LIG1        0.0820
     46 C          -2.4224   11.6807   -4.6295 C.3     1  LIG1       -0.0364
     47 H          -2.9366   12.5173   -4.2046 H       1  LIG1        0.0279
     48 H          -2.3434   11.8110   -5.6886 H       1  LIG1        0.0279
     49 H          -1.4429   11.6108   -4.2047 H       1  LIG1        0.0279
     50 N          -5.9747   11.8327   -5.8922 N.1     1  LIG1       -0.1908
     51 C          -5.2595   11.1255   -5.3417 C.1     1  LIG1        0.1009
@<TRIPOS>BOND
     1    50    51    3
     2    48    46    1
     3    51    41    1
     4    36    35    1
     5    38    35    1
     6    41    40   ar
     7    41    42   ar
     8    46    40    1
     9    46    49    1
    10    46    47    1
    11    35    34    1
    12    35    37    1
    13    40    39   ar
    14    45    42    1
    15    34    27    1
    16    42    43   ar
    17    39    43   ar
    18    39    28    1
    19    43    44    1
    20    27    28   ar
    21    27    26   ar
    22    32    30    1
    23    28    29   ar
    24    26    30    1
    25    26    25   ar
    26    30    33    1
    27    30    31    1
    28    29    25   ar
    29    18    17    1
    30    25    16    1
    31    17    16   ar
    32    17    13   ar
    33    16    15   ar
    34    12    10    1
    35    11    10    1
    36     5     4   ar
    37     5     1   ar
    38    13     4    1
    39    13    14   ar
    40     4     3   ar
    41    10     3    1
    42     6     1    1
    43     3     2   ar
    44     2     1   ar
    45     2     7    1
    46     7     8    3
    47     8     9    1
    48    15    14   ar
    49    15    22    1
    50    24    22    1
    51    23    22    1
    52    14    19    1
    53    19    20    1
    54    19    21    1
