@<TRIPOS>MOLECULE
mol_data/noopt/geoms/mol2/12ei12ei.out
 26 27 0 0 0
SMALL
GASTEIGER

@<TRIPOS>ATOM
      1 C           0.1763    1.8460    0.0000 C.ar    1  LIG1        0.1083
      2 C           1.5558    1.8460    0.0000 C.ar    1  LIG1        0.0659
      3 C           1.9706    3.2334    0.0000 C.ar    1  LIG1        0.0138
      4 C           0.8165    3.9895   -0.0001 C.ar    1  LIG1        0.1750
      5 O          -0.3030    3.1567   -0.0002 O.2     1  LIG1       -0.4583
      6 H          -0.7504    0.9343    0.0000 H       1  LIG1        0.1042
      7 C           2.3515    0.8179    0.0001 C.1     1  LIG1       -0.0662
      8 C           3.0867   -0.1320    0.0002 C.1     1  LIG1       -0.1138
      9 H           3.7416   -0.9782    0.0003 H       1  LIG1        0.1232
     10 C           3.2001    3.6568    0.0000 C.3     1  LIG1       -0.0348
     11 H           3.2528    4.5990    0.5044 H       1  LIG1        0.0279
     12 H           3.5373    3.7730   -1.0088 H       1  LIG1        0.0279
     13 H           3.8217    2.9468    0.5044 H       1  LIG1        0.0279
     14 C           0.5416    5.2601   -0.0001 C.ar    1  LIG1        0.1855
     15 C           1.2792    6.4258   -0.0001 C.ar    1  LIG1        0.0763
     16 C           0.3286    7.5182   -0.0001 C.ar    1  LIG1        0.0034
     17 C          -0.9274    6.9472   -0.0002 C.ar    1  LIG1        0.0968
     18 O          -0.8223    5.5559   -0.0003 O.2     1  LIG1       -0.4583
     19 H          -2.1481    7.3943   -0.0002 H       1  LIG1        0.1032
     20 C           2.5734    6.5485   -0.0000 C.1     1  LIG1       -0.0655
     21 C           3.7693    6.6618    0.0001 C.1     1  LIG1       -0.1138
     22 H           4.8345    6.7627    0.0002 H       1  LIG1        0.1232
     23 C           0.6283    8.7835   -0.0001 C.3     1  LIG1       -0.0355
     24 H          -0.1397    9.3319    0.5043 H       1  LIG1        0.0279
     25 H           0.7104    9.1306   -1.0089 H       1  LIG1        0.0279
     26 H           1.5606    8.9292    0.5043 H       1  LIG1        0.0279
@<TRIPOS>BOND
     1    25    23    1
     2    12    10    1
     3    18    17   ar
     4    18    14   ar
     5     5     4   ar
     6     5     1   ar
     7    19    17    1
     8    17    16   ar
     9    23    16    1
    10    23    26    1
    11    23    24    1
    12     4    14    1
    13     4     3   ar
    14    16    15   ar
    15    15    14   ar
    16    15    20    1
    17     1     6    1
    18     1     2   ar
    19    20    21    3
    20    10     3    1
    21    10    13    1
    22    10    11    1
    23     3     2   ar
    24     2     7    1
    25    21    22    1
    26     7     8    3
    27     8     9    1
