@<TRIPOS>MOLECULE
mol_data/noopt/geoms/mol2/12ei12ei-12ei-12ei-.out
 50 53 0 0 0
SMALL
GASTEIGER

@<TRIPOS>ATOM
      1 C           0.1763    1.8460    0.0000 C.ar    1  LIG1        0.1083
      2 C           1.5558    1.8460    0.0000 C.ar    1  LIG1        0.0659
      3 C           1.9706    3.2334    0.0000 C.ar    1  LIG1        0.0138
      4 C           0.8165    3.9895   -0.0001 C.ar    1  LIG1        0.1750
      5 O          -0.3030    3.1567   -0.0002 O.2     1  LIG1       -0.4583
      6 H          -0.7504    0.9343    0.0000 H       1  LIG1        0.1042
      7 C           2.3515    0.8179    0.0001 C.1     1  LIG1       -0.0662
      8 C           3.0867   -0.1320    0.0002 C.1     1  LIG1       -0.1138
      9 H           3.7416   -0.9782    0.0003 H       1  LIG1        0.1232
     10 C           3.2001    3.6568    0.0000 C.3     1  LIG1       -0.0348
     11 H           3.2528    4.5990    0.5044 H       1  LIG1        0.0279
     12 H           3.5373    3.7730   -1.0088 H       1  LIG1        0.0279
     13 H           3.8217    2.9468    0.5044 H       1  LIG1        0.0279
     14 C           0.5416    5.2601   -0.0001 C.ar    1  LIG1        0.1865
     15 C          -0.6119    6.0167   -0.0001 C.ar    1  LIG1        0.0771
     16 C          -0.1979    7.4043   -0.0001 C.ar    1  LIG1        0.0145
     17 C           1.1818    7.4036   -0.0002 C.ar    1  LIG1        0.1761
     18 O           1.6612    6.0932   -0.0003 O.2     1  LIG1       -0.4470
     19 C          -1.8411    5.5934   -0.0000 C.1     1  LIG1       -0.0655
     20 C          -2.9768    5.2022    0.0000 C.1     1  LIG1       -0.1138
     21 H          -3.9885    4.8538    0.0001 H       1  LIG1        0.1232
     22 C          -0.9938    8.4326   -0.0001 C.3     1  LIG1       -0.0348
     23 H          -1.9030    8.1799    0.5043 H       1  LIG1        0.0279
     24 H          -1.2121    8.7146   -1.0090 H       1  LIG1        0.0279
     25 H          -0.5211    9.2494    0.5042 H       1  LIG1        0.0279
     26 C           2.1085    8.3153   -0.0002 C.ar    1  LIG1        0.1866
     27 C           2.1310    9.6946   -0.0002 C.ar    1  LIG1        0.0771
     28 C           3.5250   10.0867   -0.0001 C.ar    1  LIG1        0.0145
     29 C           4.2622    8.9204   -0.0002 C.ar    1  LIG1        0.1760
     30 O           3.4112    7.8147   -0.0003 O.2     1  LIG1       -0.4470
     31 C           1.1161   10.5069   -0.0001 C.1     1  LIG1       -0.0655
     32 C           0.1783   11.2575   -0.0000 C.1     1  LIG1       -0.1138
     33 H          -0.6571   11.9262    0.0000 H       1  LIG1        0.1232
     34 C           3.9684   11.3091   -0.0001 C.3     1  LIG1       -0.0348
     35 H           3.2688   11.9423    0.5043 H       1  LIG1        0.0279
     36 H           4.0900   11.6444   -1.0090 H       1  LIG1        0.0279
     37 H           4.9114   11.3464    0.5043 H       1  LIG1        0.0279
     38 C           5.5281    8.6248   -0.0002 C.ar    1  LIG1        0.1855
     39 C           6.7057    9.3433   -0.0002 C.ar    1  LIG1        0.0763
     40 C           7.7825    8.3750   -0.0001 C.ar    1  LIG1        0.0034
     41 C           7.1911    7.1285   -0.0002 C.ar    1  LIG1        0.0968
     42 O           5.8017    7.2563   -0.0003 O.2     1  LIG1       -0.4583
     43 H           7.6182    5.9007   -0.0001 H       1  LIG1        0.1032
     44 C           6.8495   10.6354   -0.0001 C.1     1  LIG1       -0.0655
     45 C           6.9823   11.8292   -0.0000 C.1     1  LIG1       -0.1138
     46 H           7.1006   12.8926    0.0000 H       1  LIG1        0.1232
     47 C           9.0525    8.6540   -0.0001 C.3     1  LIG1       -0.0355
     48 H           9.2135    9.5838    0.5044 H       1  LIG1        0.0279
     49 H           9.4009    8.7306   -1.0089 H       1  LIG1        0.0279
     50 H           9.5882    7.8771    0.5043 H       1  LIG1        0.0279
@<TRIPOS>BOND
     1    24    22    1
     2    36    34    1
     3    49    47    1
     4    12    10    1
     5    30    29   ar
     6    30    26   ar
     7    42    41   ar
     8    42    38   ar
     9    18    17   ar
    10    18    14   ar
    11     5     4   ar
    12     5     1   ar
    13    29    38    1
    14    29    28   ar
    15    41    43    1
    16    41    40   ar
    17    17    26    1
    18    17    16   ar
    19    38    39   ar
    20    27    26   ar
    21    27    28   ar
    22    27    31    1
    23    39    40   ar
    24    39    44    1
    25    15    16   ar
    26    15    14   ar
    27    15    19    1
    28    28    34    1
    29    22    16    1
    30    22    25    1
    31    22    23    1
    32    34    37    1
    33    34    35    1
    34    40    47    1
    35    14     4    1
    36     4     3   ar
    37    31    32    3
    38    44    45    3
    39    47    50    1
    40    47    48    1
    41    19    20    3
    42    32    33    1
    43    45    46    1
    44     1     2   ar
    45     1     6    1
    46     2     3   ar
    47     2     7    1
    48     3    10    1
    49    10    13    1
    50    10    11    1
    51    20    21    1
    52     7     8    3
    53     8     9    1
