@<TRIPOS>MOLECULE
mol_data/noopt/geoms/mol2/12ei4de(130)6le4eh(170).out
 56 59 0 0 0
SMALL
GASTEIGER

@<TRIPOS>ATOM
      1 C           0.1763    1.8460    0.0000 C.ar    1  LIG1        0.1082
      2 C           1.5558    1.8460    0.0000 C.ar    1  LIG1        0.0658
      3 C           1.9706    3.2334    0.0000 C.ar    1  LIG1        0.0107
      4 C           0.8165    3.9895   -0.0001 C.ar    1  LIG1        0.1402
      5 O          -0.3030    3.1567   -0.0002 O.2     1  LIG1       -0.4614
      6 H          -0.7504    0.9343    0.0000 H       1  LIG1        0.1042
      7 C           2.3515    0.8179    0.0001 C.1     1  LIG1       -0.0662
      8 C           3.0867   -0.1320    0.0002 C.1     1  LIG1       -0.1138
      9 H           3.7416   -0.9782    0.0003 H       1  LIG1        0.1232
     10 C           3.2001    3.6568    0.0000 C.3     1  LIG1       -0.0349
     11 H           3.2528    4.5990    0.5044 H       1  LIG1        0.0279
     12 H           3.5373    3.7730   -1.0088 H       1  LIG1        0.0279
     13 H           3.8217    2.9468    0.5044 H       1  LIG1        0.0279
     14 C          -0.3755    5.7803    0.9358 C.ar    1  LIG1        0.0631
     15 C          -0.6405    7.1628    0.8938 C.ar    1  LIG1       -0.0346
     16 C           0.5416    5.2600   -0.0001 C.ar    1  LIG1        0.0361
     17 C          -0.0205    7.9926   -0.0377 C.ar    1  LIG1        0.0039
     18 H          -1.3451    7.5851    1.6068 H       1  LIG1        0.0637
     19 C           1.1609    6.0880   -0.9302 C.ar    1  LIG1       -0.0338
     20 C           0.8847    7.4590   -0.9558 C.ar    1  LIG1        0.0333
     21 H           1.8643    5.6628   -1.6416 H       1  LIG1        0.0637
     22 N          -1.5220    4.4197    2.6151 N.1     1  LIG1       -0.1908
     23 C          -0.9847    5.0573    1.8281 C.1     1  LIG1        0.0999
     24 C           1.4665    8.2280   -1.8277 C.1     1  LIG1       -0.0690
     25 C           2.0041    8.9386   -2.6333 C.1     1  LIG1       -0.1139
     26 H           2.4829    9.5715   -3.3509 H       1  LIG1        0.1232
     27 C          -1.6229    9.7103   -0.0538 C.ar    1  LIG1        0.2230
     28 C          -0.2885    9.2646   -0.0482 C.ar    1  LIG1        0.0461
     29 C           0.7325   10.2169   -0.0538 C.ar    1  LIG1       -0.0314
     30 C           0.3893   11.5699   -0.0650 C.ar    1  LIG1        0.0515
     31 C          -0.9742   11.9169   -0.0701 C.ar    1  LIG1        0.0914
     32 N          -1.9719   11.0114   -0.0645 N.ar    1  LIG1       -0.2111
     33 H           1.7870    9.9066   -0.0508 H       1  LIG1        0.0638
     34 O          -2.6080    8.8619   -0.0487 O.3     1  LIG1       -0.4792
     35 C          -3.8493    9.5719   -0.0470 C.3     1  LIG1        0.0804
     36 H          -4.6598    8.8733   -0.0430 H       1  LIG1        0.0660
     37 H          -3.9060   10.1890    0.8254 H       1  LIG1        0.0660
     38 H          -3.9109   10.1847   -0.9219 H       1  LIG1        0.0660
     39 C           1.3028   12.4949   -0.0708 C.1     1  LIG1       -0.0675
     40 C           2.1468   13.3495   -0.0762 C.1     1  LIG1       -0.1138
     41 H           2.8986   14.1109   -0.0810 H       1  LIG1        0.1232
     42 C          -2.6982   13.4959    0.1257 C.ar    1  LIG1        0.0340
     43 C          -3.0478   14.8600    0.1037 C.ar    1  LIG1       -0.0440
     44 C          -1.3437   13.1631   -0.0803 C.ar    1  LIG1        0.0188
     45 C          -2.0926   15.8506   -0.1129 C.ar    1  LIG1       -0.0399
     46 H          -4.0875   15.1389    0.2603 H       1  LIG1        0.0630
     47 C          -0.3897   14.1517   -0.2966 C.ar    1  LIG1       -0.0307
     48 C          -0.7567   15.5013   -0.3144 C.ar    1  LIG1        0.0252
     49 H           0.6483   13.8696   -0.4530 H       1  LIG1        0.0643
     50 H          -2.4505   17.1003   -0.1266 H       1  LIG1        0.0636
     51 C          -3.6339   12.6175    0.3328 C.1     1  LIG1       -0.0690
     52 C          -4.4984   11.8059    0.5241 C.1     1  LIG1       -0.1139
     53 H          -5.2686   11.0828    0.6946 H       1  LIG1        0.1232
     54 N           0.1394   16.4210   -0.5172 N.pl3   1  LIG1       -0.3579
     55 H           0.9026   16.0343   -1.0348 H       1  LIG1        0.1423
     56 H          -0.2669   17.1739   -1.0349 H       1  LIG1        0.1423
@<TRIPOS>BOND
     1    26    25    1
     2    25    24    3
     3    24    20    1
     4    21    19    1
     5    56    54    1
     6    55    54    1
     7    12    10    1
     8    20    19   ar
     9    20    17   ar
    10    19    16   ar
    11    38    35    1
    12    54    48    1
    13    49    47    1
    14    48    47   ar
    15    48    45   ar
    16    47    44   ar
    17    50    45    1
    18    45    43   ar
    19    41    40    1
    20    44    31    1
    21    44    42   ar
    22    40    39    3
    23    39    30    1
    24    31    30   ar
    25    31    32   ar
    26    30    29   ar
    27    32    27   ar
    28    29    33    1
    29    29    28   ar
    30    27    34    1
    31    27    28   ar
    32    34    35    1
    33    28    17    1
    34    35    36    1
    35    35    37    1
    36    17    15   ar
    37     5     4   ar
    38     5     1   ar
    39    16     4    1
    40    16    14   ar
    41     4     3   ar
    42     2     1   ar
    43     2     3   ar
    44     2     7    1
    45     1     6    1
    46     3    10    1
    47    10    13    1
    48    10    11    1
    49     7     8    3
    50     8     9    1
    51    43    42   ar
    52    43    46    1
    53    42    51    1
    54    51    52    3
    55    52    53    1
    56    15    14   ar
    57    15    18    1
    58    14    23    1
    59    23    22    3
