@<TRIPOS>MOLECULE
mol_data/noopt/geoms/mol2/12ei12ei12ei12ei.out
 50 53 0 0 0
SMALL
GASTEIGER

@<TRIPOS>ATOM
      1 C           0.1763    1.8460    0.0000 C.ar    1  LIG1        0.1083
      2 C           1.5558    1.8460    0.0000 C.ar    1  LIG1        0.0659
      3 C           1.9706    3.2334    0.0000 C.ar    1  LIG1        0.0138
      4 C           0.8165    3.9895   -0.0001 C.ar    1  LIG1        0.1750
      5 O          -0.3030    3.1567   -0.0002 O.2     1  LIG1       -0.4583
      6 H          -0.7504    0.9343    0.0000 H       1  LIG1        0.1042
      7 C           2.3515    0.8179    0.0001 C.1     1  LIG1       -0.0662
      8 C           3.0867   -0.1320    0.0002 C.1     1  LIG1       -0.1138
      9 H           3.7416   -0.9782    0.0003 H       1  LIG1        0.1232
     10 C           3.2001    3.6568    0.0000 C.3     1  LIG1       -0.0348
     11 H           3.2528    4.5990    0.5044 H       1  LIG1        0.0279
     12 H           3.5373    3.7730   -1.0088 H       1  LIG1        0.0279
     13 H           3.8217    2.9468    0.5044 H       1  LIG1        0.0279
     14 C           0.5416    5.2601   -0.0001 C.ar    1  LIG1        0.1865
     15 C           1.2792    6.4258   -0.0001 C.ar    1  LIG1        0.0771
     16 C           0.3286    7.5182   -0.0001 C.ar    1  LIG1        0.0145
     17 C          -0.9274    6.9472   -0.0002 C.ar    1  LIG1        0.1761
     18 O          -0.8223    5.5559   -0.0003 O.2     1  LIG1       -0.4470
     19 C           2.5734    6.5485   -0.0000 C.1     1  LIG1       -0.0655
     20 C           3.7693    6.6618    0.0001 C.1     1  LIG1       -0.1138
     21 H           4.8345    6.7627    0.0002 H       1  LIG1        0.1232
     22 C           0.6283    8.7835   -0.0001 C.3     1  LIG1       -0.0348
     23 H          -0.1397    9.3319    0.5043 H       1  LIG1        0.0279
     24 H           0.7104    9.1306   -1.0089 H       1  LIG1        0.0279
     25 H           1.5606    8.9292    0.5043 H       1  LIG1        0.0279
     26 C          -2.1481    7.3943   -0.0002 C.ar    1  LIG1        0.1866
     27 C          -2.7387    8.6410   -0.0002 C.ar    1  LIG1        0.0771
     28 C          -4.1701    8.4218   -0.0002 C.ar    1  LIG1        0.0145
     29 C          -4.3593    7.0551   -0.0003 C.ar    1  LIG1        0.1760
     30 O          -3.1273    6.4000   -0.0004 O.2     1  LIG1       -0.4470
     31 C          -2.1504    9.8002   -0.0001 C.1     1  LIG1       -0.0655
     32 C          -1.6067   10.8713   -0.0000 C.1     1  LIG1       -0.1138
     33 H          -1.1224   11.8255    0.0001 H       1  LIG1        0.1232
     34 C          -5.0792    9.3516   -0.0002 C.3     1  LIG1       -0.0348
     35 H          -5.9532    8.9959    0.5042 H       1  LIG1        0.0279
     36 H          -5.3286    9.6066   -1.0090 H       1  LIG1        0.0279
     37 H          -4.7037   10.2174    0.5042 H       1  LIG1        0.0279
     38 C          -5.3898    6.2627   -0.0003 C.ar    1  LIG1        0.1855
     39 C          -6.7591    6.4302   -0.0003 C.ar    1  LIG1        0.0763
     40 C          -7.3393    5.1034   -0.0003 C.ar    1  LIG1        0.0034
     41 C          -6.2855    4.2128   -0.0004 C.ar    1  LIG1        0.0968
     42 O          -5.0732    4.9035   -0.0005 O.2     1  LIG1       -0.4583
     43 H          -6.1669    2.9182   -0.0004 H       1  LIG1        0.1032
     44 C          -7.4241    7.5472   -0.0002 C.1     1  LIG1       -0.0655
     45 C          -8.0385    8.5794   -0.0001 C.1     1  LIG1       -0.1138
     46 H          -8.5858    9.4988   -0.0000 H       1  LIG1        0.1232
     47 C          -8.6110    4.8324   -0.0003 C.3     1  LIG1       -0.0355
     48 H          -8.7778    3.9036    0.5041 H       1  LIG1        0.0279
     49 H          -8.9599    4.7580   -1.0091 H       1  LIG1        0.0279
     50 H          -9.1419    5.6126    0.5041 H       1  LIG1        0.0279
@<TRIPOS>BOND
     1    49    47    1
     2    36    34    1
     3    24    22    1
     4    12    10    1
     5    42    41   ar
     6    42    38   ar
     7    30    29   ar
     8    30    26   ar
     9    43    41    1
    10    41    40   ar
    11    40    39   ar
    12    40    47    1
    13    38    39   ar
    14    38    29    1
    15    39    44    1
    16    18    17   ar
    17    18    14   ar
    18    29    28   ar
    19    47    50    1
    20    47    48    1
    21    28    27   ar
    22    28    34    1
    23    27    26   ar
    24    27    31    1
    25    17    26    1
    26    17    16   ar
    27    44    45    3
    28     5     4   ar
    29     5     1   ar
    30    34    37    1
    31    34    35    1
    32    45    46    1
    33    16    22    1
    34    16    15   ar
    35    31    32    3
    36    22    25    1
    37    22    23    1
    38    15    14   ar
    39    15    19    1
    40    14     4    1
    41     4     3   ar
    42    32    33    1
    43     1     2   ar
    44     1     6    1
    45    19    20    3
    46     2     3   ar
    47     2     7    1
    48    10     3    1
    49    10    13    1
    50    10    11    1
    51    20    21    1
    52     7     8    3
    53     8     9    1
