@<TRIPOS>MOLECULE
mol_data/noopt/geoms/mol2/12ei6ef13ea-4ee.out
 50 53 0 0 0
SMALL
GASTEIGER

@<TRIPOS>ATOM
      1 C           0.1763    1.8460    0.0000 C.ar    1  LIG1        0.1082
      2 C           1.5558    1.8460    0.0000 C.ar    1  LIG1        0.0658
      3 C           1.9706    3.2334    0.0000 C.ar    1  LIG1        0.0108
      4 C           0.8165    3.9895   -0.0001 C.ar    1  LIG1        0.1417
      5 O          -0.3030    3.1567   -0.0002 O.2     1  LIG1       -0.4613
      6 H          -0.7504    0.9343    0.0000 H       1  LIG1        0.1042
      7 C           2.3515    0.8179    0.0001 C.1     1  LIG1       -0.0662
      8 C           3.0867   -0.1320    0.0002 C.1     1  LIG1       -0.1138
      9 H           3.7416   -0.9782    0.0003 H       1  LIG1        0.1232
     10 C           3.2001    3.6568    0.0000 C.3     1  LIG1       -0.0349
     11 H           3.2528    4.5990    0.5044 H       1  LIG1        0.0279
     12 H           3.5373    3.7730   -1.0088 H       1  LIG1        0.0279
     13 H           3.8217    2.9468    0.5044 H       1  LIG1        0.0279
     14 C          -0.7953    5.6985    0.0001 C.ar    1  LIG1        0.1248
     15 C           0.5416    5.2601   -0.0001 C.ar    1  LIG1        0.0548
     16 C           1.5573    6.2179    0.0001 C.ar    1  LIG1       -0.0046
     17 C           1.2067    7.5691    0.0002 C.ar    1  LIG1        0.1449
     18 C          -0.1587    7.9086    0.0001 C.ar    1  LIG1        0.1309
     19 N          -1.1514    6.9977    0.0002 N.ar    1  LIG1       -0.2325
     20 H           2.6135    5.9134   -0.0011 H       1  LIG1        0.0663
     21 C          -1.7757    4.8447    0.0000 C.1     1  LIG1       -0.0491
     22 C          -2.6815    4.0559   -0.0000 C.1     1  LIG1       -0.1124
     23 H          -3.4885    3.3532   -0.0001 H       1  LIG1        0.1232
     24 O           2.1151    8.4991    0.0002 O.3     1  LIG1       -0.5045
     25 H           1.6917    9.3607    0.0001 H       1  LIG1        0.2922
     26 C          -0.5350    9.1530    0.0003 C.ar    1  LIG1        0.0846
     27 C           0.1998   10.2966    0.0001 C.ar    1  LIG1        0.0521
     28 C          -0.7188   11.3952    0.0016 C.ar    1  LIG1       -0.0203
     29 C          -1.9745   10.8745    0.0009 C.ar    1  LIG1        0.0494
     30 N          -1.8666    9.5021    0.0006 N.ar    1  LIG1       -0.3519
     31 H          -2.6292    8.8645    0.0000 H       1  LIG1        0.1660
     32 C           1.4975   10.3747    0.0001 C.1     1  LIG1       -0.0675
     33 C           2.6965   10.4468    0.0002 C.1     1  LIG1       -0.1138
     34 H           3.7646   10.5110    0.0002 H       1  LIG1        0.1232
     35 H          -0.4122   12.6585    0.0029 H       1  LIG1        0.0651
     36 C          -3.2029   12.8733    0.0028 C.ar    1  LIG1        0.0338
     37 C          -4.4809   13.4649    0.0050 C.ar    1  LIG1       -0.0445
     38 C          -3.1325   11.4652    0.0016 C.ar    1  LIG1        0.0149
     39 C          -5.6390   12.6907    0.0055 C.ar    1  LIG1       -0.0451
     40 H          -4.5580   14.5499    0.0061 H       1  LIG1        0.0630
     41 C          -4.2884   10.6918    0.0021 C.ar    1  LIG1       -0.0360
     42 C          -5.5488   11.2982    0.0040 C.ar    1  LIG1        0.0254
     43 H          -4.2078    9.6077    0.0013 H       1  LIG1        0.0637
     44 H          -6.8027   13.2701    0.0075 H       1  LIG1        0.0630
     45 C          -2.1590   13.6481    0.0021 C.1     1  LIG1       -0.0690
     46 C          -1.1945   14.3641    0.0015 C.1     1  LIG1       -0.1139
     47 H          -0.3354   15.0019    0.0010 H       1  LIG1        0.1232
     48 C          -6.6258   10.5701    0.0046 C.1     1  LIG1       -0.0696
     49 C          -7.6210    9.8974    0.0051 C.1     1  LIG1       -0.1139
     50 H          -8.5074    9.2981    0.0056 H       1  LIG1        0.1232
@<TRIPOS>BOND
     1    12    10    1
     2    20    16    1
     3     5     4   ar
     4     5     1   ar
     5     4    15    1
     6     4     3   ar
     7    15    14   ar
     8    15    16   ar
     9    23    22    1
    10    22    21    3
    11     2     3   ar
    12     2     1   ar
    13     2     7    1
    14     3    10    1
    15     6     1    1
    16    10    13    1
    17    10    11    1
    18    31    30    1
    19    21    14    1
    20    14    19   ar
    21    16    17   ar
    22     7     8    3
    23    27    32    1
    24    27    26   ar
    25    27    28   ar
    26    18    19   ar
    27    18    17   ar
    28    18    26    1
    29    32    33    3
    30    25    24    1
    31    24    17    1
    32    33    34    1
    33     8     9    1
    34    26    30   ar
    35    30    29   ar
    36    29    28   ar
    37    29    38    1
    38    47    46    1
    39    43    41    1
    40    46    45    3
    41    28    35    1
    42    38    41   ar
    43    38    36   ar
    44    41    42   ar
    45    45    36    1
    46    36    37   ar
    47    42    48    1
    48    42    39   ar
    49    48    49    3
    50    37    39   ar
    51    37    40    1
    52    49    50    1
    53    39    44    1
