@<TRIPOS>MOLECULE
mol_data/noopt/geoms/mol2/12ei12ei12ei-12ei.out
 50 53 0 0 0
SMALL
GASTEIGER

@<TRIPOS>ATOM
      1 C           0.1763    1.8460    0.0000 C.ar    1  LIG1        0.1083
      2 C           1.5558    1.8460    0.0000 C.ar    1  LIG1        0.0659
      3 C           1.9706    3.2334    0.0000 C.ar    1  LIG1        0.0138
      4 C           0.8165    3.9895   -0.0001 C.ar    1  LIG1        0.1750
      5 O          -0.3030    3.1567   -0.0002 O.2     1  LIG1       -0.4583
      6 H          -0.7504    0.9343    0.0000 H       1  LIG1        0.1042
      7 C           2.3515    0.8179    0.0001 C.1     1  LIG1       -0.0662
      8 C           3.0867   -0.1320    0.0002 C.1     1  LIG1       -0.1138
      9 H           3.7416   -0.9782    0.0003 H       1  LIG1        0.1232
     10 C           3.2001    3.6568    0.0000 C.3     1  LIG1       -0.0348
     11 H           3.2528    4.5990    0.5044 H       1  LIG1        0.0279
     12 H           3.5373    3.7730   -1.0088 H       1  LIG1        0.0279
     13 H           3.8217    2.9468    0.5044 H       1  LIG1        0.0279
     14 C           0.5416    5.2601   -0.0001 C.ar    1  LIG1        0.1865
     15 C           1.2792    6.4258   -0.0001 C.ar    1  LIG1        0.0771
     16 C           0.3286    7.5182   -0.0001 C.ar    1  LIG1        0.0145
     17 C          -0.9274    6.9472   -0.0002 C.ar    1  LIG1        0.1761
     18 O          -0.8223    5.5559   -0.0003 O.2     1  LIG1       -0.4470
     19 C           2.5734    6.5485   -0.0000 C.1     1  LIG1       -0.0655
     20 C           3.7693    6.6618    0.0001 C.1     1  LIG1       -0.1138
     21 H           4.8345    6.7627    0.0002 H       1  LIG1        0.1232
     22 C           0.6283    8.7835   -0.0001 C.3     1  LIG1       -0.0348
     23 H          -0.1397    9.3319    0.5043 H       1  LIG1        0.0279
     24 H           0.7104    9.1306   -1.0089 H       1  LIG1        0.0279
     25 H           1.5606    8.9292    0.5043 H       1  LIG1        0.0279
     26 C          -2.1481    7.3943   -0.0002 C.ar    1  LIG1        0.1866
     27 C          -3.4042    6.8241   -0.0002 C.ar    1  LIG1        0.0771
     28 C          -4.3554    7.9160   -0.0002 C.ar    1  LIG1        0.0145
     29 C          -3.6171    9.0815   -0.0003 C.ar    1  LIG1        0.1760
     30 O          -2.2534    8.7859   -0.0004 O.2     1  LIG1       -0.4470
     31 C          -3.7038    5.5591   -0.0001 C.1     1  LIG1       -0.0655
     32 C          -3.9806    4.3902   -0.0001 C.1     1  LIG1       -0.1138
     33 H          -4.2271    3.3490   -0.0000 H       1  LIG1        0.1232
     34 C          -5.6499    7.7933   -0.0002 C.3     1  LIG1       -0.0348
     35 H          -5.9226    6.8899    0.5042 H       1  LIG1        0.0279
     36 H          -6.0050    7.7596   -1.0091 H       1  LIG1        0.0279
     37 H          -6.0874    8.6294    0.5041 H       1  LIG1        0.0279
     38 C          -3.8920   10.3521   -0.0003 C.ar    1  LIG1        0.1855
     39 C          -3.1543   11.5178   -0.0002 C.ar    1  LIG1        0.0763
     40 C          -4.1049   12.6102   -0.0002 C.ar    1  LIG1        0.0034
     41 C          -5.3610   12.0393   -0.0003 C.ar    1  LIG1        0.0968
     42 O          -5.2558   10.6479   -0.0004 O.2     1  LIG1       -0.4583
     43 H          -6.5817   12.4864   -0.0003 H       1  LIG1        0.1032
     44 C          -1.8601   11.6405   -0.0001 C.1     1  LIG1       -0.0655
     45 C          -0.6643   11.7538   -0.0000 C.1     1  LIG1       -0.1138
     46 H           0.4009   11.8548    0.0000 H       1  LIG1        0.1232
     47 C          -3.8053   13.8755   -0.0002 C.3     1  LIG1       -0.0355
     48 H          -4.5732   14.4239    0.5042 H       1  LIG1        0.0279
     49 H          -3.7232   14.2227   -1.0090 H       1  LIG1        0.0279
     50 H          -2.8729   14.0212    0.5042 H       1  LIG1        0.0279
@<TRIPOS>BOND
     1    36    34    1
     2    49    47    1
     3    24    22    1
     4    12    10    1
     5    42    41   ar
     6    42    38   ar
     7    30    29   ar
     8    30    26   ar
     9    41    43    1
    10    41    40   ar
    11    18    17   ar
    12    18    14   ar
    13    29    38    1
    14    29    28   ar
    15    38    39   ar
    16    39    40   ar
    17    39    44    1
    18    27    28   ar
    19    27    26   ar
    20    27    31    1
    21    34    28    1
    22    34    37    1
    23    34    35    1
    24    40    47    1
    25     5     4   ar
    26     5     1   ar
    27    26    17    1
    28    17    16   ar
    29    47    50    1
    30    47    48    1
    31    31    32    3
    32    44    45    3
    33    16    22    1
    34    16    15   ar
    35    22    25    1
    36    22    23    1
    37    15    14   ar
    38    15    19    1
    39    14     4    1
    40     4     3   ar
    41    32    33    1
    42    45    46    1
    43     1     2   ar
    44     1     6    1
    45     2     3   ar
    46     2     7    1
    47     3    10    1
    48    19    20    3
    49    10    13    1
    50    10    11    1
    51    20    21    1
    52     7     8    3
    53     8     9    1
