@<TRIPOS>MOLECULE
mol_data/noopt/geoms/mol2/12ei12ei-12ei.out
 38 40 0 0 0
SMALL
GASTEIGER

@<TRIPOS>ATOM
      1 C           0.1763    1.8460    0.0000 C.ar    1  LIG1        0.1083
      2 C           1.5558    1.8460    0.0000 C.ar    1  LIG1        0.0659
      3 C           1.9706    3.2334    0.0000 C.ar    1  LIG1        0.0138
      4 C           0.8165    3.9895   -0.0001 C.ar    1  LIG1        0.1750
      5 O          -0.3030    3.1567   -0.0002 O.2     1  LIG1       -0.4583
      6 H          -0.7504    0.9343    0.0000 H       1  LIG1        0.1042
      7 C           2.3515    0.8179    0.0001 C.1     1  LIG1       -0.0662
      8 C           3.0867   -0.1320    0.0002 C.1     1  LIG1       -0.1138
      9 H           3.7416   -0.9782    0.0003 H       1  LIG1        0.1232
     10 C           3.2001    3.6568    0.0000 C.3     1  LIG1       -0.0348
     11 H           3.2528    4.5990    0.5044 H       1  LIG1        0.0279
     12 H           3.5373    3.7730   -1.0088 H       1  LIG1        0.0279
     13 H           3.8217    2.9468    0.5044 H       1  LIG1        0.0279
     14 C           0.5416    5.2601   -0.0001 C.ar    1  LIG1        0.1865
     15 C          -0.6119    6.0167   -0.0001 C.ar    1  LIG1        0.0771
     16 C          -0.1979    7.4043   -0.0001 C.ar    1  LIG1        0.0145
     17 C           1.1818    7.4036   -0.0002 C.ar    1  LIG1        0.1760
     18 O           1.6612    6.0932   -0.0003 O.2     1  LIG1       -0.4470
     19 C          -1.8411    5.5934   -0.0000 C.1     1  LIG1       -0.0655
     20 C          -2.9768    5.2022    0.0000 C.1     1  LIG1       -0.1138
     21 H          -3.9885    4.8538    0.0001 H       1  LIG1        0.1232
     22 C          -0.9938    8.4326   -0.0001 C.3     1  LIG1       -0.0348
     23 H          -1.9030    8.1799    0.5043 H       1  LIG1        0.0279
     24 H          -1.2121    8.7146   -1.0090 H       1  LIG1        0.0279
     25 H          -0.5211    9.2494    0.5042 H       1  LIG1        0.0279
     26 C           2.1085    8.3153   -0.0002 C.ar    1  LIG1        0.1855
     27 C           3.4880    8.3153   -0.0001 C.ar    1  LIG1        0.0763
     28 C           3.9028    9.7027   -0.0001 C.ar    1  LIG1        0.0034
     29 C           2.7487   10.4588   -0.0002 C.ar    1  LIG1        0.0968
     30 O           1.6292    9.6260   -0.0003 O.2     1  LIG1       -0.4583
     31 H           2.4738   11.7294   -0.0002 H       1  LIG1        0.1032
     32 C           4.2837    7.2872   -0.0000 C.1     1  LIG1       -0.0655
     33 C           5.0189    6.3373    0.0001 C.1     1  LIG1       -0.1138
     34 H           5.6738    5.4911    0.0001 H       1  LIG1        0.1232
     35 C           5.1323   10.1261   -0.0001 C.3     1  LIG1       -0.0355
     36 H           5.1851   11.0682    0.5043 H       1  LIG1        0.0279
     37 H           5.4695   10.2423   -1.0089 H       1  LIG1        0.0279
     38 H           5.7540    9.4161    0.5043 H       1  LIG1        0.0279
@<TRIPOS>BOND
     1    24    22    1
     2    37    35    1
     3    12    10    1
     4    30    29   ar
     5    30    26   ar
     6    18    17   ar
     7    18    14   ar
     8    29    31    1
     9    29    28   ar
    10     5     4   ar
    11     5     1   ar
    12    17    26    1
    13    17    16   ar
    14    26    27   ar
    15    27    28   ar
    16    27    32    1
    17    15    16   ar
    18    15    14   ar
    19    15    19    1
    20    22    16    1
    21    22    25    1
    22    22    23    1
    23    28    35    1
    24    14     4    1
    25     4     3   ar
    26    35    38    1
    27    35    36    1
    28    19    20    3
    29    32    33    3
    30    10     3    1
    31    10    13    1
    32    10    11    1
    33     1     6    1
    34     1     2   ar
    35     3     2   ar
    36     2     7    1
    37    20    21    1
    38    33    34    1
    39     7     8    3
    40     8     9    1
