@<TRIPOS>MOLECULE
mol_data/noopt/geoms/mol2/12ei12ei-12ei12ei.out
 50 53 0 0 0
SMALL
GASTEIGER

@<TRIPOS>ATOM
      1 C           0.1763    1.8460    0.0000 C.ar    1  LIG1        0.1083
      2 C           1.5558    1.8460    0.0000 C.ar    1  LIG1        0.0659
      3 C           1.9706    3.2334    0.0000 C.ar    1  LIG1        0.0138
      4 C           0.8165    3.9895   -0.0001 C.ar    1  LIG1        0.1750
      5 O          -0.3030    3.1567   -0.0002 O.2     1  LIG1       -0.4583
      6 H          -0.7504    0.9343    0.0000 H       1  LIG1        0.1042
      7 C           2.3515    0.8179    0.0001 C.1     1  LIG1       -0.0662
      8 C           3.0867   -0.1320    0.0002 C.1     1  LIG1       -0.1138
      9 H           3.7416   -0.9782    0.0003 H       1  LIG1        0.1232
     10 C           3.2001    3.6568    0.0000 C.3     1  LIG1       -0.0348
     11 H           3.2528    4.5990    0.5044 H       1  LIG1        0.0279
     12 H           3.5373    3.7730   -1.0088 H       1  LIG1        0.0279
     13 H           3.8217    2.9468    0.5044 H       1  LIG1        0.0279
     14 C           0.5416    5.2601   -0.0001 C.ar    1  LIG1        0.1865
     15 C          -0.6119    6.0167   -0.0001 C.ar    1  LIG1        0.0771
     16 C          -0.1979    7.4043   -0.0001 C.ar    1  LIG1        0.0145
     17 C           1.1818    7.4036   -0.0002 C.ar    1  LIG1        0.1761
     18 O           1.6612    6.0932   -0.0003 O.2     1  LIG1       -0.4470
     19 C          -1.8411    5.5934   -0.0000 C.1     1  LIG1       -0.0655
     20 C          -2.9768    5.2022    0.0000 C.1     1  LIG1       -0.1138
     21 H          -3.9885    4.8538    0.0001 H       1  LIG1        0.1232
     22 C          -0.9938    8.4326   -0.0001 C.3     1  LIG1       -0.0348
     23 H          -1.9030    8.1799    0.5043 H       1  LIG1        0.0279
     24 H          -1.2121    8.7146   -1.0090 H       1  LIG1        0.0279
     25 H          -0.5211    9.2494    0.5042 H       1  LIG1        0.0279
     26 C           2.1085    8.3153   -0.0002 C.ar    1  LIG1        0.1866
     27 C           3.4880    8.3153   -0.0001 C.ar    1  LIG1        0.0771
     28 C           3.9028    9.7027   -0.0001 C.ar    1  LIG1        0.0145
     29 C           2.7487   10.4588   -0.0002 C.ar    1  LIG1        0.1760
     30 O           1.6292    9.6260   -0.0003 O.2     1  LIG1       -0.4470
     31 C           4.2837    7.2872   -0.0000 C.1     1  LIG1       -0.0655
     32 C           5.0189    6.3373    0.0001 C.1     1  LIG1       -0.1138
     33 H           5.6738    5.4911    0.0001 H       1  LIG1        0.1232
     34 C           5.1323   10.1261   -0.0001 C.3     1  LIG1       -0.0348
     35 H           5.1851   11.0682    0.5043 H       1  LIG1        0.0279
     36 H           5.4695   10.2423   -1.0089 H       1  LIG1        0.0279
     37 H           5.7540    9.4161    0.5043 H       1  LIG1        0.0279
     38 C           2.4738   11.7294   -0.0002 C.ar    1  LIG1        0.1855
     39 C           3.2115   12.8951   -0.0002 C.ar    1  LIG1        0.0763
     40 C           2.2609   13.9875   -0.0002 C.ar    1  LIG1        0.0034
     41 C           1.0048   13.4165   -0.0003 C.ar    1  LIG1        0.0968
     42 O           1.1100   12.0252   -0.0004 O.2     1  LIG1       -0.4583
     43 H          -0.2159   13.8636   -0.0003 H       1  LIG1        0.1032
     44 C           4.5057   13.0177   -0.0001 C.1     1  LIG1       -0.0655
     45 C           5.7015   13.1311   -0.0000 C.1     1  LIG1       -0.1138
     46 H           6.7667   13.2320    0.0001 H       1  LIG1        0.1232
     47 C           2.5605   15.2528   -0.0002 C.3     1  LIG1       -0.0355
     48 H           1.7926   15.8012    0.5043 H       1  LIG1        0.0279
     49 H           2.6426   15.5999   -1.0090 H       1  LIG1        0.0279
     50 H           3.4929   15.3985    0.5042 H       1  LIG1        0.0279
@<TRIPOS>BOND
     1    49    47    1
     2    24    22    1
     3    36    34    1
     4    12    10    1
     5    42    41   ar
     6    42    38   ar
     7    30    29   ar
     8    30    26   ar
     9    41    43    1
    10    41    40   ar
    11    18    17   ar
    12    18    14   ar
    13    29    38    1
    14    29    28   ar
    15    38    39   ar
    16     5     4   ar
    17     5     1   ar
    18    39    40   ar
    19    39    44    1
    20    40    47    1
    21    17    26    1
    22    17    16   ar
    23    47    50    1
    24    47    48    1
    25    26    27   ar
    26    27    28   ar
    27    27    31    1
    28    15    16   ar
    29    15    14   ar
    30    15    19    1
    31    22    16    1
    32    22    25    1
    33    22    23    1
    34    28    34    1
    35    14     4    1
    36     4     3   ar
    37    44    45    3
    38    34    37    1
    39    34    35    1
    40    19    20    3
    41    31    32    3
    42    45    46    1
    43     1     2   ar
    44     1     6    1
    45     2     3   ar
    46     2     7    1
    47     3    10    1
    48    10    13    1
    49    10    11    1
    50    20    21    1
    51    32    33    1
    52     7     8    3
    53     8     9    1
