@<TRIPOS>MOLECULE
mol_data/noopt/geoms/mol2/12ei13ee(280)12la(190)12ia(150).out
 47 50 0 0 0
SMALL
GASTEIGER

@<TRIPOS>ATOM
      1 C           0.1763    1.8460    0.0000 C.ar    1  LIG1        0.1082
      2 C           1.5558    1.8460    0.0000 C.ar    1  LIG1        0.0659
      3 C           1.9706    3.2334    0.0000 C.ar    1  LIG1        0.0122
      4 C           0.8165    3.9895   -0.0001 C.ar    1  LIG1        0.1562
      5 O          -0.3030    3.1567   -0.0002 O.2     1  LIG1       -0.4599
      6 H          -0.7504    0.9343    0.0000 H       1  LIG1        0.1042
      7 C           2.3515    0.8179    0.0001 C.1     1  LIG1       -0.0662
      8 C           3.0867   -0.1320    0.0002 C.1     1  LIG1       -0.1138
      9 H           3.7416   -0.9782    0.0003 H       1  LIG1        0.1232
     10 C           3.2001    3.6568    0.0000 C.3     1  LIG1       -0.0349
     11 H           3.2528    4.5990    0.5044 H       1  LIG1        0.0279
     12 H           3.5373    3.7730   -1.0088 H       1  LIG1        0.0279
     13 H           3.8217    2.9468    0.5044 H       1  LIG1        0.0279
     14 C           0.5416    5.2601   -0.0001 C.ar    1  LIG1        0.0997
     15 C           0.5449    6.1632   -1.0162 C.ar    1  LIG1        0.0690
     16 C           0.1644    7.4288   -0.4647 C.ar    1  LIG1        0.0691
     17 C          -0.0564    7.2431    0.8637 C.ar    1  LIG1        0.1031
     18 N           0.1738    5.9169    1.1525 N.ar    1  LIG1       -0.3473
     19 H           0.0876    5.4997    2.0506 H       1  LIG1        0.1662
     20 C           0.8411    5.9193   -2.2583 C.1     1  LIG1       -0.0662
     21 C           1.1148    5.6940   -3.4060 C.1     1  LIG1       -0.1138
     22 H           1.3587    5.4933   -4.4283 H       1  LIG1        0.1232
     23 C           0.0497    8.5504   -1.1119 C.1     1  LIG1       -0.0662
     24 C          -0.0562    9.5868   -1.7099 C.1     1  LIG1       -0.1138
     25 H          -0.1506   10.5100   -2.2425 H       1  LIG1        0.1232
     26 C          -0.4186    8.0862    1.7846 C.ar    1  LIG1        0.1945
     27 C          -1.6124    8.4426    2.3769 C.ar    1  LIG1        0.1678
     28 C          -1.3023    9.4684    3.3508 C.ar    1  LIG1        0.0298
     29 C           0.0611    9.6708    3.2890 C.ar    1  LIG1        0.1745
     30 O           0.6283    8.8301    2.3307 O.2     1  LIG1       -0.4464
     31 O          -2.7969    7.9675    2.1288 O.3     1  LIG1       -0.4912
     32 C          -3.7335    9.0441    2.0377 C.3     1  LIG1        0.0790
     33 H          -4.7082    8.6527    1.8333 H       1  LIG1        0.0660
     34 H          -3.7515    9.5806    2.9634 H       1  LIG1        0.0660
     35 H          -3.4418    9.7048    1.2482 H       1  LIG1        0.0660
     36 H          -2.1618   10.0662    4.1214 H       1  LIG1        0.0693
     37 C           0.9118   10.4411    3.8997 C.ar    1  LIG1        0.1727
     38 C           0.8237   11.5260    4.7472 C.ar    1  LIG1       -0.0017
     39 C           2.1817   11.9154    5.0651 C.ar    1  LIG1       -0.0203
     40 C           3.0099   11.0420    4.3905 C.ar    1  LIG1        0.0930
     41 O           2.2503   10.1236    3.6650 O.2     1  LIG1       -0.4596
     42 H           4.2955   10.8836    4.2794 H       1  LIG1        0.1029
     43 C          -0.2533   12.1052    5.1893 C.3     1  LIG1       -0.0360
     44 H          -0.8115   11.4135    5.7849 H       1  LIG1        0.0279
     45 H          -0.8508   12.4265    4.3618 H       1  LIG1        0.0279
     46 H           0.0162   12.9524    5.7848 H       1  LIG1        0.0279
     47 H           2.5257   12.9013    5.8394 H       1  LIG1        0.0652
@<TRIPOS>BOND
     1    22    21    1
     2    21    20    3
     3    20    15    1
     4    25    24    1
     5    24    23    3
     6    23    16    1
     7    15    16   ar
     8    15    14   ar
     9    12    10    1
    10    16    17   ar
    11     5     4   ar
    12     5     1   ar
    13     4    14    1
    14     4     3   ar
    15    14    18   ar
    16     1     2   ar
    17     1     6    1
    18     2     3   ar
    19     2     7    1
    20    10     3    1
    21    10    13    1
    22    10    11    1
    23     7     8    3
    24     8     9    1
    25    17    18   ar
    26    17    26    1
    27    18    19    1
    28    35    32    1
    29    26    30   ar
    30    26    27   ar
    31    33    32    1
    32    32    31    1
    33    32    34    1
    34    31    27    1
    35    30    29   ar
    36    27    28   ar
    37    29    28   ar
    38    29    37    1
    39    28    36    1
    40    41    37   ar
    41    41    40   ar
    42    37    38   ar
    43    42    40    1
    44    45    43    1
    45    40    39   ar
    46    38    39   ar
    47    38    43    1
    48    39    47    1
    49    43    46    1
    50    43    44    1
