@<TRIPOS>MOLECULE
mol_data/noopt/geoms/mol2/12ei4el(90)6ff(10)6ih(340).out
 55 58 0 0 0
SMALL
GASTEIGER

@<TRIPOS>ATOM
      1 C           0.1763    1.8460    0.0000 C.ar    1  LIG1        0.1082
      2 C           1.5558    1.8460    0.0000 C.ar    1  LIG1        0.0658
      3 C           1.9706    3.2334    0.0000 C.ar    1  LIG1        0.0107
      4 C           0.8165    3.9895   -0.0001 C.ar    1  LIG1        0.1402
      5 O          -0.3030    3.1567   -0.0002 O.2     1  LIG1       -0.4614
      6 H          -0.7504    0.9343    0.0000 H       1  LIG1        0.1042
      7 C           2.3515    0.8179    0.0001 C.1     1  LIG1       -0.0662
      8 C           3.0867   -0.1320    0.0002 C.1     1  LIG1       -0.1138
      9 H           3.7416   -0.9782    0.0003 H       1  LIG1        0.1232
     10 C           3.2001    3.6568    0.0000 C.3     1  LIG1       -0.0349
     11 H           3.2528    4.5990    0.5044 H       1  LIG1        0.0279
     12 H           3.5373    3.7730   -1.0088 H       1  LIG1        0.0279
     13 H           3.8217    2.9468    0.5044 H       1  LIG1        0.0279
     14 C           0.3923    5.9465    1.2223 C.ar    1  LIG1        0.0361
     15 C           0.0933    7.3216    1.1687 C.ar    1  LIG1       -0.0343
     16 C           0.5416    5.2600   -0.0001 C.ar    1  LIG1        0.0364
     17 C          -0.0506    7.9861   -0.0472 C.ar    1  LIG1        0.0302
     18 H          -0.0263    7.8704    2.1002 H       1  LIG1        0.0637
     19 C           0.3980    5.9229   -1.2142 C.ar    1  LIG1       -0.0075
     20 C           0.1013    7.2895   -1.2467 C.ar    1  LIG1        0.1287
     21 H           0.5179    5.3715   -2.1433 H       1  LIG1        0.0662
     22 C           0.5149    5.3818    2.3869 C.1     1  LIG1       -0.0689
     23 C           0.6281    4.8600    3.4629 C.1     1  LIG1       -0.1139
     24 H           0.7289    4.3952    4.4214 H       1  LIG1        0.1232
     25 O          -0.0320    7.9038   -2.3846 O.3     1  LIG1       -0.4945
     26 C           1.2365    8.4149   -2.8024 C.3     1  LIG1        0.0788
     27 H           1.1265    8.9203   -3.7391 H       1  LIG1        0.0660
     28 H           1.6041    9.1009   -2.0681 H       1  LIG1        0.0660
     29 H           1.9282    7.6061   -2.9127 H       1  LIG1        0.0660
     30 C          -1.6457    9.6952   -0.2771 C.ar    1  LIG1        0.2211
     31 C          -0.3268    9.2563   -0.0598 C.ar    1  LIG1        0.0505
     32 C           0.6698   10.2133    0.1408 C.ar    1  LIG1       -0.0051
     33 C           0.3187   11.5641    0.1175 C.ar    1  LIG1        0.1436
     34 C          -1.0278   11.9042   -0.1077 C.ar    1  LIG1        0.1178
     35 N          -2.0020   10.9942   -0.3028 N.ar    1  LIG1       -0.2088
     36 H           1.7118    9.9083    0.3126 H       1  LIG1        0.0662
     37 O          -2.6080    8.8423   -0.4686 O.3     1  LIG1       -0.4920
     38 H          -2.2449    7.9549   -0.5158 H       1  LIG1        0.2937
     39 O           1.2098   12.4933    0.2986 O.3     1  LIG1       -0.5046
     40 H           0.7762   13.3486    0.3433 H       1  LIG1        0.2922
     41 C          -2.7044   13.5081    0.2600 C.ar    1  LIG1        0.0476
     42 C          -1.4039   13.1483   -0.1382 C.ar    1  LIG1        0.0268
     43 C          -0.5344   14.1545   -0.5633 C.ar    1  LIG1       -0.0286
     44 C          -0.9892   15.4742   -0.5766 C.ar    1  LIG1        0.0436
     45 C          -2.3075   15.7344   -0.1598 C.ar    1  LIG1        0.0485
     46 N          -3.1596   14.7760    0.2535 N.ar    1  LIG1       -0.2577
     47 H           0.4889   13.9115   -0.8828 H       1  LIG1        0.0643
     48 H          -2.7767   16.9467   -0.1543 H       1  LIG1        0.0848
     49 C          -3.5503   12.6068    0.6638 C.3     1  LIG1       -0.0217
     50 H          -3.0381   11.8760    1.2541 H       1  LIG1        0.0293
     51 H          -3.9967   12.1311   -0.1844 H       1  LIG1        0.0293
     52 H          -4.3121   13.0718    1.2540 H       1  LIG1        0.0293
     53 N          -0.2184   16.4467   -0.9639 N.pl3   1  LIG1       -0.3568
     54 H           0.5319   16.0789   -1.5133 H       1  LIG1        0.1424
     55 H          -0.7479   17.0931   -1.5133 H       1  LIG1        0.1424
@<TRIPOS>BOND
     1    27    26    1
     2    29    26    1
     3    26    25    1
     4    26    28    1
     5    25    20    1
     6    21    19    1
     7    55    53    1
     8    54    53    1
     9    20    19   ar
    10    20    17   ar
    11    19    16   ar
    12    12    10    1
    13    53    44    1
    14    47    43    1
    15    44    43   ar
    16    44    45   ar
    17    43    42   ar
    18    38    37    1
    19    37    30    1
    20    35    30   ar
    21    35    34   ar
    22    30    31   ar
    23    51    49    1
    24    45    48    1
    25    45    46   ar
    26    42    34    1
    27    42    41   ar
    28    34    33   ar
    29    31    17    1
    30    31    32   ar
    31    17    15   ar
    32     5     4   ar
    33     5     1   ar
    34     4    16    1
    35     4     3   ar
    36    16    14   ar
    37     6     1    1
    38     3     2   ar
    39     3    10    1
    40     2     1   ar
    41     2     7    1
    42    10    13    1
    43    10    11    1
    44     7     8    3
    45     8     9    1
    46    33    32   ar
    47    33    39    1
    48    32    36    1
    49    46    41   ar
    50    41    49    1
    51    39    40    1
    52    49    52    1
    53    49    50    1
    54    15    14   ar
    55    15    18    1
    56    14    22    1
    57    22    23    3
    58    23    24    1
