@<TRIPOS>MOLECULE
mol_data/noopt/geoms/mol2/12ei12ei12ei.out
 38 40 0 0 0
SMALL
GASTEIGER

@<TRIPOS>ATOM
      1 C           0.1763    1.8460    0.0000 C.ar    1  LIG1        0.1083
      2 C           1.5558    1.8460    0.0000 C.ar    1  LIG1        0.0659
      3 C           1.9706    3.2334    0.0000 C.ar    1  LIG1        0.0138
      4 C           0.8165    3.9895   -0.0001 C.ar    1  LIG1        0.1750
      5 O          -0.3030    3.1567   -0.0002 O.2     1  LIG1       -0.4583
      6 H          -0.7504    0.9343    0.0000 H       1  LIG1        0.1042
      7 C           2.3515    0.8179    0.0001 C.1     1  LIG1       -0.0662
      8 C           3.0867   -0.1320    0.0002 C.1     1  LIG1       -0.1138
      9 H           3.7416   -0.9782    0.0003 H       1  LIG1        0.1232
     10 C           3.2001    3.6568    0.0000 C.3     1  LIG1       -0.0348
     11 H           3.2528    4.5990    0.5044 H       1  LIG1        0.0279
     12 H           3.5373    3.7730   -1.0088 H       1  LIG1        0.0279
     13 H           3.8217    2.9468    0.5044 H       1  LIG1        0.0279
     14 C           0.5416    5.2601   -0.0001 C.ar    1  LIG1        0.1865
     15 C           1.2792    6.4258   -0.0001 C.ar    1  LIG1        0.0771
     16 C           0.3286    7.5182   -0.0001 C.ar    1  LIG1        0.0145
     17 C          -0.9274    6.9472   -0.0002 C.ar    1  LIG1        0.1760
     18 O          -0.8223    5.5559   -0.0003 O.2     1  LIG1       -0.4470
     19 C           2.5734    6.5485   -0.0000 C.1     1  LIG1       -0.0655
     20 C           3.7693    6.6618    0.0001 C.1     1  LIG1       -0.1138
     21 H           4.8345    6.7627    0.0002 H       1  LIG1        0.1232
     22 C           0.6283    8.7835   -0.0001 C.3     1  LIG1       -0.0348
     23 H          -0.1397    9.3319    0.5043 H       1  LIG1        0.0279
     24 H           0.7104    9.1306   -1.0089 H       1  LIG1        0.0279
     25 H           1.5606    8.9292    0.5043 H       1  LIG1        0.0279
     26 C          -2.1481    7.3943   -0.0002 C.ar    1  LIG1        0.1855
     27 C          -2.7387    8.6410   -0.0002 C.ar    1  LIG1        0.0763
     28 C          -4.1701    8.4218   -0.0002 C.ar    1  LIG1        0.0034
     29 C          -4.3593    7.0551   -0.0003 C.ar    1  LIG1        0.0968
     30 O          -3.1273    6.4000   -0.0004 O.2     1  LIG1       -0.4583
     31 H          -5.3898    6.2627   -0.0003 H       1  LIG1        0.1032
     32 C          -2.1504    9.8002   -0.0001 C.1     1  LIG1       -0.0655
     33 C          -1.6067   10.8713   -0.0000 C.1     1  LIG1       -0.1138
     34 H          -1.1224   11.8255    0.0001 H       1  LIG1        0.1232
     35 C          -5.0792    9.3516   -0.0002 C.3     1  LIG1       -0.0355
     36 H          -5.9532    8.9959    0.5042 H       1  LIG1        0.0279
     37 H          -5.3286    9.6066   -1.0090 H       1  LIG1        0.0279
     38 H          -4.7037   10.2174    0.5042 H       1  LIG1        0.0279
@<TRIPOS>BOND
     1    37    35    1
     2    24    22    1
     3    12    10    1
     4    30    29   ar
     5    30    26   ar
     6    29    31    1
     7    29    28   ar
     8    18    17   ar
     9    18    14   ar
    10    28    27   ar
    11    28    35    1
    12    27    26   ar
    13    27    32    1
    14    26    17    1
    15     5     4   ar
    16     5     1   ar
    17    35    38    1
    18    35    36    1
    19    17    16   ar
    20    15    16   ar
    21    15    14   ar
    22    15    19    1
    23    22    16    1
    24    22    25    1
    25    22    23    1
    26    14     4    1
    27    32    33    3
    28     4     3   ar
    29    33    34    1
    30    19    20    3
    31     1     6    1
    32     1     2   ar
    33    10     3    1
    34    10    13    1
    35    10    11    1
    36     3     2   ar
    37     2     7    1
    38    20    21    1
    39     7     8    3
    40     8     9    1
