@<TRIPOS>MOLECULE
mol_data/noopt/geoms/mol2/12el12el-12el-12el.out
 54 57 0 0 0
SMALL
GASTEIGER

@<TRIPOS>ATOM
      1 C           0.1763    1.8460    0.0000 C.ar    1  LIG1        0.1118
      2 C           1.5558    1.8460    0.0000 C.ar    1  LIG1        0.1047
      3 C           1.9706    3.2334    0.0000 C.ar    1  LIG1        0.1842
      4 C           0.8165    3.9895   -0.0001 C.ar    1  LIG1        0.2136
      5 O          -0.3030    3.1567   -0.0002 O.2     1  LIG1       -0.4547
      6 H          -0.7504    0.9343    0.0000 H       1  LIG1        0.1043
      7 C           2.3515    0.8179    0.0001 C.1     1  LIG1       -0.0628
      8 C           3.0867   -0.1320    0.0002 C.1     1  LIG1       -0.1137
      9 H           3.7416   -0.9782    0.0003 H       1  LIG1        0.1232
     10 O           3.1998    3.6567   -0.0000 O.3     1  LIG1       -0.4901
     11 C           4.0900    2.5376   -0.0001 C.3     1  LIG1        0.0790
     12 H           5.1015    2.8864   -0.0002 H       1  LIG1        0.0660
     13 H           3.9174    1.9445    0.8737 H       1  LIG1        0.0660
     14 H           3.9171    1.9444   -0.8736 H       1  LIG1        0.0660
     15 C           0.5416    5.2601   -0.0001 C.ar    1  LIG1        0.1934
     16 C          -0.6119    6.0167   -0.0001 C.ar    1  LIG1        0.1159
     17 C          -0.1979    7.4043   -0.0001 C.ar    1  LIG1        0.1849
     18 C           1.1818    7.4036   -0.0002 C.ar    1  LIG1        0.2146
     19 O           1.6612    6.0932   -0.0003 O.2     1  LIG1       -0.4434
     20 C          -1.8411    5.5934   -0.0000 C.1     1  LIG1       -0.0620
     21 C          -2.9768    5.2022    0.0000 C.1     1  LIG1       -0.1137
     22 H          -3.9885    4.8538    0.0001 H       1  LIG1        0.1232
     23 O          -0.9936    8.4324   -0.0001 O.3     1  LIG1       -0.4901
     24 C          -0.2197    9.6349   -0.0002 C.3     1  LIG1        0.0790
     25 H          -0.8750   10.4808   -0.0004 H       1  LIG1        0.0660
     26 H           0.3974    9.6619    0.8736 H       1  LIG1        0.0660
     27 H           0.3976    9.6617   -0.8737 H       1  LIG1        0.0660
     28 C           2.1085    8.3153   -0.0002 C.ar    1  LIG1        0.1934
     29 C           2.1310    9.6946   -0.0002 C.ar    1  LIG1        0.1159
     30 C           3.5250   10.0867   -0.0001 C.ar    1  LIG1        0.1849
     31 C           4.2622    8.9204   -0.0002 C.ar    1  LIG1        0.2146
     32 O           3.4112    7.8147   -0.0003 O.2     1  LIG1       -0.4434
     33 C           1.1161   10.5069   -0.0001 C.1     1  LIG1       -0.0620
     34 C           0.1783   11.2575   -0.0000 C.1     1  LIG1       -0.1137
     35 H          -0.6571   11.9262    0.0000 H       1  LIG1        0.1232
     36 O           3.9683   11.3088   -0.0001 O.3     1  LIG1       -0.4901
     37 C           5.3983   11.2978   -0.0002 C.3     1  LIG1        0.0790
     38 H           5.7627   12.3039   -0.0003 H       1  LIG1        0.0660
     39 H           5.7511   10.7908    0.8736 H       1  LIG1        0.0660
     40 H           5.7511   10.7906   -0.8737 H       1  LIG1        0.0660
     41 C           5.5281    8.6248   -0.0002 C.ar    1  LIG1        0.1924
     42 C           6.2658    7.4591   -0.0001 C.ar    1  LIG1        0.1152
     43 C           7.6600    7.8504   -0.0001 C.ar    1  LIG1        0.1737
     44 C           7.6818    9.2300   -0.0002 C.ar    1  LIG1        0.1355
     45 O           6.3794    9.7307   -0.0003 O.2     1  LIG1       -0.4547
     46 H           8.6085   10.1417   -0.0002 H       1  LIG1        0.1068
     47 C           5.8225    6.2370   -0.0000 C.1     1  LIG1       -0.0621
     48 C           5.4129    5.1078    0.0001 C.1     1  LIG1       -0.1137
     49 H           5.0480    4.1019    0.0001 H       1  LIG1        0.1232
     50 O           8.6749    7.0381   -0.0001 O.3     1  LIG1       -0.4907
     51 C           8.2052    5.6874   -0.0001 C.3     1  LIG1        0.0790
     52 H           9.0409    5.0191   -0.0003 H       1  LIG1        0.0660
     53 H           7.6117    5.5161    0.8736 H       1  LIG1        0.0660
     54 H           7.6115    5.5163   -0.8737 H       1  LIG1        0.0660
@<TRIPOS>BOND
     1    27    24    1
     2    40    37    1
     3    54    51    1
     4    14    11    1
     5    25    24    1
     6    45    44   ar
     7    45    41   ar
     8    38    37    1
     9    32    31   ar
    10    32    28   ar
    11    19    18   ar
    12    19    15   ar
    13    52    51    1
    14    12    11    1
    15    44    46    1
    16    44    43   ar
    17     5     4   ar
    18     5     1   ar
    19    24    23    1
    20    24    26    1
    21    31    41    1
    22    31    30   ar
    23    37    36    1
    24    37    39    1
    25    18    28    1
    26    18    17   ar
    27    41    42   ar
    28    29    28   ar
    29    29    30   ar
    30    29    33    1
    31    42    43   ar
    32    42    47    1
    33    51    50    1
    34    51    53    1
    35    16    17   ar
    36    16    15   ar
    37    16    20    1
    38    30    36    1
    39    23    17    1
    40     4    15    1
    41     4     3   ar
    42    43    50    1
    43    33    34    3
    44    11    10    1
    45    11    13    1
    46    20    21    3
    47    47    48    3
    48    34    35    1
    49    10     3    1
    50     3     2   ar
    51     6     1    1
    52     2     1   ar
    53     2     7    1
    54    21    22    1
    55    48    49    1
    56     7     8    3
    57     8     9    1
