@<TRIPOS>MOLECULE
mol_data/noopt/geoms/mol2/12el12el-12el.out
 41 43 0 0 0
SMALL
GASTEIGER

@<TRIPOS>ATOM
      1 C           0.1763    1.8460    0.0000 C.ar    1  LIG1        0.1118
      2 C           1.5558    1.8460    0.0000 C.ar    1  LIG1        0.1047
      3 C           1.9706    3.2334    0.0000 C.ar    1  LIG1        0.1842
      4 C           0.8165    3.9895   -0.0001 C.ar    1  LIG1        0.2136
      5 O          -0.3030    3.1567   -0.0002 O.2     1  LIG1       -0.4547
      6 H          -0.7504    0.9343    0.0000 H       1  LIG1        0.1043
      7 C           2.3515    0.8179    0.0001 C.1     1  LIG1       -0.0628
      8 C           3.0867   -0.1320    0.0002 C.1     1  LIG1       -0.1137
      9 H           3.7416   -0.9782    0.0003 H       1  LIG1        0.1232
     10 O           3.1998    3.6567   -0.0000 O.3     1  LIG1       -0.4901
     11 C           4.0900    2.5376   -0.0001 C.3     1  LIG1        0.0790
     12 H           5.1015    2.8864   -0.0002 H       1  LIG1        0.0660
     13 H           3.9174    1.9445    0.8737 H       1  LIG1        0.0660
     14 H           3.9171    1.9444   -0.8736 H       1  LIG1        0.0660
     15 C           0.5416    5.2601   -0.0001 C.ar    1  LIG1        0.1934
     16 C          -0.6119    6.0167   -0.0001 C.ar    1  LIG1        0.1159
     17 C          -0.1979    7.4043   -0.0001 C.ar    1  LIG1        0.1849
     18 C           1.1818    7.4036   -0.0002 C.ar    1  LIG1        0.2146
     19 O           1.6612    6.0932   -0.0003 O.2     1  LIG1       -0.4434
     20 C          -1.8411    5.5934   -0.0000 C.1     1  LIG1       -0.0620
     21 C          -2.9768    5.2022    0.0000 C.1     1  LIG1       -0.1137
     22 H          -3.9885    4.8538    0.0001 H       1  LIG1        0.1232
     23 O          -0.9936    8.4324   -0.0001 O.3     1  LIG1       -0.4901
     24 C          -0.2197    9.6349   -0.0002 C.3     1  LIG1        0.0790
     25 H          -0.8750   10.4808   -0.0004 H       1  LIG1        0.0660
     26 H           0.3974    9.6619    0.8736 H       1  LIG1        0.0660
     27 H           0.3976    9.6617   -0.8737 H       1  LIG1        0.0660
     28 C           2.1085    8.3153   -0.0002 C.ar    1  LIG1        0.1924
     29 C           3.4880    8.3153   -0.0001 C.ar    1  LIG1        0.1152
     30 C           3.9028    9.7027   -0.0001 C.ar    1  LIG1        0.1737
     31 C           2.7487   10.4588   -0.0002 C.ar    1  LIG1        0.1355
     32 O           1.6292    9.6260   -0.0003 O.2     1  LIG1       -0.4547
     33 H           2.4738   11.7294   -0.0002 H       1  LIG1        0.1068
     34 C           4.2837    7.2872   -0.0000 C.1     1  LIG1       -0.0621
     35 C           5.0189    6.3373    0.0001 C.1     1  LIG1       -0.1137
     36 H           5.6738    5.4911    0.0001 H       1  LIG1        0.1232
     37 O           5.1320   10.1260   -0.0001 O.3     1  LIG1       -0.4907
     38 C           6.0222    9.0068   -0.0002 C.3     1  LIG1        0.0790
     39 H           7.0338    9.3557   -0.0003 H       1  LIG1        0.0660
     40 H           5.8496    8.4137    0.8736 H       1  LIG1        0.0660
     41 H           5.8494    8.4137   -0.8737 H       1  LIG1        0.0660
@<TRIPOS>BOND
     1    27    24    1
     2    41    38    1
     3    14    11    1
     4    25    24    1
     5    32    31   ar
     6    32    28   ar
     7    39    38    1
     8    19    18   ar
     9    19    15   ar
    10    12    11    1
    11    31    33    1
    12    31    30   ar
    13     5     4   ar
    14     5     1   ar
    15    24    23    1
    16    24    26    1
    17    18    28    1
    18    18    17   ar
    19    38    37    1
    20    38    40    1
    21    28    29   ar
    22    29    30   ar
    23    29    34    1
    24    16    17   ar
    25    16    15   ar
    26    16    20    1
    27    23    17    1
    28    30    37    1
    29     4    15    1
    30     4     3   ar
    31    11    10    1
    32    11    13    1
    33    20    21    3
    34    34    35    3
    35     1     6    1
    36     1     2   ar
    37    10     3    1
    38     3     2   ar
    39     2     7    1
    40    21    22    1
    41    35    36    1
    42     7     8    3
    43     8     9    1
