@<TRIPOS>MOLECULE
mol_data/noopt/geoms/mol2/12el.out
 15 15 0 0 0
SMALL
GASTEIGER

@<TRIPOS>ATOM
      1 C           0.1763    1.8460    0.0000 C.ar    1  LIG1        0.1107
      2 C           1.5558    1.8460    0.0000 C.ar    1  LIG1        0.1039
      3 C           1.9706    3.2334    0.0000 C.ar    1  LIG1        0.1729
      4 C           0.8165    3.9895   -0.0001 C.ar    1  LIG1        0.1344
      5 O          -0.3030    3.1567   -0.0002 O.2     1  LIG1       -0.4660
      6 H          -0.7504    0.9343    0.0000 H       1  LIG1        0.1043
      7 H           0.5416    5.2601   -0.0001 H       1  LIG1        0.1068
      8 C           2.3515    0.8179    0.0001 C.1     1  LIG1       -0.0628
      9 C           3.0867   -0.1320    0.0002 C.1     1  LIG1       -0.1137
     10 H           3.7416   -0.9782    0.0003 H       1  LIG1        0.1232
     11 O           3.1998    3.6567   -0.0000 O.3     1  LIG1       -0.4907
     12 C           4.0900    2.5376   -0.0001 C.3     1  LIG1        0.0790
     13 H           5.1015    2.8864   -0.0002 H       1  LIG1        0.0660
     14 H           3.9174    1.9445    0.8737 H       1  LIG1        0.0660
     15 H           3.9171    1.9444   -0.8736 H       1  LIG1        0.0660
@<TRIPOS>BOND
     1    15    12    1
     2    13    12    1
     3     5     4   ar
     4     5     1   ar
     5     4     7    1
     6     4     3   ar
     7    12    11    1
     8    12    14    1
     9     1     2   ar
    10     1     6    1
    11     2     3   ar
    12     2     8    1
    13     3    11    1
    14     8     9    3
    15     9    10    1
