@<TRIPOS>MOLECULE
mol_data/noopt/geoms/mol2/12el12el12el-12el.out
 54 57 0 0 0
SMALL
GASTEIGER

@<TRIPOS>ATOM
      1 C           0.1763    1.8460    0.0000 C.ar    1  LIG1        0.1118
      2 C           1.5558    1.8460    0.0000 C.ar    1  LIG1        0.1047
      3 C           1.9706    3.2334    0.0000 C.ar    1  LIG1        0.1842
      4 C           0.8165    3.9895   -0.0001 C.ar    1  LIG1        0.2136
      5 O          -0.3030    3.1567   -0.0002 O.2     1  LIG1       -0.4547
      6 H          -0.7504    0.9343    0.0000 H       1  LIG1        0.1043
      7 C           2.3515    0.8179    0.0001 C.1     1  LIG1       -0.0628
      8 C           3.0867   -0.1320    0.0002 C.1     1  LIG1       -0.1137
      9 H           3.7416   -0.9782    0.0003 H       1  LIG1        0.1232
     10 O           3.1998    3.6567   -0.0000 O.3     1  LIG1       -0.4901
     11 C           4.0900    2.5376   -0.0001 C.3     1  LIG1        0.0790
     12 H           5.1015    2.8864   -0.0002 H       1  LIG1        0.0660
     13 H           3.9174    1.9445    0.8737 H       1  LIG1        0.0660
     14 H           3.9171    1.9444   -0.8736 H       1  LIG1        0.0660
     15 C           0.5416    5.2601   -0.0001 C.ar    1  LIG1        0.1934
     16 C           1.2792    6.4258   -0.0001 C.ar    1  LIG1        0.1159
     17 C           0.3286    7.5182   -0.0001 C.ar    1  LIG1        0.1849
     18 C          -0.9274    6.9472   -0.0002 C.ar    1  LIG1        0.2146
     19 O          -0.8223    5.5559   -0.0003 O.2     1  LIG1       -0.4434
     20 C           2.5734    6.5485   -0.0000 C.1     1  LIG1       -0.0620
     21 C           3.7693    6.6618    0.0001 C.1     1  LIG1       -0.1137
     22 H           4.8345    6.7627    0.0002 H       1  LIG1        0.1232
     23 O           0.6282    8.7833   -0.0001 O.3     1  LIG1       -0.4901
     24 C           2.0499    8.9371   -0.0002 C.3     1  LIG1        0.0790
     25 H           2.2960    9.9784   -0.0003 H       1  LIG1        0.0660
     26 H           2.4588    8.4741    0.8736 H       1  LIG1        0.0660
     27 H           2.4588    8.4738   -0.8737 H       1  LIG1        0.0660
     28 C          -2.1481    7.3943   -0.0002 C.ar    1  LIG1        0.1934
     29 C          -3.4042    6.8241   -0.0002 C.ar    1  LIG1        0.1159
     30 C          -4.3554    7.9160   -0.0002 C.ar    1  LIG1        0.1849
     31 C          -3.6171    9.0815   -0.0003 C.ar    1  LIG1        0.2146
     32 O          -2.2534    8.7859   -0.0004 O.2     1  LIG1       -0.4434
     33 C          -3.7038    5.5591   -0.0001 C.1     1  LIG1       -0.0620
     34 C          -3.9806    4.3902   -0.0001 C.1     1  LIG1       -0.1137
     35 H          -4.2271    3.3490   -0.0000 H       1  LIG1        0.1232
     36 O          -5.6497    7.7933   -0.0002 O.3     1  LIG1       -0.4901
     37 C          -6.2520    9.0903   -0.0003 C.3     1  LIG1        0.0790
     38 H          -7.3172    8.9889   -0.0005 H       1  LIG1        0.0660
     39 H          -5.9449    9.6262    0.8735 H       1  LIG1        0.0660
     40 H          -5.9446    9.6263   -0.8738 H       1  LIG1        0.0660
     41 C          -3.8920   10.3521   -0.0003 C.ar    1  LIG1        0.1924
     42 C          -3.1543   11.5178   -0.0002 C.ar    1  LIG1        0.1152
     43 C          -4.1049   12.6102   -0.0002 C.ar    1  LIG1        0.1737
     44 C          -5.3610   12.0393   -0.0003 C.ar    1  LIG1        0.1355
     45 O          -5.2558   10.6479   -0.0004 O.2     1  LIG1       -0.4547
     46 H          -6.5817   12.4864   -0.0003 H       1  LIG1        0.1068
     47 C          -1.8601   11.6405   -0.0001 C.1     1  LIG1       -0.0621
     48 C          -0.6643   11.7538   -0.0000 C.1     1  LIG1       -0.1137
     49 H           0.4009   11.8548    0.0000 H       1  LIG1        0.1232
     50 O          -3.8054   13.8753   -0.0002 O.3     1  LIG1       -0.4907
     51 C          -2.3837   14.0291   -0.0003 C.3     1  LIG1        0.0790
     52 H          -2.1375   15.0704   -0.0004 H       1  LIG1        0.0660
     53 H          -1.9747   13.5661    0.8735 H       1  LIG1        0.0660
     54 H          -1.9748   13.5659   -0.8738 H       1  LIG1        0.0660
@<TRIPOS>BOND
     1    40    37    1
     2    54    51    1
     3    27    24    1
     4    14    11    1
     5    38    37    1
     6    45    44   ar
     7    45    41   ar
     8    52    51    1
     9    32    31   ar
    10    32    28   ar
    11    25    24    1
    12    44    46    1
    13    44    43   ar
    14    19    18   ar
    15    19    15   ar
    16    37    36    1
    17    37    39    1
    18    31    41    1
    19    31    30   ar
    20    51    50    1
    21    51    53    1
    22    41    42   ar
    23    12    11    1
    24    42    43   ar
    25    42    47    1
    26    29    30   ar
    27    29    28   ar
    28    29    33    1
    29    36    30    1
    30    43    50    1
    31    28    18    1
    32     5     4   ar
    33     5     1   ar
    34    18    17   ar
    35    24    23    1
    36    24    26    1
    37    33    34    3
    38    47    48    3
    39    23    17    1
    40     4    15    1
    41     4     3   ar
    42    17    16   ar
    43    15    16   ar
    44    16    20    1
    45    34    35    1
    46    11    10    1
    47    11    13    1
    48    48    49    1
    49     2     3   ar
    50     2     1   ar
    51     2     7    1
    52     6     1    1
    53     3    10    1
    54    20    21    3
    55    21    22    1
    56     7     8    3
    57     8     9    1
