@<TRIPOS>MOLECULE
mol_data/noopt/geoms/mol2/12el12el-.out
 28 29 0 0 0
SMALL
GASTEIGER

@<TRIPOS>ATOM
      1 C           0.1763    1.8460    0.0000 C.ar    1  LIG1        0.1118
      2 C           1.5558    1.8460    0.0000 C.ar    1  LIG1        0.1047
      3 C           1.9706    3.2334    0.0000 C.ar    1  LIG1        0.1842
      4 C           0.8165    3.9895   -0.0001 C.ar    1  LIG1        0.2136
      5 O          -0.3030    3.1567   -0.0002 O.2     1  LIG1       -0.4547
      6 H          -0.7504    0.9343    0.0000 H       1  LIG1        0.1043
      7 C           2.3515    0.8179    0.0001 C.1     1  LIG1       -0.0628
      8 C           3.0867   -0.1320    0.0002 C.1     1  LIG1       -0.1137
      9 H           3.7416   -0.9782    0.0003 H       1  LIG1        0.1232
     10 O           3.1998    3.6567   -0.0000 O.3     1  LIG1       -0.4901
     11 C           4.0900    2.5376   -0.0001 C.3     1  LIG1        0.0790
     12 H           5.1015    2.8864   -0.0002 H       1  LIG1        0.0660
     13 H           3.9174    1.9445    0.8737 H       1  LIG1        0.0660
     14 H           3.9171    1.9444   -0.8736 H       1  LIG1        0.0660
     15 C           0.5416    5.2601   -0.0001 C.ar    1  LIG1        0.1924
     16 C          -0.6119    6.0167   -0.0001 C.ar    1  LIG1        0.1152
     17 C          -0.1979    7.4043   -0.0001 C.ar    1  LIG1        0.1737
     18 C           1.1818    7.4036   -0.0002 C.ar    1  LIG1        0.1355
     19 O           1.6612    6.0932   -0.0003 O.2     1  LIG1       -0.4547
     20 H           2.1085    8.3153   -0.0002 H       1  LIG1        0.1068
     21 C          -1.8411    5.5934   -0.0000 C.1     1  LIG1       -0.0621
     22 C          -2.9768    5.2022    0.0000 C.1     1  LIG1       -0.1137
     23 H          -3.9885    4.8538    0.0001 H       1  LIG1        0.1232
     24 O          -0.9936    8.4324   -0.0001 O.3     1  LIG1       -0.4907
     25 C          -0.2197    9.6349   -0.0002 C.3     1  LIG1        0.0790
     26 H          -0.8750   10.4808   -0.0004 H       1  LIG1        0.0660
     27 H           0.3974    9.6619    0.8736 H       1  LIG1        0.0660
     28 H           0.3976    9.6617   -0.8737 H       1  LIG1        0.0660
@<TRIPOS>BOND
     1    28    25    1
     2    14    11    1
     3    26    25    1
     4    19    18   ar
     5    19    15   ar
     6    12    11    1
     7     5     4   ar
     8     5     1   ar
     9    25    24    1
    10    25    27    1
    11    18    20    1
    12    18    17   ar
    13    16    17   ar
    14    16    15   ar
    15    16    21    1
    16    24    17    1
    17    15     4    1
    18     4     3   ar
    19    11    10    1
    20    11    13    1
    21    21    22    3
    22     1     6    1
    23     1     2   ar
    24    10     3    1
    25     3     2   ar
    26     2     7    1
    27    22    23    1
    28     7     8    3
    29     8     9    1
