@<TRIPOS>MOLECULE
mol_data/noopt/geoms/mol2/12el12hi(60)4id(250)13aa(100).out
 49 52 0 0 0
SMALL
GASTEIGER

@<TRIPOS>ATOM
      1 C           0.1763    1.8460    0.0000 C.ar    1  LIG1        0.1118
      2 C           1.5558    1.8460    0.0000 C.ar    1  LIG1        0.1047
      3 C           1.9706    3.2334    0.0000 C.ar    1  LIG1        0.1842
      4 C           0.8165    3.9895   -0.0001 C.ar    1  LIG1        0.2141
      5 O          -0.3030    3.1567   -0.0002 O.2     1  LIG1       -0.4547
      6 H          -0.7504    0.9343    0.0000 H       1  LIG1        0.1043
      7 C           2.3515    0.8179    0.0001 C.1     1  LIG1       -0.0628
      8 C           3.0867   -0.1320    0.0002 C.1     1  LIG1       -0.1137
      9 H           3.7416   -0.9782    0.0003 H       1  LIG1        0.1232
     10 O           3.1998    3.6567   -0.0000 O.3     1  LIG1       -0.4901
     11 C           4.0900    2.5376   -0.0001 C.3     1  LIG1        0.0790
     12 H           5.1015    2.8864   -0.0002 H       1  LIG1        0.0660
     13 H           3.9174    1.9445    0.8737 H       1  LIG1        0.0660
     14 H           3.9171    1.9444   -0.8736 H       1  LIG1        0.0660
     15 C           0.5416    5.2601   -0.0001 C.ar    1  LIG1        0.1950
     16 C           0.8540    6.3338    0.8077 C.ar    1  LIG1        0.0778
     17 C           0.2103    7.4926    0.2248 C.ar    1  LIG1        0.0167
     18 C          -0.4531    7.0499   -0.9011 C.ar    1  LIG1        0.1408
     19 O          -0.2637    5.6768   -1.0610 O.2     1  LIG1       -0.4494
     20 N           1.5808    6.3337    1.8856 N.pl3   1  LIG1       -0.3547
     21 H           2.1578    5.5171    1.8984 H       1  LIG1        0.1424
     22 H           2.1582    7.1501    1.8984 H       1  LIG1        0.1424
     23 C           0.2636    8.7046    0.6927 C.3     1  LIG1       -0.0343
     24 H          -0.6026    8.8941    1.2917 H       1  LIG1        0.0279
     25 H           0.2941    9.3998   -0.1202 H       1  LIG1        0.0279
     26 H           1.1431    8.8173    1.2916 H       1  LIG1        0.0279
     27 C          -1.1902    7.0797   -3.1281 C.ar    1  LIG1       -0.0391
     28 C          -2.0053    7.7137   -4.0857 C.ar    1  LIG1       -0.0478
     29 C          -1.1909    7.6014   -1.8183 C.ar    1  LIG1        0.0218
     30 C          -2.7878    8.8180   -3.7558 C.ar    1  LIG1        0.0159
     31 H          -2.0196    7.3276   -5.1025 H       1  LIG1        0.0627
     32 C          -1.9719    8.7039   -1.4884 C.ar    1  LIG1       -0.0328
     33 C          -2.7753    9.3196   -2.4537 C.ar    1  LIG1        0.0615
     34 H          -1.9551    9.0875   -0.4715 H       1  LIG1        0.0638
     35 C          -0.4824    6.0528   -3.4959 C.3     1  LIG1       -0.0390
     36 H           0.5120    6.1495   -3.1130 H       1  LIG1        0.0278
     37 H          -0.4501    6.0061   -4.5644 H       1  LIG1        0.0278
     38 H          -0.9267    5.1579   -3.1130 H       1  LIG1        0.0278
     39 N          -4.1451   11.2587   -1.8625 N.1     1  LIG1       -0.1908
     40 C          -3.5031   10.3500   -2.1396 C.1     1  LIG1        0.0998
     41 C          -3.5287    9.3788   -4.6650 C.ar    1  LIG1        0.0477
     42 C          -4.7152   10.0333   -4.5554 C.ar    1  LIG1       -0.0364
     43 C          -5.0957   10.4520   -5.8709 C.ar    1  LIG1       -0.0438
     44 C          -4.1242   10.0366   -6.7262 C.ar    1  LIG1        0.0022
     45 N          -3.1631    9.3787   -5.9921 N.ar    1  LIG1       -0.3606
     46 H          -2.3362    8.9692   -6.3617 H       1  LIG1        0.1653
     47 H          -4.0179   10.1766   -8.0143 H       1  LIG1        0.0807
     48 H          -5.3798   10.2379   -3.4571 H       1  LIG1        0.0639
     49 H          -6.1707   11.1088   -6.1919 H       1  LIG1        0.0633
@<TRIPOS>BOND
     1    47    44    1
     2    44    45   ar
     3    44    43   ar
     4    46    45    1
     5    49    43    1
     6    45    41   ar
     7    43    42   ar
     8    31    28    1
     9    41    42   ar
    10    41    30    1
    11    37    35    1
    12    42    48    1
    13    28    30   ar
    14    28    27   ar
    15    30    33   ar
    16    35    27    1
    17    35    38    1
    18    35    36    1
    19    27    29   ar
    20    33    40    1
    21    33    32   ar
    22    40    39    3
    23    29    32   ar
    24    29    18    1
    25    32    34    1
    26    19    18   ar
    27    19    15   ar
    28    18    17   ar
    29    14    11    1
    30    25    23    1
    31    12    11    1
    32     5     4   ar
    33     5     1   ar
    34     4    15    1
    35     4     3   ar
    36    15    16   ar
    37    11    10    1
    38    11    13    1
    39     2     3   ar
    40     2     1   ar
    41     2     7    1
    42     3    10    1
    43     6     1    1
    44     7     8    3
    45     8     9    1
    46    17    23    1
    47    17    16   ar
    48    23    26    1
    49    23    24    1
    50    16    20    1
    51    20    21    1
    52    20    22    1
