@<TRIPOS>MOLECULE
mol_data/noopt/geoms/mol2/12el4dl(100)13ed(190)6ee(140).out
 54 57 0 0 0
SMALL
GASTEIGER

@<TRIPOS>ATOM
      1 C           0.1763    1.8460    0.0000 C.ar    1  LIG1        0.1116
      2 C           1.5558    1.8460    0.0000 C.ar    1  LIG1        0.1046
      3 C           1.9706    3.2334    0.0000 C.ar    1  LIG1        0.1810
      4 C           0.8165    3.9895   -0.0001 C.ar    1  LIG1        0.1788
      5 O          -0.3030    3.1567   -0.0002 O.2     1  LIG1       -0.4578
      6 H          -0.7504    0.9343    0.0000 H       1  LIG1        0.1043
      7 C           2.3515    0.8179    0.0001 C.1     1  LIG1       -0.0628
      8 C           3.0867   -0.1320    0.0002 C.1     1  LIG1       -0.1137
      9 H           3.7416   -0.9782    0.0003 H       1  LIG1        0.1232
     10 O           3.1998    3.6567   -0.0000 O.3     1  LIG1       -0.4902
     11 C           4.0900    2.5376   -0.0001 C.3     1  LIG1        0.0790
     12 H           5.1015    2.8864   -0.0002 H       1  LIG1        0.0660
     13 H           3.9174    1.9445    0.8737 H       1  LIG1        0.0660
     14 H           3.9171    1.9444   -0.8736 H       1  LIG1        0.0660
     15 C           0.1849    5.9016    1.2036 C.ar    1  LIG1        0.0634
     16 C          -0.1051    7.2787    1.1506 C.ar    1  LIG1       -0.0310
     17 C           0.5416    5.2600   -0.0001 C.ar    1  LIG1        0.0418
     18 C          -0.0426    7.9878   -0.0469 C.ar    1  LIG1        0.0424
     19 H          -0.3827    7.7933    2.0678 H       1  LIG1        0.0638
     20 C           0.6041    5.9675   -1.1958 C.ar    1  LIG1       -0.0073
     21 C           0.3129    7.3352   -1.2280 C.ar    1  LIG1        0.1300
     22 H           0.8816    5.4502   -2.1107 H       1  LIG1        0.0662
     23 N           0.0434    4.7584    3.3621 N.1     1  LIG1       -0.1908
     24 C           0.1097    5.2941    2.3505 C.1     1  LIG1        0.0999
     25 O           0.3728    7.9914   -2.3487 O.3     1  LIG1       -0.4944
     26 C           1.7372    8.1096   -2.7602 C.3     1  LIG1        0.0788
     27 H           1.7861    8.6495   -3.6826 H       1  LIG1        0.0660
     28 H           2.2918    8.6339   -2.0102 H       1  LIG1        0.0660
     29 H           2.1548    7.1338   -2.8955 H       1  LIG1        0.0660
     30 C          -0.3166    9.2586   -0.0595 C.ar    1  LIG1        0.0673
     31 C          -1.5004    9.9038   -0.2332 C.ar    1  LIG1        0.0680
     32 C          -1.2365   11.3093   -0.1575 C.ar    1  LIG1        0.0930
     33 C           0.0966   11.4610    0.0608 C.ar    1  LIG1        0.0684
     34 N           0.6637   10.2080    0.1211 N.ar    1  LIG1       -0.3520
     35 H           1.6279   10.0189    0.2717 H       1  LIG1        0.1660
     36 C          -2.6569    9.3446   -0.4327 C.1     1  LIG1       -0.0662
     37 C          -3.7255    8.8278   -0.6170 C.1     1  LIG1       -0.1138
     38 H          -4.6773    8.3675   -0.7812 H       1  LIG1        0.1232
     39 N          -2.8773   13.1107   -0.3786 N.1     1  LIG1       -0.1908
     40 C          -2.1083   12.2665   -0.2750 C.1     1  LIG1        0.1025
     41 C           2.0238   12.6830   -0.4970 C.ar    1  LIG1        0.1223
     42 C           0.8112   12.5379    0.2015 C.ar    1  LIG1        0.0346
     43 C           0.3985   13.5727    1.0428 C.ar    1  LIG1       -0.0330
     44 C           1.2036   14.7073    1.1573 C.ar    1  LIG1        0.0435
     45 C           2.3995   14.7594    0.4181 C.ar    1  LIG1        0.0444
     46 N           2.8128   13.7704   -0.3983 N.ar    1  LIG1       -0.2448
     47 H          -0.5426   13.4947    1.6055 H       1  LIG1        0.0638
     48 H           3.1826   15.7945    0.4913 H       1  LIG1        0.0842
     49 C           2.4500   11.7469   -1.2921 C.1     1  LIG1       -0.0491
     50 C           2.8439   10.8821   -2.0268 C.1     1  LIG1       -0.1124
     51 H           3.1947   10.1117   -2.6812 H       1  LIG1        0.1232
     52 C           0.8635   15.6977    1.9276 C.1     1  LIG1       -0.0681
     53 C           0.5492   16.6129    2.6393 C.1     1  LIG1       -0.1139
     54 H           0.2692   17.4282    3.2732 H       1  LIG1        0.1232
@<TRIPOS>BOND
     1    27    26    1
     2    29    26    1
     3    26    25    1
     4    26    28    1
     5    51    50    1
     6    25    21    1
     7    22    20    1
     8    50    49    3
     9    49    41    1
    10    21    20   ar
    11    21    18   ar
    12    20    17   ar
    13    14    11    1
    14    38    37    1
    15    37    36    3
    16    41    46   ar
    17    41    42   ar
    18    36    31    1
    19    46    45   ar
    20    39    40    3
    21    40    32    1
    22    31    32   ar
    23    31    30   ar
    24    32    33   ar
    25    30    18    1
    26    30    34   ar
    27    18    16   ar
    28    12    11    1
    29     5     4   ar
    30     5     1   ar
    31    17     4    1
    32    17    15   ar
    33     4     3   ar
    34    11    10    1
    35    11    13    1
    36     1     2   ar
    37     1     6    1
    38     2     3   ar
    39     2     7    1
    40     3    10    1
    41     7     8    3
    42     8     9    1
    43    33    34   ar
    44    33    42    1
    45    34    35    1
    46    42    43   ar
    47    45    48    1
    48    45    44   ar
    49    43    44   ar
    50    43    47    1
    51    16    15   ar
    52    16    19    1
    53    44    52    1
    54    15    24    1
    55    52    53    3
    56    24    23    3
    57    53    54    1
