@<TRIPOS>MOLECULE
mol_data/noopt/geoms/mol2/12el12ii13df-13ae-.out
 48 51 0 0 0
SMALL
GASTEIGER

@<TRIPOS>ATOM
      1 C           0.1763    1.8460    0.0000 C.ar    1  LIG1        0.1118
      2 C           1.5558    1.8460    0.0000 C.ar    1  LIG1        0.1047
      3 C           1.9706    3.2334    0.0000 C.ar    1  LIG1        0.1841
      4 C           0.8165    3.9895   -0.0001 C.ar    1  LIG1        0.2125
      5 O          -0.3030    3.1567   -0.0002 O.2     1  LIG1       -0.4547
      6 H          -0.7504    0.9343    0.0000 H       1  LIG1        0.1043
      7 C           2.3515    0.8179    0.0001 C.1     1  LIG1       -0.0628
      8 C           3.0867   -0.1320    0.0002 C.1     1  LIG1       -0.1137
      9 H           3.7416   -0.9782    0.0003 H       1  LIG1        0.1232
     10 O           3.1998    3.6567   -0.0000 O.3     1  LIG1       -0.4901
     11 C           4.0900    2.5376   -0.0001 C.3     1  LIG1        0.0790
     12 H           5.1015    2.8864   -0.0002 H       1  LIG1        0.0660
     13 H           3.9174    1.9445    0.8737 H       1  LIG1        0.0660
     14 H           3.9171    1.9444   -0.8736 H       1  LIG1        0.0660
     15 C           0.5416    5.2601   -0.0001 C.ar    1  LIG1        0.1775
     16 C           1.2791    6.4258    0.0147 C.ar    1  LIG1        0.0021
     17 C           0.3286    7.5182    0.0040 C.ar    1  LIG1        0.0004
     18 C          -0.9273    6.9473   -0.0167 C.ar    1  LIG1        0.1564
     19 O          -0.8221    5.5559   -0.0197 O.2     1  LIG1       -0.4496
     20 C           2.5735    6.5484    0.0345 C.3     1  LIG1       -0.0357
     21 H           2.8385    7.4511    0.5443 H       1  LIG1        0.0279
     22 H           2.9439    6.5836   -0.9688 H       1  LIG1        0.0279
     23 H           3.0033    5.7116    0.5443 H       1  LIG1        0.0279
     24 C           0.6282    8.7835    0.0126 C.3     1  LIG1       -0.0358
     25 H          -0.1406    9.3286    0.5194 H       1  LIG1        0.0279
     26 H           0.7118    9.1371   -0.9939 H       1  LIG1        0.0279
     27 H           1.5598    8.9260    0.5193 H       1  LIG1        0.0279
     28 C          -2.1479    7.3944   -0.0335 C.ar    1  LIG1        0.1041
     29 C          -2.6203    8.6690   -0.0286 C.ar    1  LIG1        0.1220
     30 C          -4.0502    8.5952   -0.0534 C.ar    1  LIG1        0.1616
     31 C          -4.3886    7.2788   -0.0740 C.ar    1  LIG1        0.1067
     32 N          -3.2270    6.5401   -0.0615 N.ar    1  LIG1       -0.3466
     33 H          -3.1755    5.5475   -0.0717 H       1  LIG1        0.1662
     34 N          -1.2704   10.7090    0.0171 N.1     1  LIG1       -0.1907
     35 C          -1.9030    9.7530   -0.0044 C.1     1  LIG1        0.1051
     36 O          -4.8757    9.5995   -0.0561 O.3     1  LIG1       -0.5034
     37 H          -5.7783    9.2724   -0.0568 H       1  LIG1        0.2923
     38 C          -5.5565    6.7083   -0.1001 C.ar    1  LIG1        0.0677
     39 C          -6.8028    7.2508   -0.1182 C.ar    1  LIG1       -0.0194
     40 C          -7.7401    6.1684   -0.1434 C.ar    1  LIG1        0.0426
     41 C          -7.0252    5.0121   -0.1414 C.ar    1  LIG1        0.0177
     42 N          -5.6880    5.3380   -0.1144 N.ar    1  LIG1       -0.3583
     43 H          -4.9366    4.6873   -0.1071 H       1  LIG1        0.1654
     44 H          -7.4229    3.7745   -0.1589 H       1  LIG1        0.0819
     45 H          -7.0875    8.5192   -0.1121 H       1  LIG1        0.0651
     46 C          -9.0360    6.2689   -0.1648 C.1     1  LIG1       -0.0682
     47 C         -10.2334    6.3619   -0.1846 C.1     1  LIG1       -0.1139
     48 H         -11.3001    6.4446   -0.2022 H       1  LIG1        0.1232
@<TRIPOS>BOND
     1    26    24    1
     2    22    20    1
     3    14    11    1
     4    48    47    1
     5    47    46    3
     6    46    40    1
     7    44    41    1
     8    40    41   ar
     9    40    39   ar
    10    41    42   ar
    11    39    45    1
    12    39    38   ar
    13    42    43    1
    14    42    38   ar
    15    38    31    1
    16    31    32   ar
    17    31    30   ar
    18    33    32    1
    19    32    28   ar
    20    37    36    1
    21    36    30    1
    22    30    29   ar
    23    28    29   ar
    24    28    18    1
    25    29    35    1
    26    19    18   ar
    27    19    15   ar
    28    18    17   ar
    29    35    34    3
    30    12    11    1
    31     5     4   ar
    32     5     1   ar
    33    15     4    1
    34    15    16   ar
    35     4     3   ar
    36    11    10    1
    37    11    13    1
    38     1     2   ar
    39     1     6    1
    40     2     3   ar
    41     2     7    1
    42     3    10    1
    43     7     8    3
    44     8     9    1
    45    17    24    1
    46    17    16   ar
    47    24    27    1
    48    24    25    1
    49    16    20    1
    50    20    23    1
    51    20    21    1
