@<TRIPOS>MOLECULE
mol_data/noopt/geoms/mol2/12el12el-12el12el-.out
 54 57 0 0 0
SMALL
GASTEIGER

@<TRIPOS>ATOM
      1 C           0.1763    1.8460    0.0000 C.ar    1  LIG1        0.1118
      2 C           1.5558    1.8460    0.0000 C.ar    1  LIG1        0.1047
      3 C           1.9706    3.2334    0.0000 C.ar    1  LIG1        0.1842
      4 C           0.8165    3.9895   -0.0001 C.ar    1  LIG1        0.2136
      5 O          -0.3030    3.1567   -0.0002 O.2     1  LIG1       -0.4547
      6 H          -0.7504    0.9343    0.0000 H       1  LIG1        0.1043
      7 C           2.3515    0.8179    0.0001 C.1     1  LIG1       -0.0628
      8 C           3.0867   -0.1320    0.0002 C.1     1  LIG1       -0.1137
      9 H           3.7416   -0.9782    0.0003 H       1  LIG1        0.1232
     10 O           3.1998    3.6567   -0.0000 O.3     1  LIG1       -0.4901
     11 C           4.0900    2.5376   -0.0001 C.3     1  LIG1        0.0790
     12 H           5.1015    2.8864   -0.0002 H       1  LIG1        0.0660
     13 H           3.9174    1.9445    0.8737 H       1  LIG1        0.0660
     14 H           3.9171    1.9444   -0.8736 H       1  LIG1        0.0660
     15 C           0.5416    5.2601   -0.0001 C.ar    1  LIG1        0.1934
     16 C          -0.6119    6.0167   -0.0001 C.ar    1  LIG1        0.1159
     17 C          -0.1979    7.4043   -0.0001 C.ar    1  LIG1        0.1849
     18 C           1.1818    7.4036   -0.0002 C.ar    1  LIG1        0.2146
     19 O           1.6612    6.0932   -0.0003 O.2     1  LIG1       -0.4434
     20 C          -1.8411    5.5934   -0.0000 C.1     1  LIG1       -0.0620
     21 C          -2.9768    5.2022    0.0000 C.1     1  LIG1       -0.1137
     22 H          -3.9885    4.8538    0.0001 H       1  LIG1        0.1232
     23 O          -0.9936    8.4324   -0.0001 O.3     1  LIG1       -0.4901
     24 C          -0.2197    9.6349   -0.0002 C.3     1  LIG1        0.0790
     25 H          -0.8750   10.4808   -0.0004 H       1  LIG1        0.0660
     26 H           0.3974    9.6619    0.8736 H       1  LIG1        0.0660
     27 H           0.3976    9.6617   -0.8737 H       1  LIG1        0.0660
     28 C           2.1085    8.3153   -0.0002 C.ar    1  LIG1        0.1934
     29 C           3.4880    8.3153   -0.0001 C.ar    1  LIG1        0.1159
     30 C           3.9028    9.7027   -0.0001 C.ar    1  LIG1        0.1849
     31 C           2.7487   10.4588   -0.0002 C.ar    1  LIG1        0.2146
     32 O           1.6292    9.6260   -0.0003 O.2     1  LIG1       -0.4434
     33 C           4.2837    7.2872   -0.0000 C.1     1  LIG1       -0.0620
     34 C           5.0189    6.3373    0.0001 C.1     1  LIG1       -0.1137
     35 H           5.6738    5.4911    0.0001 H       1  LIG1        0.1232
     36 O           5.1320   10.1260   -0.0001 O.3     1  LIG1       -0.4901
     37 C           6.0222    9.0068   -0.0002 C.3     1  LIG1        0.0790
     38 H           7.0338    9.3557   -0.0003 H       1  LIG1        0.0660
     39 H           5.8496    8.4137    0.8736 H       1  LIG1        0.0660
     40 H           5.8494    8.4137   -0.8737 H       1  LIG1        0.0660
     41 C           2.4738   11.7294   -0.0002 C.ar    1  LIG1        0.1924
     42 C           1.3203   12.4859   -0.0002 C.ar    1  LIG1        0.1152
     43 C           1.7343   13.8736   -0.0002 C.ar    1  LIG1        0.1737
     44 C           3.1141   13.8729   -0.0003 C.ar    1  LIG1        0.1355
     45 O           3.5935   12.5625   -0.0004 O.2     1  LIG1       -0.4547
     46 H           4.0408   14.7846   -0.0002 H       1  LIG1        0.1068
     47 C           0.0911   12.0626   -0.0001 C.1     1  LIG1       -0.0621
     48 C          -1.0446   11.6715   -0.0001 C.1     1  LIG1       -0.1137
     49 H          -2.0563   11.3231   -0.0000 H       1  LIG1        0.1232
     50 O           0.9386   14.9017   -0.0002 O.3     1  LIG1       -0.4907
     51 C           1.7125   16.1041   -0.0003 C.3     1  LIG1        0.0790
     52 H           1.0573   16.9500   -0.0004 H       1  LIG1        0.0660
     53 H           2.3296   16.1312    0.8735 H       1  LIG1        0.0660
     54 H           2.3298   16.1310   -0.8738 H       1  LIG1        0.0660
@<TRIPOS>BOND
     1    54    51    1
     2    27    24    1
     3    40    37    1
     4    14    11    1
     5    52    51    1
     6    45    44   ar
     7    45    41   ar
     8    25    24    1
     9    32    31   ar
    10    32    28   ar
    11    38    37    1
    12    19    18   ar
    13    19    15   ar
    14    44    46    1
    15    44    43   ar
    16    51    50    1
    17    51    53    1
    18    12    11    1
    19    31    41    1
    20    31    30   ar
    21    42    41   ar
    22    42    43   ar
    23    42    47    1
    24     5     4   ar
    25     5     1   ar
    26    24    23    1
    27    24    26    1
    28    43    50    1
    29    18    28    1
    30    18    17   ar
    31    37    36    1
    32    37    39    1
    33    28    29   ar
    34    47    48    3
    35    29    30   ar
    36    29    33    1
    37    16    17   ar
    38    16    15   ar
    39    16    20    1
    40    23    17    1
    41    30    36    1
    42    15     4    1
    43     4     3   ar
    44    48    49    1
    45    11    10    1
    46    11    13    1
    47    20    21    3
    48    33    34    3
    49     2     3   ar
    50     2     1   ar
    51     2     7    1
    52     3    10    1
    53     6     1    1
    54    21    22    1
    55    34    35    1
    56     7     8    3
    57     8     9    1
