@<TRIPOS>MOLECULE
mol_data/noopt/geoms/mol2/12el13fh(120)12ea(200)6ih(240).out
 49 52 0 0 0
SMALL
GASTEIGER

@<TRIPOS>ATOM
      1 C           0.1763    1.8460    0.0000 C.ar    1  LIG1        0.1117
      2 C           1.5558    1.8460    0.0000 C.ar    1  LIG1        0.1047
      3 C           1.9706    3.2334    0.0000 C.ar    1  LIG1        0.1826
      4 C           0.8165    3.9895   -0.0001 C.ar    1  LIG1        0.1971
      5 O          -0.3030    3.1567   -0.0002 O.2     1  LIG1       -0.4563
      6 H          -0.7504    0.9343    0.0000 H       1  LIG1        0.1043
      7 C           2.3515    0.8179    0.0001 C.1     1  LIG1       -0.0628
      8 C           3.0867   -0.1320    0.0002 C.1     1  LIG1       -0.1137
      9 H           3.7416   -0.9782    0.0003 H       1  LIG1        0.1232
     10 O           3.1998    3.6567   -0.0000 O.3     1  LIG1       -0.4901
     11 C           4.0900    2.5376   -0.0001 C.3     1  LIG1        0.0790
     12 H           5.1015    2.8864   -0.0002 H       1  LIG1        0.0660
     13 H           3.9174    1.9445    0.8737 H       1  LIG1        0.0660
     14 H           3.9171    1.9444   -0.8736 H       1  LIG1        0.0660
     15 C           0.5416    5.2601   -0.0001 C.ar    1  LIG1        0.1302
     16 C          -0.1819    6.0059    0.8764 C.ar    1  LIG1        0.1668
     17 C          -0.1701    7.3564    0.4003 C.ar    1  LIG1        0.0961
     18 C           0.5616    7.3768   -0.7453 C.ar    1  LIG1        0.1084
     19 N           0.9988    6.0954   -0.9943 N.ar    1  LIG1       -0.3448
     20 H           1.5566    5.8175   -1.7687 H       1  LIG1        0.1663
     21 O          -0.7752    5.5696    1.9477 O.3     1  LIG1       -0.5030
     22 H          -0.3853    4.7330    2.2118 H       1  LIG1        0.2923
     23 N          -0.7503    8.3773    0.9581 N.pl3   1  LIG1       -0.3534
     24 H          -0.2891    9.2184    0.6753 H       1  LIG1        0.1425
     25 H          -1.7089    8.4115    0.6752 H       1  LIG1        0.1425
     26 C           0.8576    8.3623   -1.5397 C.ar    1  LIG1        0.1690
     27 C           0.1470    9.2009   -2.3733 C.ar    1  LIG1        0.0725
     28 C           1.1102   10.0955   -2.9807 C.ar    1  LIG1        0.0003
     29 C           2.3460    9.7440   -2.4778 C.ar    1  LIG1        0.1387
     30 O           2.2162    8.6779   -1.5870 O.2     1  LIG1       -0.4520
     31 C          -1.1348    9.2086   -2.5897 C.1     1  LIG1       -0.0658
     32 C          -2.3192    9.2157   -2.7897 C.1     1  LIG1       -0.1138
     33 H          -3.3742    9.2220   -2.9679 H       1  LIG1        0.1232
     34 H           0.8361   11.0387   -3.8323 H       1  LIG1        0.0668
     35 C           4.5535    9.8638   -1.6834 C.ar    1  LIG1        0.0490
     36 C           3.5653   10.1652   -2.6384 C.ar    1  LIG1        0.0400
     37 C           3.9258   10.9223   -3.7546 C.ar    1  LIG1       -0.0272
     38 C           5.2491   11.3492   -3.8782 C.ar    1  LIG1        0.0436
     39 C           6.1652   10.9972   -2.8700 C.ar    1  LIG1        0.0485
     40 N           5.8346   10.2674   -1.7867 N.ar    1  LIG1       -0.2576
     41 H           3.1809   11.1784   -4.5213 H       1  LIG1        0.0644
     42 H           7.4082   11.3710   -2.9402 H       1  LIG1        0.0848
     43 C           4.2664    9.1617   -0.6272 C.3     1  LIG1       -0.0217
     44 H           5.1514    9.0177   -0.0433 H       1  LIG1        0.0293
     45 H           3.8776    8.2106   -0.9260 H       1  LIG1        0.0293
     46 H           3.5340    9.6790   -0.0434 H       1  LIG1        0.0293
     47 N           5.6346   12.0564   -4.8986 N.pl3   1  LIG1       -0.3568
     48 H           6.2733   11.5221   -5.4523 H       1  LIG1        0.1424
     49 H           4.8395   12.3036   -5.4523 H       1  LIG1        0.1424
@<TRIPOS>BOND
     1    49    47    1
     2    48    47    1
     3    47    38    1
     4    41    37    1
     5    38    37   ar
     6    38    39   ar
     7    34    28    1
     8    37    36   ar
     9    28    29   ar
    10    28    27   ar
    11    33    32    1
    12    42    39    1
    13    39    40   ar
    14    32    31    3
    15    36    29    1
    16    36    35   ar
    17    31    27    1
    18    29    30   ar
    19    27    26   ar
    20    40    35   ar
    21    20    19    1
    22    35    43    1
    23    30    26   ar
    24    26    18    1
    25    19    18   ar
    26    19    15   ar
    27    45    43    1
    28    14    11    1
    29    18    17   ar
    30    43    46    1
    31    43    44    1
    32    12    11    1
    33     5     4   ar
    34     5     1   ar
    35    15     4    1
    36    15    16   ar
    37     4     3   ar
    38    11    10    1
    39    11    13    1
    40     1     6    1
    41     1     2   ar
    42    10     3    1
    43     3     2   ar
    44     2     7    1
    45     7     8    3
    46     8     9    1
    47    17    16   ar
    48    17    23    1
    49    25    23    1
    50    24    23    1
    51    16    21    1
    52    21    22    1
