@<TRIPOS>MOLECULE
mol_data/noopt/geoms/mol2/12el12el.out
 28 29 0 0 0
SMALL
GASTEIGER

@<TRIPOS>ATOM
      1 C           0.1763    1.8460    0.0000 C.ar    1  LIG1        0.1118
      2 C           1.5558    1.8460    0.0000 C.ar    1  LIG1        0.1047
      3 C           1.9706    3.2334    0.0000 C.ar    1  LIG1        0.1842
      4 C           0.8165    3.9895   -0.0001 C.ar    1  LIG1        0.2136
      5 O          -0.3030    3.1567   -0.0002 O.2     1  LIG1       -0.4547
      6 H          -0.7504    0.9343    0.0000 H       1  LIG1        0.1043
      7 C           2.3515    0.8179    0.0001 C.1     1  LIG1       -0.0628
      8 C           3.0867   -0.1320    0.0002 C.1     1  LIG1       -0.1137
      9 H           3.7416   -0.9782    0.0003 H       1  LIG1        0.1232
     10 O           3.1998    3.6567   -0.0000 O.3     1  LIG1       -0.4901
     11 C           4.0900    2.5376   -0.0001 C.3     1  LIG1        0.0790
     12 H           5.1015    2.8864   -0.0002 H       1  LIG1        0.0660
     13 H           3.9174    1.9445    0.8737 H       1  LIG1        0.0660
     14 H           3.9171    1.9444   -0.8736 H       1  LIG1        0.0660
     15 C           0.5416    5.2601   -0.0001 C.ar    1  LIG1        0.1924
     16 C           1.2792    6.4258   -0.0001 C.ar    1  LIG1        0.1152
     17 C           0.3286    7.5182   -0.0001 C.ar    1  LIG1        0.1737
     18 C          -0.9274    6.9472   -0.0002 C.ar    1  LIG1        0.1355
     19 O          -0.8223    5.5559   -0.0003 O.2     1  LIG1       -0.4547
     20 H          -2.1481    7.3943   -0.0002 H       1  LIG1        0.1068
     21 C           2.5734    6.5485   -0.0000 C.1     1  LIG1       -0.0621
     22 C           3.7693    6.6618    0.0001 C.1     1  LIG1       -0.1137
     23 H           4.8345    6.7627    0.0002 H       1  LIG1        0.1232
     24 O           0.6282    8.7833   -0.0001 O.3     1  LIG1       -0.4907
     25 C           2.0499    8.9371   -0.0002 C.3     1  LIG1        0.0790
     26 H           2.2960    9.9784   -0.0003 H       1  LIG1        0.0660
     27 H           2.4588    8.4741    0.8736 H       1  LIG1        0.0660
     28 H           2.4588    8.4738   -0.8737 H       1  LIG1        0.0660
@<TRIPOS>BOND
     1    28    25    1
     2    14    11    1
     3    26    25    1
     4    19    18   ar
     5    19    15   ar
     6    12    11    1
     7     5     4   ar
     8     5     1   ar
     9    20    18    1
    10    18    17   ar
    11    25    24    1
    12    25    27    1
    13    15    16   ar
    14    15     4    1
    15    24    17    1
    16    17    16   ar
    17    16    21    1
    18     4     3   ar
    19    11    10    1
    20    11    13    1
    21     1     6    1
    22     1     2   ar
    23    10     3    1
    24    21    22    3
    25     3     2   ar
    26     2     7    1
    27    22    23    1
    28     7     8    3
    29     8     9    1
