@<TRIPOS>MOLECULE
mol_data/noopt/geoms/mol2/12el12el12el12el.out
 54 57 0 0 0
SMALL
GASTEIGER

@<TRIPOS>ATOM
      1 C           0.1763    1.8460    0.0000 C.ar    1  LIG1        0.1118
      2 C           1.5558    1.8460    0.0000 C.ar    1  LIG1        0.1047
      3 C           1.9706    3.2334    0.0000 C.ar    1  LIG1        0.1842
      4 C           0.8165    3.9895   -0.0001 C.ar    1  LIG1        0.2136
      5 O          -0.3030    3.1567   -0.0002 O.2     1  LIG1       -0.4547
      6 H          -0.7504    0.9343    0.0000 H       1  LIG1        0.1043
      7 C           2.3515    0.8179    0.0001 C.1     1  LIG1       -0.0628
      8 C           3.0867   -0.1320    0.0002 C.1     1  LIG1       -0.1137
      9 H           3.7416   -0.9782    0.0003 H       1  LIG1        0.1232
     10 O           3.1998    3.6567   -0.0000 O.3     1  LIG1       -0.4901
     11 C           4.0900    2.5376   -0.0001 C.3     1  LIG1        0.0790
     12 H           5.1015    2.8864   -0.0002 H       1  LIG1        0.0660
     13 H           3.9174    1.9445    0.8737 H       1  LIG1        0.0660
     14 H           3.9171    1.9444   -0.8736 H       1  LIG1        0.0660
     15 C           0.5416    5.2601   -0.0001 C.ar    1  LIG1        0.1934
     16 C           1.2792    6.4258   -0.0001 C.ar    1  LIG1        0.1159
     17 C           0.3286    7.5182   -0.0001 C.ar    1  LIG1        0.1849
     18 C          -0.9274    6.9472   -0.0002 C.ar    1  LIG1        0.2146
     19 O          -0.8223    5.5559   -0.0003 O.2     1  LIG1       -0.4434
     20 C           2.5734    6.5485   -0.0000 C.1     1  LIG1       -0.0620
     21 C           3.7693    6.6618    0.0001 C.1     1  LIG1       -0.1137
     22 H           4.8345    6.7627    0.0002 H       1  LIG1        0.1232
     23 O           0.6282    8.7833   -0.0001 O.3     1  LIG1       -0.4901
     24 C           2.0499    8.9371   -0.0002 C.3     1  LIG1        0.0790
     25 H           2.2960    9.9784   -0.0003 H       1  LIG1        0.0660
     26 H           2.4588    8.4741    0.8736 H       1  LIG1        0.0660
     27 H           2.4588    8.4738   -0.8737 H       1  LIG1        0.0660
     28 C          -2.1481    7.3943   -0.0002 C.ar    1  LIG1        0.1934
     29 C          -2.7387    8.6410   -0.0002 C.ar    1  LIG1        0.1159
     30 C          -4.1701    8.4218   -0.0002 C.ar    1  LIG1        0.1849
     31 C          -4.3593    7.0551   -0.0003 C.ar    1  LIG1        0.2146
     32 O          -3.1273    6.4000   -0.0004 O.2     1  LIG1       -0.4434
     33 C          -2.1504    9.8002   -0.0001 C.1     1  LIG1       -0.0620
     34 C          -1.6067   10.8713   -0.0000 C.1     1  LIG1       -0.1137
     35 H          -1.1224   11.8255    0.0001 H       1  LIG1        0.1232
     36 O          -5.0790    9.3514   -0.0002 O.3     1  LIG1       -0.4901
     37 C          -4.4487   10.6350   -0.0003 C.3     1  LIG1        0.0790
     38 H          -5.1971   11.3998   -0.0004 H       1  LIG1        0.0660
     39 H          -3.8389   10.7330    0.8735 H       1  LIG1        0.0660
     40 H          -3.8387   10.7328   -0.8738 H       1  LIG1        0.0660
     41 C          -5.3898    6.2627   -0.0003 C.ar    1  LIG1        0.1924
     42 C          -6.7591    6.4302   -0.0003 C.ar    1  LIG1        0.1152
     43 C          -7.3393    5.1034   -0.0003 C.ar    1  LIG1        0.1737
     44 C          -6.2855    4.2128   -0.0004 C.ar    1  LIG1        0.1355
     45 O          -5.0732    4.9035   -0.0005 O.2     1  LIG1       -0.4547
     46 H          -6.1669    2.9182   -0.0004 H       1  LIG1        0.1068
     47 C          -7.4241    7.5472   -0.0002 C.1     1  LIG1       -0.0621
     48 C          -8.0385    8.5794   -0.0001 C.1     1  LIG1       -0.1137
     49 H          -8.5858    9.4988   -0.0000 H       1  LIG1        0.1232
     50 O          -8.6108    4.8325   -0.0003 O.3     1  LIG1       -0.4907
     51 C          -9.3585    6.0514   -0.0004 C.3     1  LIG1        0.0790
     52 H         -10.4049    5.8280   -0.0005 H       1  LIG1        0.0660
     53 H          -9.1152    6.6192    0.8734 H       1  LIG1        0.0660
     54 H          -9.1149    6.6192   -0.8739 H       1  LIG1        0.0660
@<TRIPOS>BOND
     1    54    51    1
     2    40    37    1
     3    27    24    1
     4    14    11    1
     5    52    51    1
     6    45    44   ar
     7    45    41   ar
     8    38    37    1
     9    46    44    1
    10    44    43   ar
    11    32    31   ar
    12    32    28   ar
    13    51    50    1
    14    51    53    1
    15    25    24    1
    16    41    31    1
    17    41    42   ar
    18    31    30   ar
    19    19    18   ar
    20    19    15   ar
    21    42    43   ar
    22    42    47    1
    23    43    50    1
    24    37    36    1
    25    37    39    1
    26    12    11    1
    27    28    29   ar
    28    28    18    1
    29    36    30    1
    30    30    29   ar
    31    29    33    1
    32    47    48    3
    33     5     4   ar
    34     5     1   ar
    35    18    17   ar
    36    24    23    1
    37    24    26    1
    38    48    49    1
    39    23    17    1
    40     4    15    1
    41     4     3   ar
    42    33    34    3
    43    15    16   ar
    44    17    16   ar
    45    16    20    1
    46    11    10    1
    47    11    13    1
    48    34    35    1
    49     6     1    1
    50     2     3   ar
    51     2     1   ar
    52     2     7    1
    53    10     3    1
    54    20    21    3
    55    21    22    1
    56     7     8    3
    57     8     9    1
