@<TRIPOS>MOLECULE
mol_data/noopt/geoms/mol2/12fa13he(250)4fe(170)12lf(100).out
 47 50 0 0 0
SMALL
GASTEIGER

@<TRIPOS>ATOM
      1 C           0.1763    1.8460    0.0000 C.ar    1  LIG1        0.1339
      2 C           1.5558    1.8460    0.0000 C.ar    1  LIG1        0.1551
      3 C           1.9706    3.2334    0.0000 C.ar    1  LIG1        0.0273
      4 C           0.8165    3.9895   -0.0001 C.ar    1  LIG1        0.1563
      5 O          -0.3030    3.1567   -0.0002 O.2     1  LIG1       -0.4577
      6 H          -0.7504    0.9343    0.0000 H       1  LIG1        0.1068
      7 O           2.3515    0.8179    0.0001 O.3     1  LIG1       -0.5036
      8 H           3.2633    1.1184    0.0001 H       1  LIG1        0.2923
      9 H           3.1998    3.6567    0.0000 H       1  LIG1        0.0693
     10 C           0.5416    5.2601   -0.0001 C.ar    1  LIG1        0.1048
     11 C          -0.0173    6.0415   -0.9618 C.ar    1  LIG1        0.0694
     12 C          -0.0929    7.3731   -0.4405 C.ar    1  LIG1        0.0713
     13 C           0.4216    7.3465    0.8175 C.ar    1  LIG1        0.0679
     14 N           0.8117    6.0549    1.0910 N.ar    1  LIG1       -0.3492
     15 H           1.2225    5.7452    1.9415 H       1  LIG1        0.1661
     16 N          -0.4086    5.6489   -2.1378 N.pl3   1  LIG1       -0.3553
     17 H          -0.7862    6.4267   -2.6402 H       1  LIG1        0.1424
     18 H           0.3705    5.2741   -2.6403 H       1  LIG1        0.1424
     19 C          -0.5659    8.4172   -1.0538 C.1     1  LIG1       -0.0657
     20 C          -1.0030    9.3820   -1.6204 C.1     1  LIG1       -0.1138
     21 H          -1.3923   10.2413   -2.1252 H       1  LIG1        0.1232
     22 C          -0.5630    8.8586    2.3168 C.ar    1  LIG1        0.1267
     23 C          -0.3506    9.8898    3.2522 C.ar    1  LIG1       -0.0076
     24 C           0.5689    8.2998    1.6890 C.ar    1  LIG1        0.0422
     25 C           0.9314   10.3455    3.5512 C.ar    1  LIG1        0.0399
     26 H          -1.2101   10.3351    3.7482 H       1  LIG1        0.0662
     27 C           1.8490    8.7544    1.9871 C.ar    1  LIG1       -0.0330
     28 C           2.0395    9.7795    2.9195 C.ar    1  LIG1        0.0363
     29 H           2.7058    8.3075    1.4895 H       1  LIG1        0.0638
     30 O          -1.7826    8.4758    2.0798 O.3     1  LIG1       -0.5061
     31 H          -1.8121    7.5180    2.0213 H       1  LIG1        0.2922
     32 C           3.2384   10.2005    3.1941 C.1     1  LIG1       -0.0689
     33 C           4.3462   10.5895    3.4478 C.1     1  LIG1       -0.1139
     34 H           5.3330   10.9360    3.6738 H       1  LIG1        0.1232
     35 C           1.0911   11.2992    4.4201 C.ar    1  LIG1        0.1813
     36 C           0.9189   11.4270    5.7828 C.ar    1  LIG1        0.2077
     37 C           1.2861   12.7861    6.1217 C.ar    1  LIG1        0.1978
     38 C           1.6586   13.3990    4.9430 C.ar    1  LIG1        0.1377
     39 O           1.5469   12.5025    3.8796 O.2     1  LIG1       -0.4553
     40 H           2.0766   14.5830    4.6065 H       1  LIG1        0.1069
     41 O           0.5090   10.5220    6.6214 O.3     1  LIG1       -0.4884
     42 C          -0.8694   10.7459    6.9291 C.3     1  LIG1        0.0791
     43 H          -1.2064   10.0008    7.6192 H       1  LIG1        0.0660
     44 H          -0.9842   11.7155    7.3670 H       1  LIG1        0.0660
     45 H          -1.4491   10.6891    6.0316 H       1  LIG1        0.0660
     46 O           1.2606   13.3029    7.3143 O.3     1  LIG1       -0.5012
     47 H           0.3504   13.3856    7.6082 H       1  LIG1        0.2924
@<TRIPOS>BOND
     1    18    16    1
     2    17    16    1
     3    16    11    1
     4    21    20    1
     5    20    19    3
     6    19    12    1
     7    11    12   ar
     8    11    10   ar
     9    12    13   ar
    10     5     4   ar
    11     5     1   ar
    12     4    10    1
    13     4     3   ar
    14    10    14   ar
    15     1     6    1
    16     1     2   ar
    17     9     3    1
    18     3     2   ar
    19     2     7    1
    20     7     8    1
    21    13    14   ar
    22    13    24    1
    23    14    15    1
    24    29    27    1
    25    24    27   ar
    26    24    22   ar
    27    27    28   ar
    28    31    30    1
    29    30    22    1
    30    22    23   ar
    31    28    32    1
    32    28    25   ar
    33    32    33    3
    34    23    25   ar
    35    23    26    1
    36    33    34    1
    37    25    35    1
    38    39    35   ar
    39    39    38   ar
    40    35    36   ar
    41    40    38    1
    42    38    37   ar
    43    36    37   ar
    44    36    41    1
    45    45    42    1
    46    37    46    1
    47    41    42    1
    48    42    44    1
    49    42    43    1
    50    46    47    1
