@<TRIPOS>MOLECULE
mol_data/noopt/geoms/mol2/12fa12fa-12fa-12fa-.out
 34 37 0 0 0
SMALL
GASTEIGER

@<TRIPOS>ATOM
      1 C           0.1763    1.8460    0.0000 C.ar    1  LIG1        0.1340
      2 C           1.5558    1.8460    0.0000 C.ar    1  LIG1        0.1551
      3 C           1.9706    3.2334    0.0000 C.ar    1  LIG1        0.0290
      4 C           0.8165    3.9895   -0.0001 C.ar    1  LIG1        0.1770
      5 O          -0.3030    3.1567   -0.0002 O.2     1  LIG1       -0.4560
      6 H          -0.7504    0.9343    0.0000 H       1  LIG1        0.1068
      7 O           2.3515    0.8179    0.0001 O.3     1  LIG1       -0.5036
      8 H           3.2633    1.1184    0.0001 H       1  LIG1        0.2923
      9 H           3.1998    3.6567    0.0000 H       1  LIG1        0.0693
     10 C           0.5416    5.2601   -0.0001 C.ar    1  LIG1        0.2119
     11 C          -0.6119    6.0167   -0.0001 C.ar    1  LIG1        0.1665
     12 C          -0.1979    7.4043   -0.0001 C.ar    1  LIG1        0.0298
     13 C           1.1818    7.4036   -0.0002 C.ar    1  LIG1        0.1780
     14 O           1.6612    6.0932   -0.0003 O.2     1  LIG1       -0.4447
     15 O          -1.8411    5.5933   -0.0000 O.3     1  LIG1       -0.5031
     16 H          -1.8494    4.6334   -0.0000 H       1  LIG1        0.2923
     17 H          -0.9936    8.4323   -0.0001 H       1  LIG1        0.0693
     18 C           2.1085    8.3153   -0.0002 C.ar    1  LIG1        0.2119
     19 C           2.1310    9.6946   -0.0002 C.ar    1  LIG1        0.1665
     20 C           3.5250   10.0867   -0.0001 C.ar    1  LIG1        0.0298
     21 C           4.2622    8.9204   -0.0002 C.ar    1  LIG1        0.1780
     22 O           3.4112    7.8147   -0.0003 O.2     1  LIG1       -0.4447
     23 O           1.1161   10.5070   -0.0001 O.3     1  LIG1       -0.5031
     24 H           0.3004   10.0007   -0.0001 H       1  LIG1        0.2923
     25 H           3.9683   11.3088   -0.0001 H       1  LIG1        0.0693
     26 C           5.5281    8.6248   -0.0002 C.ar    1  LIG1        0.2109
     27 C           6.7057    9.3433   -0.0002 C.ar    1  LIG1        0.1657
     28 C           7.7825    8.3750   -0.0001 C.ar    1  LIG1        0.0185
     29 C           7.1911    7.1285   -0.0002 C.ar    1  LIG1        0.0964
     30 O           5.8017    7.2563   -0.0003 O.2     1  LIG1       -0.4560
     31 H           7.6182    5.9007   -0.0001 H       1  LIG1        0.1031
     32 O           6.8495   10.6354   -0.0001 O.3     1  LIG1       -0.5031
     33 H           5.9855   11.0539   -0.0001 H       1  LIG1        0.2923
     34 H           9.0522    8.6539   -0.0001 H       1  LIG1        0.0686
@<TRIPOS>BOND
     1    22    21   ar
     2    22    18   ar
     3    30    29   ar
     4    30    26   ar
     5    14    13   ar
     6    14    10   ar
     7     5     4   ar
     8     5     1   ar
     9    21    26    1
    10    21    20   ar
    11    29    31    1
    12    29    28   ar
    13    13    18    1
    14    13    12   ar
    15    26    27   ar
    16    19    18   ar
    17    19    20   ar
    18    19    23    1
    19    27    28   ar
    20    27    32    1
    21    11    12   ar
    22    11    10   ar
    23    11    15    1
    24    20    25    1
    25    17    12    1
    26    28    34    1
    27    10     4    1
    28     4     3   ar
    29    23    24    1
    30    32    33    1
    31    15    16    1
    32     9     3    1
    33     6     1    1
    34     3     2   ar
    35     2     1   ar
    36     2     7    1
    37     7     8    1
