@<TRIPOS>MOLECULE
mol_data/noopt/geoms/mol2/12fa12fa12fa12fa.out
 34 37 0 0 0
SMALL
GASTEIGER

@<TRIPOS>ATOM
      1 C           0.1763    1.8460    0.0000 C.ar    1  LIG1        0.1340
      2 C           1.5558    1.8460    0.0000 C.ar    1  LIG1        0.1551
      3 C           1.9706    3.2334    0.0000 C.ar    1  LIG1        0.0290
      4 C           0.8165    3.9895   -0.0001 C.ar    1  LIG1        0.1770
      5 O          -0.3030    3.1567   -0.0002 O.2     1  LIG1       -0.4560
      6 H          -0.7504    0.9343    0.0000 H       1  LIG1        0.1068
      7 O           2.3515    0.8179    0.0001 O.3     1  LIG1       -0.5036
      8 H           3.2633    1.1184    0.0001 H       1  LIG1        0.2923
      9 H           3.1998    3.6567    0.0000 H       1  LIG1        0.0693
     10 C           0.5416    5.2601   -0.0001 C.ar    1  LIG1        0.2119
     11 C           1.2792    6.4258   -0.0001 C.ar    1  LIG1        0.1665
     12 C           0.3286    7.5182   -0.0001 C.ar    1  LIG1        0.0298
     13 C          -0.9274    6.9472   -0.0002 C.ar    1  LIG1        0.1780
     14 O          -0.8223    5.5559   -0.0003 O.2     1  LIG1       -0.4447
     15 O           2.5735    6.5485   -0.0000 O.3     1  LIG1       -0.5031
     16 H           2.8071    7.4796    0.0000 H       1  LIG1        0.2923
     17 H           0.6282    8.7832   -0.0001 H       1  LIG1        0.0693
     18 C          -2.1481    7.3943   -0.0002 C.ar    1  LIG1        0.2119
     19 C          -2.7387    8.6410   -0.0002 C.ar    1  LIG1        0.1665
     20 C          -4.1701    8.4218   -0.0002 C.ar    1  LIG1        0.0298
     21 C          -4.3593    7.0551   -0.0003 C.ar    1  LIG1        0.1780
     22 O          -3.1273    6.4000   -0.0004 O.2     1  LIG1       -0.4447
     23 O          -2.1503    9.8003   -0.0001 O.3     1  LIG1       -0.5031
     24 H          -2.8123   10.4956   -0.0001 H       1  LIG1        0.2923
     25 H          -5.0789    9.3514   -0.0002 H       1  LIG1        0.0693
     26 C          -5.3898    6.2627   -0.0003 C.ar    1  LIG1        0.2109
     27 C          -6.7591    6.4302   -0.0003 C.ar    1  LIG1        0.1657
     28 C          -7.3393    5.1034   -0.0003 C.ar    1  LIG1        0.0185
     29 C          -6.2855    4.2128   -0.0004 C.ar    1  LIG1        0.0964
     30 O          -5.0732    4.9035   -0.0005 O.2     1  LIG1       -0.4560
     31 H          -6.1669    2.9182   -0.0004 H       1  LIG1        0.1031
     32 O          -7.4241    7.5473   -0.0002 O.3     1  LIG1       -0.5031
     33 H          -8.3656    7.3597   -0.0002 H       1  LIG1        0.2923
     34 H          -8.6107    4.8325   -0.0003 H       1  LIG1        0.0686
@<TRIPOS>BOND
     1    30    29   ar
     2    30    26   ar
     3    31    29    1
     4    29    28   ar
     5    22    21   ar
     6    22    18   ar
     7    34    28    1
     8    28    27   ar
     9    27    26   ar
    10    27    32    1
    11    26    21    1
    12    21    20   ar
    13    14    13   ar
    14    14    10   ar
    15    18    19   ar
    16    18    13    1
    17    32    33    1
    18    25    20    1
    19    20    19   ar
    20    19    23    1
    21    13    12   ar
    22     5     4   ar
    23     5     1   ar
    24    17    12    1
    25    12    11   ar
    26    11    10   ar
    27    11    15    1
    28    23    24    1
    29    10     4    1
    30     4     3   ar
    31     2     3   ar
    32     2     1   ar
    33     2     7    1
    34     3     9    1
    35     6     1    1
    36    15    16    1
    37     7     8    1
