@<TRIPOS>MOLECULE
mol_data/noopt/geoms/mol2/12fa12fa-.out
 18 19 0 0 0
SMALL
GASTEIGER

@<TRIPOS>ATOM
      1 C           0.1763    1.8460    0.0000 C.ar    1  LIG1        0.1340
      2 C           1.5558    1.8460    0.0000 C.ar    1  LIG1        0.1551
      3 C           1.9706    3.2334    0.0000 C.ar    1  LIG1        0.0290
      4 C           0.8165    3.9895   -0.0001 C.ar    1  LIG1        0.1769
      5 O          -0.3030    3.1567   -0.0002 O.2     1  LIG1       -0.4560
      6 H          -0.7504    0.9343    0.0000 H       1  LIG1        0.1068
      7 O           2.3515    0.8179    0.0001 O.3     1  LIG1       -0.5036
      8 H           3.2633    1.1184    0.0001 H       1  LIG1        0.2923
      9 H           3.1998    3.6567    0.0000 H       1  LIG1        0.0693
     10 C           0.5416    5.2601   -0.0001 C.ar    1  LIG1        0.2108
     11 C          -0.6119    6.0167   -0.0001 C.ar    1  LIG1        0.1657
     12 C          -0.1979    7.4043   -0.0001 C.ar    1  LIG1        0.0185
     13 C           1.1818    7.4036   -0.0002 C.ar    1  LIG1        0.0964
     14 O           1.6612    6.0932   -0.0003 O.2     1  LIG1       -0.4560
     15 H           2.1085    8.3153   -0.0002 H       1  LIG1        0.1031
     16 O          -1.8411    5.5933   -0.0000 O.3     1  LIG1       -0.5031
     17 H          -1.8494    4.6334   -0.0000 H       1  LIG1        0.2923
     18 H          -0.9936    8.4323   -0.0001 H       1  LIG1        0.0686
@<TRIPOS>BOND
     1    14    13   ar
     2    14    10   ar
     3     5     4   ar
     4     5     1   ar
     5    13    15    1
     6    13    12   ar
     7    11    12   ar
     8    11    10   ar
     9    11    16    1
    10    18    12    1
    11    10     4    1
    12     4     3   ar
    13    16    17    1
    14     9     3    1
    15     1     6    1
    16     1     2   ar
    17     3     2   ar
    18     2     7    1
    19     7     8    1
