@<TRIPOS>MOLECULE
mol_data/noopt/geoms/mol2/12fa12fa-12fa.out
 26 28 0 0 0
SMALL
GASTEIGER

@<TRIPOS>ATOM
      1 C           0.1763    1.8460    0.0000 C.ar    1  LIG1        0.1340
      2 C           1.5558    1.8460    0.0000 C.ar    1  LIG1        0.1551
      3 C           1.9706    3.2334    0.0000 C.ar    1  LIG1        0.0290
      4 C           0.8165    3.9895   -0.0001 C.ar    1  LIG1        0.1770
      5 O          -0.3030    3.1567   -0.0002 O.2     1  LIG1       -0.4560
      6 H          -0.7504    0.9343    0.0000 H       1  LIG1        0.1068
      7 O           2.3515    0.8179    0.0001 O.3     1  LIG1       -0.5036
      8 H           3.2633    1.1184    0.0001 H       1  LIG1        0.2923
      9 H           3.1998    3.6567    0.0000 H       1  LIG1        0.0693
     10 C           0.5416    5.2601   -0.0001 C.ar    1  LIG1        0.2119
     11 C          -0.6119    6.0167   -0.0001 C.ar    1  LIG1        0.1665
     12 C          -0.1979    7.4043   -0.0001 C.ar    1  LIG1        0.0298
     13 C           1.1818    7.4036   -0.0002 C.ar    1  LIG1        0.1780
     14 O           1.6612    6.0932   -0.0003 O.2     1  LIG1       -0.4447
     15 O          -1.8411    5.5933   -0.0000 O.3     1  LIG1       -0.5031
     16 H          -1.8494    4.6334   -0.0000 H       1  LIG1        0.2923
     17 H          -0.9936    8.4323   -0.0001 H       1  LIG1        0.0693
     18 C           2.1085    8.3153   -0.0002 C.ar    1  LIG1        0.2109
     19 C           3.4880    8.3153   -0.0001 C.ar    1  LIG1        0.1657
     20 C           3.9028    9.7027   -0.0001 C.ar    1  LIG1        0.0185
     21 C           2.7487   10.4588   -0.0002 C.ar    1  LIG1        0.0964
     22 O           1.6292    9.6260   -0.0003 O.2     1  LIG1       -0.4560
     23 H           2.4738   11.7294   -0.0002 H       1  LIG1        0.1031
     24 O           4.2837    7.2872   -0.0000 O.3     1  LIG1       -0.5031
     25 H           5.1955    7.5877   -0.0000 H       1  LIG1        0.2923
     26 H           5.1320   10.1260   -0.0001 H       1  LIG1        0.0686
@<TRIPOS>BOND
     1    22    21   ar
     2    22    18   ar
     3    14    13   ar
     4    14    10   ar
     5    21    23    1
     6    21    20   ar
     7     5     4   ar
     8     5     1   ar
     9    13    18    1
    10    13    12   ar
    11    18    19   ar
    12    19    20   ar
    13    19    24    1
    14    11    12   ar
    15    11    10   ar
    16    11    15    1
    17    17    12    1
    18    20    26    1
    19     4    10    1
    20     4     3   ar
    21    15    16    1
    22    24    25    1
    23     9     3    1
    24     6     1    1
    25     3     2   ar
    26     2     1   ar
    27     2     7    1
    28     7     8    1
