@<TRIPOS>MOLECULE
mol_data/noopt/geoms/mol2/12fa12fa-12fa12fa-.out
 34 37 0 0 0
SMALL
GASTEIGER

@<TRIPOS>ATOM
      1 C           0.1763    1.8460    0.0000 C.ar    1  LIG1        0.1340
      2 C           1.5558    1.8460    0.0000 C.ar    1  LIG1        0.1551
      3 C           1.9706    3.2334    0.0000 C.ar    1  LIG1        0.0290
      4 C           0.8165    3.9895   -0.0001 C.ar    1  LIG1        0.1770
      5 O          -0.3030    3.1567   -0.0002 O.2     1  LIG1       -0.4560
      6 H          -0.7504    0.9343    0.0000 H       1  LIG1        0.1068
      7 O           2.3515    0.8179    0.0001 O.3     1  LIG1       -0.5036
      8 H           3.2633    1.1184    0.0001 H       1  LIG1        0.2923
      9 H           3.1998    3.6567    0.0000 H       1  LIG1        0.0693
     10 C           0.5416    5.2601   -0.0001 C.ar    1  LIG1        0.2119
     11 C          -0.6119    6.0167   -0.0001 C.ar    1  LIG1        0.1665
     12 C          -0.1979    7.4043   -0.0001 C.ar    1  LIG1        0.0298
     13 C           1.1818    7.4036   -0.0002 C.ar    1  LIG1        0.1780
     14 O           1.6612    6.0932   -0.0003 O.2     1  LIG1       -0.4447
     15 O          -1.8411    5.5933   -0.0000 O.3     1  LIG1       -0.5031
     16 H          -1.8494    4.6334   -0.0000 H       1  LIG1        0.2923
     17 H          -0.9936    8.4323   -0.0001 H       1  LIG1        0.0693
     18 C           2.1085    8.3153   -0.0002 C.ar    1  LIG1        0.2119
     19 C           3.4880    8.3153   -0.0001 C.ar    1  LIG1        0.1665
     20 C           3.9028    9.7027   -0.0001 C.ar    1  LIG1        0.0298
     21 C           2.7487   10.4588   -0.0002 C.ar    1  LIG1        0.1780
     22 O           1.6292    9.6260   -0.0003 O.2     1  LIG1       -0.4447
     23 O           4.2837    7.2872   -0.0000 O.3     1  LIG1       -0.5031
     24 H           5.1955    7.5877   -0.0000 H       1  LIG1        0.2923
     25 H           5.1320   10.1260   -0.0001 H       1  LIG1        0.0693
     26 C           2.4738   11.7294   -0.0002 C.ar    1  LIG1        0.2109
     27 C           1.3203   12.4859   -0.0002 C.ar    1  LIG1        0.1657
     28 C           1.7343   13.8736   -0.0002 C.ar    1  LIG1        0.0185
     29 C           3.1141   13.8729   -0.0003 C.ar    1  LIG1        0.0964
     30 O           3.5935   12.5625   -0.0004 O.2     1  LIG1       -0.4560
     31 H           4.0408   14.7846   -0.0002 H       1  LIG1        0.1031
     32 O           0.0911   12.0626   -0.0001 O.3     1  LIG1       -0.5031
     33 H           0.0828   11.1027   -0.0001 H       1  LIG1        0.2923
     34 H           0.9387   14.9016   -0.0002 H       1  LIG1        0.0686
@<TRIPOS>BOND
     1    30    29   ar
     2    30    26   ar
     3    22    21   ar
     4    22    18   ar
     5    14    13   ar
     6    14    10   ar
     7    29    31    1
     8    29    28   ar
     9    21    26    1
    10    21    20   ar
    11    27    26   ar
    12    27    28   ar
    13    27    32    1
    14     5     4   ar
    15     5     1   ar
    16    34    28    1
    17    13    18    1
    18    13    12   ar
    19    18    19   ar
    20    32    33    1
    21    19    20   ar
    22    19    23    1
    23    11    12   ar
    24    11    10   ar
    25    11    15    1
    26    17    12    1
    27    20    25    1
    28    10     4    1
    29     4     3   ar
    30    15    16    1
    31    23    24    1
    32     6     1    1
    33     3     9    1
    34     3     2   ar
    35     1     2   ar
    36     2     7    1
    37     7     8    1
