@<TRIPOS>MOLECULE
mol_data/noopt/geoms/mol2/12fa13id13he-13fi-.out
 46 49 0 0 0
SMALL
GASTEIGER

@<TRIPOS>ATOM
      1 C           0.1763    1.8460    0.0000 C.ar    1  LIG1        0.1339
      2 C           1.5558    1.8460    0.0000 C.ar    1  LIG1        0.1551
      3 C           1.9706    3.2334    0.0000 C.ar    1  LIG1        0.0272
      4 C           0.8165    3.9895   -0.0001 C.ar    1  LIG1        0.1548
      5 O          -0.3030    3.1567   -0.0002 O.2     1  LIG1       -0.4577
      6 H          -0.7504    0.9343    0.0000 H       1  LIG1        0.1068
      7 O           2.3515    0.8179    0.0001 O.3     1  LIG1       -0.5036
      8 H           3.2633    1.1184    0.0001 H       1  LIG1        0.2923
      9 H           3.1998    3.6567    0.0000 H       1  LIG1        0.0693
     10 C           0.5416    5.2601   -0.0001 C.ar    1  LIG1        0.0869
     11 C           1.3660    6.3408    0.0161 C.ar    1  LIG1       -0.0041
     12 C           0.5390    7.5098    0.0084 C.ar    1  LIG1        0.0820
     13 C          -0.7545    7.0921   -0.0139 C.ar    1  LIG1        0.0831
     14 N          -0.7574    5.7154   -0.0188 N.ar    1  LIG1       -0.3493
     15 H          -1.5687    5.1413   -0.0340 H       1  LIG1        0.1661
     16 C           2.6659    6.3141    0.0365 C.3     1  LIG1       -0.0364
     17 H           3.0326    7.1803    0.5465 H       1  LIG1        0.0279
     18 H           3.0383    6.3064   -0.9666 H       1  LIG1        0.0279
     19 H           2.9965    5.4334    0.5464 H       1  LIG1        0.0279
     20 N           1.3053    9.8332    0.0305 N.1     1  LIG1       -0.1908
     21 C           0.9462    8.7444    0.0202 C.1     1  LIG1        0.1016
     22 C          -1.8611    7.7741   -0.0284 C.ar    1  LIG1        0.0868
     23 C          -2.0693    9.1175   -0.0220 C.ar    1  LIG1        0.0679
     24 C          -3.4851    9.3309   -0.0444 C.ar    1  LIG1        0.0727
     25 C          -4.0798    8.1086   -0.0653 C.ar    1  LIG1        0.0844
     26 N          -3.0892    7.1527   -0.0551 N.ar    1  LIG1       -0.3493
     27 H          -3.2372    6.1698   -0.0660 H       1  LIG1        0.1661
     28 N          -1.1498   10.0362    0.0017 N.pl3   1  LIG1       -0.3553
     29 H          -0.3309    9.7002   -0.4635 H       1  LIG1        0.1424
     30 H          -1.4850   10.8554   -0.4636 H       1  LIG1        0.1424
     31 C          -4.0933   10.4799   -0.0452 C.1     1  LIG1       -0.0656
     32 C          -4.6552   11.5415   -0.0460 C.1     1  LIG1       -0.1138
     33 H          -5.1558   12.4872   -0.0466 H       1  LIG1        0.1232
     34 C          -5.3382    7.7831   -0.0899 C.ar    1  LIG1        0.1064
     35 C          -6.4509    8.5637   -0.1069 C.ar    1  LIG1        0.1463
     36 C          -7.5856    7.6905   -0.1305 C.ar    1  LIG1        0.0090
     37 C          -7.1163    6.4146   -0.1286 C.ar    1  LIG1        0.0087
     38 N          -5.7409    6.4667   -0.1033 N.ar    1  LIG1       -0.3563
     39 H          -5.1348    5.6789   -0.0965 H       1  LIG1        0.1655
     40 H          -7.7533    5.2815   -0.1450 H       1  LIG1        0.0811
     41 O          -6.4764    9.8635   -0.1011 O.3     1  LIG1       -0.5043
     42 H          -7.3874   10.1661   -0.0997 H       1  LIG1        0.2922
     43 C          -8.8356    8.0481   -0.1505 C.3     1  LIG1       -0.0348
     44 H          -9.4263    7.3084    0.3484 H       1  LIG1        0.0279
     45 H          -9.1636    8.1418   -1.1647 H       1  LIG1        0.0279
     46 H          -8.9457    8.9883    0.3483 H       1  LIG1        0.0279
@<TRIPOS>BOND
     1    45    43    1
     2    18    16    1
     3    30    28    1
     4    29    28    1
     5    43    36    1
     6    43    46    1
     7    43    44    1
     8    40    37    1
     9    36    37   ar
    10    36    35   ar
    11    37    38   ar
    12    35    41    1
    13    35    34   ar
    14    38    39    1
    15    38    34   ar
    16    41    42    1
    17    34    25    1
    18    27    26    1
    19    25    26   ar
    20    25    24   ar
    21    26    22   ar
    22    33    32    1
    23    32    31    3
    24    31    24    1
    25    24    23   ar
    26    15    14    1
    27    22    23   ar
    28    22    13    1
    29    23    28    1
    30    14    13   ar
    31    14    10   ar
    32    13    12   ar
    33     5     4   ar
    34     5     1   ar
    35    10     4    1
    36    10    11   ar
    37     4     3   ar
    38     1     6    1
    39     1     2   ar
    40     9     3    1
    41     3     2   ar
    42     2     7    1
    43     7     8    1
    44    12    11   ar
    45    12    21    1
    46    11    16    1
    47    21    20    3
    48    16    19    1
    49    16    17    1
