@<TRIPOS>MOLECULE
mol_data/noopt/geoms/mol2/12fa13ee-12hh6fh12ii6fl4ea4di-.out
 98 103 0 0 0
SMALL
GASTEIGER

@<TRIPOS>ATOM
      1 C           0.1763    1.8460    0.0000 C.ar    1  LIG1        0.1339
      2 C           1.5558    1.8460    0.0000 C.ar    1  LIG1        0.1551
      3 C           1.9706    3.2334    0.0000 C.ar    1  LIG1        0.0273
      4 C           0.8165    3.9895   -0.0001 C.ar    1  LIG1        0.1557
      5 O          -0.3030    3.1567   -0.0002 O.2     1  LIG1       -0.4577
      6 H          -0.7504    0.9343    0.0000 H       1  LIG1        0.1068
      7 O           2.3515    0.8179    0.0001 O.3     1  LIG1       -0.5036
      8 H           3.2633    1.1184    0.0001 H       1  LIG1        0.2923
      9 H           3.1998    3.6567    0.0000 H       1  LIG1        0.0693
     10 C           0.5416    5.2601   -0.0001 C.ar    1  LIG1        0.0994
     11 C           1.3662    6.3409   -0.0005 C.ar    1  LIG1        0.0689
     12 C           0.5391    7.5098    0.0008 C.ar    1  LIG1        0.0660
     13 C          -0.7546    7.0920    0.0002 C.ar    1  LIG1        0.0663
     14 N          -0.7576    5.7154    0.0001 N.ar    1  LIG1       -0.3497
     15 H          -1.5690    5.1412   -0.0005 H       1  LIG1        0.1661
     16 C           2.6659    6.3141   -0.0004 C.1     1  LIG1       -0.0662
     17 C           3.8668    6.2894   -0.0003 C.1     1  LIG1       -0.1138
     18 H           4.9366    6.2674   -0.0002 H       1  LIG1        0.1232
     19 C           0.9463    8.7444    0.0020 C.1     1  LIG1       -0.0663
     20 C           1.3227    9.8851    0.0030 C.1     1  LIG1       -0.1138
     21 H           1.6579   10.9013    0.0040 H       1  LIG1        0.1232
     22 C          -1.8613    7.7741    0.0007 C.2     1  LIG1        0.0330
     23 C          -2.1909    9.1136    0.0012 C.2     1  LIG1        0.0592
     24 C          -3.6372    9.1849    0.0017 C.2     1  LIG1        0.0942
     25 C          -4.0957    7.8835    0.0015 C.2     1  LIG1        0.2135
     26 O          -3.0195    6.9955    0.0008 O.2     1  LIG1       -0.2851
     27 N          -1.3827   10.1319    0.0012 N.pl3   1  LIG1       -0.3559
     28 H          -0.5360    9.8854   -0.4702 H       1  LIG1        0.1424
     29 H          -1.8150   10.9005   -0.4702 H       1  LIG1        0.1424
     30 N          -4.3420   10.2773    0.0022 N.pl3   1  LIG1       -0.3536
     31 H          -3.8366   11.0002   -0.4691 H       1  LIG1        0.1425
     32 H          -5.2088   10.1150   -0.4691 H       1  LIG1        0.1425
     33 C          -5.3700    5.9101    0.0021 C.ar    1  LIG1        0.2241
     34 C          -5.2638    7.3130    0.0018 C.ar    1  LIG1        0.0866
     35 C          -6.4365    8.0704    0.0021 C.ar    1  LIG1       -0.0229
     36 C          -7.6648    7.4072    0.0025 C.ar    1  LIG1        0.0518
     37 C          -7.6683    6.0002    0.0026 C.ar    1  LIG1        0.0963
     38 N          -6.5465    5.2539    0.0025 N.ar    1  LIG1       -0.2105
     39 H          -6.3932    9.1688    0.0008 H       1  LIG1        0.0645
     40 O          -4.3067    5.1621    0.0019 O.3     1  LIG1       -0.4919
     41 H          -3.5240    5.7179    0.0018 H       1  LIG1        0.2938
     42 N          -8.7849    8.0670    0.0026 N.pl3   1  LIG1       -0.3563
     43 H          -8.6577    8.9398   -0.4687 H       1  LIG1        0.1424
     44 H          -9.4866    7.5328   -0.4688 H       1  LIG1        0.1424
     45 C          -8.7866    5.3375    0.0031 C.2     1  LIG1        0.0150
     46 C         -10.1258    5.6683    0.0183 C.2     1  LIG1       -0.0340
     47 C         -10.8613    4.4210    0.0081 C.2     1  LIG1        0.0005
     48 C          -9.9224    3.4102   -0.0128 C.2     1  LIG1        0.1944
     49 O          -8.6358    3.9502   -0.0163 O.2     1  LIG1       -0.2868
     50 C         -10.6516    6.8574    0.0380 C.3     1  LIG1       -0.0387
     51 H         -11.5918    6.8232    0.5478 H       1  LIG1        0.0278
     52 H         -10.8021    7.1976   -0.9653 H       1  LIG1        0.0278
     53 H          -9.9937    7.5298    0.5478 H       1  LIG1        0.0278
     54 C         -12.1564    4.3049    0.0171 C.3     1  LIG1       -0.0358
     55 H         -12.4302    3.4032    0.5240 H       1  LIG1        0.0279
     56 H         -12.5186    4.2723   -0.9893 H       1  LIG1        0.0279
     57 H         -12.5862    5.1435    0.5239 H       1  LIG1        0.0279
     58 C          -8.7678    1.3646   -0.0382 C.ar    1  LIG1        0.2242
     59 C          -9.9604    2.1109   -0.0293 C.ar    1  LIG1        0.0867
     60 C         -11.1763    1.4248   -0.0383 C.ar    1  LIG1       -0.0019
     61 C         -11.1602    0.0291   -0.0559 C.ar    1  LIG1        0.1469
     62 C          -9.9161   -0.6280   -0.0639 C.ar    1  LIG1        0.1175
     63 N          -8.7338    0.0180   -0.0552 N.ar    1  LIG1       -0.2087
     64 H         -12.1285    1.9739   -0.0328 H       1  LIG1        0.0663
     65 O          -7.6112    1.9581   -0.0302 O.3     1  LIG1       -0.4919
     66 H          -7.7392    2.9095   -0.0283 H       1  LIG1        0.2938
     67 O         -12.2652   -0.6557   -0.0651 O.3     1  LIG1       -0.4929
     68 C         -13.3810    0.2387   -0.0685 C.3     1  LIG1        0.0789
     69 H         -14.2902   -0.3253   -0.0762 H       1  LIG1        0.0660
     70 H         -13.3491    0.8521    0.8077 H       1  LIG1        0.0660
     71 H         -13.3385    0.8587   -0.9395 H       1  LIG1        0.0660
     72 C         -11.0341   -2.6905   -0.0882 C.ar    1  LIG1        0.0345
     73 C         -10.9082   -4.0930   -0.1043 C.ar    1  LIG1       -0.0379
     74 C          -9.8494   -1.9262   -0.0801 C.ar    1  LIG1        0.0195
     75 C          -9.6591   -4.7095   -0.1127 C.ar    1  LIG1       -0.0155
     76 H         -11.8096   -4.7018   -0.1105 H       1  LIG1        0.0636
     77 C          -8.6020   -2.5411   -0.0885 C.ar    1  LIG1       -0.0507
     78 C          -8.4977   -3.9359   -0.1049 C.ar    1  LIG1       -0.0533
     79 H          -7.7031   -1.9299   -0.0820 H       1  LIG1        0.0625
     80 C         -12.2268   -2.1733   -0.0813 C.1     1  LIG1       -0.0690
     81 C         -13.3288   -1.6954   -0.0749 C.1     1  LIG1       -0.1139
     82 H         -14.3105   -1.2697   -0.0692 H       1  LIG1        0.1232
     83 H          -7.3290   -4.5051   -0.1125 H       1  LIG1        0.0624
     84 C         -10.7567   -6.7829   -0.1137 C.ar    1  LIG1        0.0595
     85 C         -10.6173   -8.1842   -0.1293 C.ar    1  LIG1       -0.0435
     86 C          -9.5797   -6.0069   -0.1277 C.ar    1  LIG1       -0.0002
     87 C          -9.3624   -8.7883   -0.1582 C.ar    1  LIG1       -0.0576
     88 H         -11.5126   -8.8019   -0.1187 H       1  LIG1        0.0631
     89 C          -8.3266   -6.6095   -0.1565 C.ar    1  LIG1       -0.0499
     90 C          -8.2088   -8.0032   -0.1721 C.ar    1  LIG1       -0.0498
     91 H          -7.4339   -5.9894   -0.1668 H       1  LIG1        0.0627
     92 H          -9.2704  -10.0850   -0.1721 H       1  LIG1        0.0621
     93 N         -13.0103   -5.8318   -0.0635 N.1     1  LIG1       -0.1909
     94 C         -11.9542   -6.2776   -0.0870 C.1     1  LIG1        0.0998
     95 C          -7.0345   -8.5610   -0.1989 C.3     1  LIG1       -0.0397
     96 H          -6.3282   -7.9294    0.2980 H       1  LIG1        0.0278
     97 H          -6.7312   -8.7051   -1.2149 H       1  LIG1        0.0278
     98 H          -7.0780   -9.5077    0.2980 H       1  LIG1        0.0278
@<TRIPOS>BOND
     1    97    95    1
     2    56    54    1
     3    52    50    1
     4    71    68    1
     5    29    27    1
     6    28    27    1
     7    32    30    1
     8    31    30    1
     9    44    42    1
    10    43    42    1
    11    95    90    1
    12    95    98    1
    13    95    96    1
    14    92    87    1
    15    90    87   ar
    16    90    89   ar
    17    91    89    1
    18    87    85   ar
    19    89    86   ar
    20    85    88    1
    21    85    84   ar
    22    86    84   ar
    23    86    75    1
    24    84    94    1
    25    75    78   ar
    26    75    73   ar
    27    83    78    1
    28    76    73    1
    29    78    77   ar
    30    73    72   ar
    31    77    79    1
    32    77    74   ar
    33    72    80    1
    34    72    74   ar
    35    94    93    3
    36    80    81    3
    37    74    62    1
    38    69    68    1
    39    81    82    1
    40    68    67    1
    41    68    70    1
    42    67    61    1
    43    62    61   ar
    44    62    63   ar
    45    61    60   ar
    46    63    58   ar
    47    60    64    1
    48    60    59   ar
    49    58    65    1
    50    58    59   ar
    51    65    66    1
    52    59    48    1
    53    49    48    1
    54    48    47    2
    55    15    14    1
    56    11    16    1
    57    11    10   ar
    58    11    12   ar
    59    16    17    3
    60    17    18    1
    61     5     4   ar
    62     5     1   ar
    63    10     4    1
    64    10    14   ar
    65     4     3   ar
    66     3     2   ar
    67     3     9    1
    68     2     1   ar
    69     2     7    1
    70     6     1    1
    71    14    13   ar
    72     7     8    1
    73    13    22    1
    74    13    12   ar
    75    22    23    2
    76    26    25    1
    77    12    19    1
    78    39    35    1
    79    23    27    1
    80    23    24    1
    81    25    24    2
    82    25    34    1
    83    24    30    1
    84    34    33   ar
    85    34    35   ar
    86    41    40    1
    87    40    33    1
    88    19    20    3
    89    33    38   ar
    90    35    36   ar
    91    38    37   ar
    92    36    37   ar
    93    36    42    1
    94    37    45    1
    95    20    21    1
    96    45    46    2
    97    47    54    1
    98    47    46    1
    99    54    57    1
   100    54    55    1
   101    46    50    1
   102    50    53    1
   103    50    51    1
