@<TRIPOS>MOLECULE
mol_data/noopt/geoms/mol2/12fa12fa12fa-12fa-.out
 34 37 0 0 0
SMALL
GASTEIGER

@<TRIPOS>ATOM
      1 C           0.1763    1.8460    0.0000 C.ar    1  LIG1        0.1340
      2 C           1.5558    1.8460    0.0000 C.ar    1  LIG1        0.1551
      3 C           1.9706    3.2334    0.0000 C.ar    1  LIG1        0.0290
      4 C           0.8165    3.9895   -0.0001 C.ar    1  LIG1        0.1770
      5 O          -0.3030    3.1567   -0.0002 O.2     1  LIG1       -0.4560
      6 H          -0.7504    0.9343    0.0000 H       1  LIG1        0.1068
      7 O           2.3515    0.8179    0.0001 O.3     1  LIG1       -0.5036
      8 H           3.2633    1.1184    0.0001 H       1  LIG1        0.2923
      9 H           3.1998    3.6567    0.0000 H       1  LIG1        0.0693
     10 C           0.5416    5.2601   -0.0001 C.ar    1  LIG1        0.2119
     11 C           1.2792    6.4258   -0.0001 C.ar    1  LIG1        0.1665
     12 C           0.3286    7.5182   -0.0001 C.ar    1  LIG1        0.0298
     13 C          -0.9274    6.9472   -0.0002 C.ar    1  LIG1        0.1780
     14 O          -0.8223    5.5559   -0.0003 O.2     1  LIG1       -0.4447
     15 O           2.5735    6.5485   -0.0000 O.3     1  LIG1       -0.5031
     16 H           2.8071    7.4796    0.0000 H       1  LIG1        0.2923
     17 H           0.6282    8.7832   -0.0001 H       1  LIG1        0.0693
     18 C          -2.1481    7.3943   -0.0002 C.ar    1  LIG1        0.2119
     19 C          -3.4042    6.8241   -0.0002 C.ar    1  LIG1        0.1665
     20 C          -4.3554    7.9160   -0.0002 C.ar    1  LIG1        0.0298
     21 C          -3.6171    9.0815   -0.0003 C.ar    1  LIG1        0.1780
     22 O          -2.2534    8.7859   -0.0004 O.2     1  LIG1       -0.4447
     23 O          -3.7038    5.5591   -0.0001 O.3     1  LIG1       -0.5031
     24 H          -2.8970    5.0387   -0.0001 H       1  LIG1        0.2923
     25 H          -5.6496    7.7933   -0.0002 H       1  LIG1        0.0693
     26 C          -3.8920   10.3521   -0.0003 C.ar    1  LIG1        0.2109
     27 C          -5.0455   11.1087   -0.0003 C.ar    1  LIG1        0.1657
     28 C          -4.6315   12.4963   -0.0002 C.ar    1  LIG1        0.0185
     29 C          -3.2517   12.4956   -0.0003 C.ar    1  LIG1        0.0964
     30 O          -2.7723   11.1852   -0.0004 O.2     1  LIG1       -0.4560
     31 H          -2.3250   13.4073   -0.0003 H       1  LIG1        0.1031
     32 O          -6.2747   10.6854   -0.0002 O.3     1  LIG1       -0.5031
     33 H          -6.2830    9.7254   -0.0002 H       1  LIG1        0.2923
     34 H          -5.4271   13.5243   -0.0002 H       1  LIG1        0.0686
@<TRIPOS>BOND
     1    30    29   ar
     2    30    26   ar
     3    22    21   ar
     4    22    18   ar
     5    14    13   ar
     6    14    10   ar
     7    29    31    1
     8    29    28   ar
     9    21    26    1
    10    21    20   ar
    11    27    26   ar
    12    27    28   ar
    13    27    32    1
    14    19    20   ar
    15    19    18   ar
    16    19    23    1
    17    28    34    1
    18    25    20    1
    19    18    13    1
    20    13    12   ar
    21     5     4   ar
    22     5     1   ar
    23    32    33    1
    24    23    24    1
    25    17    12    1
    26    12    11   ar
    27    11    10   ar
    28    11    15    1
    29    10     4    1
    30     4     3   ar
    31     9     3    1
    32     2     3   ar
    33     2     1   ar
    34     2     7    1
    35     6     1    1
    36    15    16    1
    37     7     8    1
