@<TRIPOS>MOLECULE
mol_data/noopt/geoms/mol2/12fa12fa12fa.out
 26 28 0 0 0
SMALL
GASTEIGER

@<TRIPOS>ATOM
      1 C           0.1763    1.8460    0.0000 C.ar    1  LIG1        0.1340
      2 C           1.5558    1.8460    0.0000 C.ar    1  LIG1        0.1551
      3 C           1.9706    3.2334    0.0000 C.ar    1  LIG1        0.0290
      4 C           0.8165    3.9895   -0.0001 C.ar    1  LIG1        0.1770
      5 O          -0.3030    3.1567   -0.0002 O.2     1  LIG1       -0.4560
      6 H          -0.7504    0.9343    0.0000 H       1  LIG1        0.1068
      7 O           2.3515    0.8179    0.0001 O.3     1  LIG1       -0.5036
      8 H           3.2633    1.1184    0.0001 H       1  LIG1        0.2923
      9 H           3.1998    3.6567    0.0000 H       1  LIG1        0.0693
     10 C           0.5416    5.2601   -0.0001 C.ar    1  LIG1        0.2119
     11 C           1.2792    6.4258   -0.0001 C.ar    1  LIG1        0.1665
     12 C           0.3286    7.5182   -0.0001 C.ar    1  LIG1        0.0298
     13 C          -0.9274    6.9472   -0.0002 C.ar    1  LIG1        0.1780
     14 O          -0.8223    5.5559   -0.0003 O.2     1  LIG1       -0.4447
     15 O           2.5735    6.5485   -0.0000 O.3     1  LIG1       -0.5031
     16 H           2.8071    7.4796    0.0000 H       1  LIG1        0.2923
     17 H           0.6282    8.7832   -0.0001 H       1  LIG1        0.0693
     18 C          -2.1481    7.3943   -0.0002 C.ar    1  LIG1        0.2109
     19 C          -2.7387    8.6410   -0.0002 C.ar    1  LIG1        0.1657
     20 C          -4.1701    8.4218   -0.0002 C.ar    1  LIG1        0.0185
     21 C          -4.3593    7.0551   -0.0003 C.ar    1  LIG1        0.0964
     22 O          -3.1273    6.4000   -0.0004 O.2     1  LIG1       -0.4560
     23 H          -5.3898    6.2627   -0.0003 H       1  LIG1        0.1031
     24 O          -2.1503    9.8003   -0.0001 O.3     1  LIG1       -0.5031
     25 H          -2.8123   10.4956   -0.0001 H       1  LIG1        0.2923
     26 H          -5.0789    9.3514   -0.0002 H       1  LIG1        0.0686
@<TRIPOS>BOND
     1    22    21   ar
     2    22    18   ar
     3    23    21    1
     4    21    20   ar
     5    14    13   ar
     6    14    10   ar
     7    26    20    1
     8    20    19   ar
     9    19    18   ar
    10    19    24    1
    11    18    13    1
    12    13    12   ar
    13     5     4   ar
    14     5     1   ar
    15    11    12   ar
    16    11    10   ar
    17    11    15    1
    18    12    17    1
    19    10     4    1
    20    24    25    1
    21     4     3   ar
    22     1     2   ar
    23     1     6    1
    24     2     3   ar
    25     2     7    1
    26     3     9    1
    27    15    16    1
    28     7     8    1
