@<TRIPOS>MOLECULE
mol_data/noopt/geoms/mol2/12fa12ae4ah-4dh-.out
 44 47 0 0 0
SMALL
GASTEIGER

@<TRIPOS>ATOM
      1 C           0.1763    1.8460    0.0000 C.ar    1  LIG1        0.1340
      2 C           1.5558    1.8460    0.0000 C.ar    1  LIG1        0.1551
      3 C           1.9706    3.2334    0.0000 C.ar    1  LIG1        0.0288
      4 C           0.8165    3.9895   -0.0001 C.ar    1  LIG1        0.1734
      5 O          -0.3030    3.1567   -0.0002 O.2     1  LIG1       -0.4561
      6 H          -0.7504    0.9343    0.0000 H       1  LIG1        0.1068
      7 O           2.3515    0.8179    0.0001 O.3     1  LIG1       -0.5036
      8 H           3.2633    1.1184    0.0001 H       1  LIG1        0.2923
      9 H           3.1998    3.6567    0.0000 H       1  LIG1        0.0693
     10 C           0.5416    5.2601   -0.0001 C.ar    1  LIG1        0.1719
     11 C           1.2791    6.4258    0.0147 C.ar    1  LIG1        0.0033
     12 C           0.3286    7.5182    0.0040 C.ar    1  LIG1        0.0711
     13 C          -0.9273    6.9473   -0.0167 C.ar    1  LIG1        0.1512
     14 O          -0.8221    5.5559   -0.0197 O.2     1  LIG1       -0.4505
     15 H           2.5732    6.5484    0.0345 H       1  LIG1        0.0669
     16 C           0.6281    8.7832    0.0126 C.1     1  LIG1       -0.0658
     17 C           0.9048    9.9521    0.0205 C.1     1  LIG1       -0.1138
     18 H           1.1513   10.9932    0.0276 H       1  LIG1        0.1232
     19 C          -2.3872    8.7837   -0.0205 C.ar    1  LIG1       -0.0504
     20 C          -3.7269    9.2174   -0.0381 C.ar    1  LIG1       -0.0516
     21 C          -2.1478    7.3944   -0.0335 C.ar    1  LIG1        0.0203
     22 C          -4.7832    8.3097   -0.0679 C.ar    1  LIG1        0.0041
     23 H          -3.9341   10.2852   -0.0283 H       1  LIG1        0.0624
     24 C          -3.2019    6.4877   -0.0633 C.ar    1  LIG1       -0.0298
     25 C          -4.5260    6.9382   -0.0808 C.ar    1  LIG1        0.0331
     26 H          -2.9914    5.4213   -0.0727 H       1  LIG1        0.0643
     27 H          -1.4444    9.6784    0.0070 H       1  LIG1        0.0625
     28 N          -5.5074    6.0860   -0.1085 N.pl3   1  LIG1       -0.3575
     29 H          -6.2868    6.4906   -0.5869 H       1  LIG1        0.1423
     30 H          -5.2161    5.2576   -0.5870 H       1  LIG1        0.1423
     31 C          -6.2609   10.1319   -0.0701 C.ar    1  LIG1        0.0596
     32 C          -7.6048   10.5525   -0.0865 C.ar    1  LIG1       -0.0420
     33 C          -6.0080    8.7449   -0.0837 C.ar    1  LIG1        0.0030
     34 C          -8.6522    9.6345   -0.1158 C.ar    1  LIG1       -0.0398
     35 H          -7.8223   11.6182   -0.0762 H       1  LIG1        0.0631
     36 C          -7.0533    7.8281   -0.1129 C.ar    1  LIG1       -0.0320
     37 C          -8.3817    8.2656   -0.1293 C.ar    1  LIG1        0.0252
     38 H          -6.8325    6.7637   -0.1228 H       1  LIG1        0.0642
     39 H          -9.8813   10.0579   -0.1304 H       1  LIG1        0.0636
     40 N          -4.5030   11.8328   -0.0193 N.1     1  LIG1       -0.1909
     41 C          -5.3268   11.0356   -0.0431 C.1     1  LIG1        0.0998
     42 N          -9.3548    7.4039   -0.1565 N.pl3   1  LIG1       -0.3579
     43 H         -10.1382    7.8008   -0.6347 H       1  LIG1        0.1423
     44 H          -9.0556    6.5783   -0.6348 H       1  LIG1        0.1423
@<TRIPOS>BOND
     1    44    42    1
     2    43    42    1
     3    30    28    1
     4    29    28    1
     5    42    37    1
     6    39    34    1
     7    37    34   ar
     8    37    36   ar
     9    38    36    1
    10    34    32   ar
    11    36    33   ar
    12    28    25    1
    13    32    35    1
    14    32    31   ar
    15    33    31   ar
    16    33    22    1
    17    25    22   ar
    18    25    24   ar
    19    26    24    1
    20    31    41    1
    21    22    20   ar
    22    24    21   ar
    23    41    40    3
    24    20    23    1
    25    20    19   ar
    26    21    19   ar
    27    21    13    1
    28    19    27    1
    29    14    13   ar
    30    14    10   ar
    31    13    12   ar
    32     5     4   ar
    33     5     1   ar
    34     4    10    1
    35     4     3   ar
    36    10    11   ar
    37     1     2   ar
    38     1     6    1
    39     2     3   ar
    40     2     7    1
    41     3     9    1
    42     7     8    1
    43    12    16    1
    44    12    11   ar
    45    16    17    3
    46    11    15    1
    47    17    18    1
