@<TRIPOS>MOLECULE
mol_data/noopt/geoms/mol2/12fa13fi-12ed-13di-.out
 44 47 0 0 0
SMALL
GASTEIGER

@<TRIPOS>ATOM
      1 C           0.1763    1.8460    0.0000 C.ar    1  LIG1        0.1339
      2 C           1.5558    1.8460    0.0000 C.ar    1  LIG1        0.1551
      3 C           1.9706    3.2334    0.0000 C.ar    1  LIG1        0.0273
      4 C           0.8165    3.9895   -0.0001 C.ar    1  LIG1        0.1581
      5 O          -0.3030    3.1567   -0.0002 O.2     1  LIG1       -0.4576
      6 H          -0.7504    0.9343    0.0000 H       1  LIG1        0.1068
      7 O           2.3515    0.8179    0.0001 O.3     1  LIG1       -0.5036
      8 H           3.2633    1.1184    0.0001 H       1  LIG1        0.2923
      9 H           3.1998    3.6567    0.0000 H       1  LIG1        0.0693
     10 C           0.5416    5.2601   -0.0001 C.ar    1  LIG1        0.1249
     11 C           1.3662    6.3409   -0.0005 C.ar    1  LIG1        0.1486
     12 C           0.5391    7.5098    0.0008 C.ar    1  LIG1        0.0200
     13 C          -0.7546    7.0920    0.0002 C.ar    1  LIG1        0.0904
     14 N          -0.7576    5.7154    0.0001 N.ar    1  LIG1       -0.3462
     15 H          -1.5690    5.1412   -0.0005 H       1  LIG1        0.1662
     16 O           2.6659    6.3141   -0.0004 O.3     1  LIG1       -0.5043
     17 H           3.0049    7.2123   -0.0004 H       1  LIG1        0.2922
     18 C           0.9464    8.7447    0.0020 C.3     1  LIG1       -0.0341
     19 H           0.2284    9.3567    0.5067 H       1  LIG1        0.0279
     20 H           1.0584    9.0843   -1.0066 H       1  LIG1        0.0279
     21 H           1.8877    8.8092    0.5066 H       1  LIG1        0.0279
     22 C          -1.8613    7.7741    0.0007 C.ar    1  LIG1        0.1688
     23 C          -2.1910    9.1135    0.0159 C.ar    1  LIG1        0.0899
     24 C          -3.6372    9.1849    0.0058 C.ar    1  LIG1        0.1149
     25 C          -4.0956    7.8837   -0.0150 C.ar    1  LIG1        0.1716
     26 O          -3.0194    6.9956   -0.0186 O.2     1  LIG1       -0.4492
     27 C          -1.3829   10.1316    0.0357 C.1     1  LIG1       -0.0645
     28 C          -0.6362   11.0724    0.0540 C.1     1  LIG1       -0.1138
     29 H           0.0289   11.9104    0.0703 H       1  LIG1        0.1232
     30 N          -4.9636   11.2407    0.0229 N.1     1  LIG1       -0.1907
     31 C          -4.3420   10.2772    0.0149 C.1     1  LIG1        0.1043
     32 C          -5.2637    7.3132   -0.0315 C.ar    1  LIG1        0.1013
     33 C          -6.5100    7.8558   -0.0431 C.ar    1  LIG1        0.0829
     34 C          -7.4475    6.7734   -0.0585 C.ar    1  LIG1       -0.0151
     35 C          -6.7328    5.6171   -0.0575 C.ar    1  LIG1        0.0064
     36 N          -5.3953    5.9430   -0.0405 N.ar    1  LIG1       -0.3569
     37 H          -4.6440    5.2921   -0.0361 H       1  LIG1        0.1655
     38 H          -7.1306    4.3795   -0.0683 H       1  LIG1        0.0810
     39 N          -7.0455   10.2431   -0.0357 N.1     1  LIG1       -0.1908
     40 C          -6.7946    9.1243   -0.0392 C.1     1  LIG1        0.1016
     41 C          -8.7439    6.8741   -0.0716 C.3     1  LIG1       -0.0371
     42 H          -9.1721    6.0310    0.4292 H       1  LIG1        0.0278
     43 H          -9.0893    6.9008   -1.0840 H       1  LIG1        0.0278
     44 H          -9.0369    7.7731    0.4291 H       1  LIG1        0.0278
@<TRIPOS>BOND
     1    43    41    1
     2    20    18    1
     3    41    34    1
     4    41    44    1
     5    41    42    1
     6    38    35    1
     7    34    35   ar
     8    34    33   ar
     9    35    36   ar
    10    33    40    1
    11    33    32   ar
    12    36    37    1
    13    36    32   ar
    14    40    39    3
    15    32    25    1
    16    26    25   ar
    17    26    22   ar
    18    25    24   ar
    19    15    14    1
    20    11    16    1
    21    11    10   ar
    22    11    12   ar
    23    16    17    1
    24     5     4   ar
    25     5     1   ar
    26    10     4    1
    27    10    14   ar
    28     4     3   ar
    29     9     3    1
    30     2     3   ar
    31     2     1   ar
    32     2     7    1
    33     1     6    1
    34    14    13   ar
    35     7     8    1
    36    13    22    1
    37    13    12   ar
    38    22    23   ar
    39    12    18    1
    40    18    21    1
    41    18    19    1
    42    24    31    1
    43    24    23   ar
    44    31    30    3
    45    23    27    1
    46    27    28    3
    47    28    29    1
