@<TRIPOS>MOLECULE
mol_data/noopt/geoms/mol2/12fa12fa-12fa-12fa.out
 34 37 0 0 0
SMALL
GASTEIGER

@<TRIPOS>ATOM
      1 C           0.1763    1.8460    0.0000 C.ar    1  LIG1        0.1340
      2 C           1.5558    1.8460    0.0000 C.ar    1  LIG1        0.1551
      3 C           1.9706    3.2334    0.0000 C.ar    1  LIG1        0.0290
      4 C           0.8165    3.9895   -0.0001 C.ar    1  LIG1        0.1770
      5 O          -0.3030    3.1567   -0.0002 O.2     1  LIG1       -0.4560
      6 H          -0.7504    0.9343    0.0000 H       1  LIG1        0.1068
      7 O           2.3515    0.8179    0.0001 O.3     1  LIG1       -0.5036
      8 H           3.2633    1.1184    0.0001 H       1  LIG1        0.2923
      9 H           3.1998    3.6567    0.0000 H       1  LIG1        0.0693
     10 C           0.5416    5.2601   -0.0001 C.ar    1  LIG1        0.2119
     11 C          -0.6119    6.0167   -0.0001 C.ar    1  LIG1        0.1665
     12 C          -0.1979    7.4043   -0.0001 C.ar    1  LIG1        0.0298
     13 C           1.1818    7.4036   -0.0002 C.ar    1  LIG1        0.1780
     14 O           1.6612    6.0932   -0.0003 O.2     1  LIG1       -0.4447
     15 O          -1.8411    5.5933   -0.0000 O.3     1  LIG1       -0.5031
     16 H          -1.8494    4.6334   -0.0000 H       1  LIG1        0.2923
     17 H          -0.9936    8.4323   -0.0001 H       1  LIG1        0.0693
     18 C           2.1085    8.3153   -0.0002 C.ar    1  LIG1        0.2119
     19 C           2.1310    9.6946   -0.0002 C.ar    1  LIG1        0.1665
     20 C           3.5250   10.0867   -0.0001 C.ar    1  LIG1        0.0298
     21 C           4.2622    8.9204   -0.0002 C.ar    1  LIG1        0.1780
     22 O           3.4112    7.8147   -0.0003 O.2     1  LIG1       -0.4447
     23 O           1.1161   10.5070   -0.0001 O.3     1  LIG1       -0.5031
     24 H           0.3004   10.0007   -0.0001 H       1  LIG1        0.2923
     25 H           3.9683   11.3088   -0.0001 H       1  LIG1        0.0693
     26 C           5.5281    8.6248   -0.0002 C.ar    1  LIG1        0.2109
     27 C           6.2658    7.4591   -0.0001 C.ar    1  LIG1        0.1657
     28 C           7.6600    7.8504   -0.0001 C.ar    1  LIG1        0.0185
     29 C           7.6818    9.2300   -0.0002 C.ar    1  LIG1        0.0964
     30 O           6.3794    9.7307   -0.0003 O.2     1  LIG1       -0.4560
     31 H           8.6085   10.1417   -0.0002 H       1  LIG1        0.1031
     32 O           5.8225    6.2370   -0.0000 O.3     1  LIG1       -0.5031
     33 H           6.5639    5.6272   -0.0000 H       1  LIG1        0.2923
     34 H           8.6749    7.0381   -0.0001 H       1  LIG1        0.0686
@<TRIPOS>BOND
     1    30    29   ar
     2    30    26   ar
     3    22    21   ar
     4    22    18   ar
     5    14    13   ar
     6    14    10   ar
     7    29    31    1
     8    29    28   ar
     9     5     4   ar
    10     5     1   ar
    11    21    26    1
    12    21    20   ar
    13    13    18    1
    14    13    12   ar
    15    26    27   ar
    16    19    18   ar
    17    19    20   ar
    18    19    23    1
    19    27    28   ar
    20    27    32    1
    21    11    12   ar
    22    11    10   ar
    23    11    15    1
    24    20    25    1
    25    17    12    1
    26    10     4    1
    27     4     3   ar
    28    28    34    1
    29    23    24    1
    30    15    16    1
    31    32    33    1
    32     9     3    1
    33     6     1    1
    34     3     2   ar
    35     2     1   ar
    36     2     7    1
    37     7     8    1
