@<TRIPOS>MOLECULE
mol_data/noopt/geoms/mol2/12fa13df13ef13ff-6fd12eh13la12la.out
 86 89 0 0 0
SMALL
GASTEIGER

@<TRIPOS>ATOM
      1 C           0.1763    1.8460    0.0000 C.ar    1  LIG1        0.1339
      2 C           1.5558    1.8460    0.0000 C.ar    1  LIG1        0.1551
      3 C           1.9706    3.2334    0.0000 C.ar    1  LIG1        0.0273
      4 C           0.8165    3.9895   -0.0001 C.ar    1  LIG1        0.1559
      5 O          -0.3030    3.1567   -0.0002 O.2     1  LIG1       -0.4577
      6 H          -0.7504    0.9343    0.0000 H       1  LIG1        0.1068
      7 O           2.3515    0.8179    0.0001 O.3     1  LIG1       -0.5036
      8 H           3.2633    1.1184    0.0001 H       1  LIG1        0.2923
      9 H           3.1998    3.6567    0.0000 H       1  LIG1        0.0693
     10 C           0.5416    5.2601   -0.0001 C.ar    1  LIG1        0.1039
     11 C           1.3660    6.3408    0.0161 C.ar    1  LIG1        0.1220
     12 C           0.5390    7.5098    0.0084 C.ar    1  LIG1        0.1616
     13 C          -0.7545    7.0921   -0.0139 C.ar    1  LIG1        0.1080
     14 N          -0.7574    5.7154   -0.0188 N.ar    1  LIG1       -0.3466
     15 H          -1.5687    5.1413   -0.0340 H       1  LIG1        0.1662
     16 N           3.8118    6.2904    0.0545 N.1     1  LIG1       -0.1907
     17 C           2.6656    6.3141    0.0365 C.1     1  LIG1        0.1051
     18 O           0.9462    8.7444    0.0202 O.3     1  LIG1       -0.5034
     19 H           0.1871    9.3321    0.0230 H       1  LIG1        0.2923
     20 C          -1.8611    7.7741   -0.0284 C.ar    1  LIG1        0.0862
     21 C          -2.0691    9.1175   -0.0386 C.ar    1  LIG1        0.0935
     22 C          -3.4850    9.3309   -0.0520 C.ar    1  LIG1        0.1596
     23 C          -4.0800    8.1086   -0.0512 C.ar    1  LIG1        0.1103
     24 N          -3.0894    7.1527   -0.0363 N.ar    1  LIG1       -0.3478
     25 H          -3.2377    6.1698   -0.0325 H       1  LIG1        0.1661
     26 C          -1.1493   10.0362   -0.0352 C.1     1  LIG1       -0.0638
     27 C          -0.2994   10.8851   -0.0320 C.1     1  LIG1       -0.1137
     28 H           0.4576   11.6412   -0.0292 H       1  LIG1        0.1232
     29 O          -4.0930   10.4800   -0.0634 O.3     1  LIG1       -0.5034
     30 H          -5.0428   10.3399   -0.0662 H       1  LIG1        0.2923
     31 C          -5.3386    7.7831   -0.0607 C.ar    1  LIG1        0.1127
     32 C          -6.4514    8.5637   -0.0675 C.ar    1  LIG1        0.1864
     33 C          -7.5863    7.6905   -0.0758 C.ar    1  LIG1        0.1850
     34 C          -7.1171    6.4146   -0.0755 C.ar    1  LIG1        0.0979
     35 N          -5.7414    6.4667   -0.0658 N.ar    1  LIG1       -0.3469
     36 H          -5.1353    5.6789   -0.0635 H       1  LIG1        0.1662
     37 O          -6.4768    9.8635   -0.0652 O.3     1  LIG1       -0.5019
     38 H          -7.3878   10.1662   -0.0646 H       1  LIG1        0.2924
     39 O          -8.8362    8.0480   -0.0829 O.3     1  LIG1       -0.5019
     40 H          -9.3932    7.2661   -0.0846 H       1  LIG1        0.2924
     41 C          -7.0446    4.0666   -0.0847 C.ar    1  LIG1        0.2222
     42 C          -7.7542    5.2815   -0.0815 C.ar    1  LIG1        0.0637
     43 C          -9.1496    5.2385   -0.0847 C.ar    1  LIG1       -0.0401
     44 C          -9.7836    3.9949   -0.0911 C.ar    1  LIG1        0.0093
     45 C          -8.9871    2.8351   -0.0940 C.ar    1  LIG1        0.1037
     46 N          -7.6400    2.8582   -0.0908 N.ar    1  LIG1       -0.2125
     47 H          -9.7380    6.1670   -0.0834 H       1  LIG1        0.0630
     48 O          -5.7446    4.0551   -0.0818 O.3     1  LIG1       -0.4919
     49 H          -5.4162    4.9572   -0.0811 H       1  LIG1        0.2937
     50 N         -12.2239    3.8192   -0.0974 N.pl3   1  LIG1       -0.2336
     51 C         -11.0802    3.9015   -0.0944 C.3     1  LIG1        0.1392
     52 C          -9.5309    1.6543   -0.0998 C.3     1  LIG1        0.2347
     53 C         -10.8210    1.1658   -0.1042 C.2     1  LIG1        0.0611
     54 C         -10.7176   -0.2786   -0.1099 C.2     1  LIG1        0.0458
     55 C          -9.3705   -0.5770   -0.1087 C.2     1  LIG1        0.1584
     56 O          -8.6185    0.5983   -0.1026 O.2     1  LIG1       -0.4665
     57 C         -11.9292    1.8455   -0.1034 C.1     1  LIG1       -0.0944
     58 C         -12.9531    2.4735   -0.1027 C.2     1  LIG1        0.0549
     59 H         -13.8652    3.0329   -0.1021 H       1  LIG1        0.0888
     60 N         -11.7172   -1.1097   -0.1151 N.3     2  LIG2       -0.1629
     61 H         -12.4941   -0.6937   -0.5879 H       1  LIG1        0.1629
     62 H         -11.4501   -1.9494   -0.5879 H       2  LIG2        0.0309
     63 C          -8.6635   -1.6679   -0.1118 C.ar    1  LIG1        0.1299
     64 C          -9.0518   -2.9706   -0.0977 C.ar    1  LIG1        0.2078
     65 C          -7.8644   -3.7709   -0.1085 C.ar    1  LIG1        0.0143
     66 C          -6.8027   -2.9222   -0.1306 C.ar    1  LIG1        0.0900
     67 N          -7.2874   -1.6336   -0.1322 N.ar    1  LIG1       -0.3462
     68 H          -6.7320   -0.8094   -0.1465 H       1  LIG1        0.1662
     69 O         -10.2766   -3.4058   -0.0765 O.3     1  LIG1       -0.2855
     70 C         -11.1776   -2.2954   -0.0689 C.3     3  LIG3       -0.0309
     71 H         -12.1856   -2.6540   -0.0517 H       4  UNK4        0.0000
     72 H         -10.9975   -1.6959    0.7990 H       5  UNK5        0.0000
     73 H         -11.0240   -1.7053   -0.9481 H       6  UNK6        0.0000
     74 H          -7.8080   -5.0697   -0.0995 H       1  LIG1        0.0678
     75 C          -5.5263   -3.1681   -0.1472 C.ar    1  LIG1        0.1923
     76 C          -4.7438   -4.3041   -0.1598 C.ar    1  LIG1        0.1670
     77 C          -3.3660   -3.8586   -0.1761 C.ar    1  LIG1        0.0187
     78 C          -3.3981   -2.4793   -0.1724 C.ar    1  LIG1        0.0963
     79 O          -4.7189   -2.0298   -0.1548 O.2     1  LIG1       -0.4577
     80 H          -2.5077   -1.5321   -0.1814 H       1  LIG1        0.1031
     81 O          -5.1391   -5.5426   -0.1578 O.3     1  LIG1       -0.4913
     82 C          -6.5683   -5.5875   -0.1571 C.3     1  LIG1        0.0790
     83 H          -6.8932   -6.6070   -0.1555 H       1  LIG1        0.0660
     84 H          -6.9403   -5.0933    0.7161 H       1  LIG1        0.0660
     85 H          -6.9411   -5.0957   -1.0312 H       1  LIG1        0.0660
     86 H          -2.3203   -4.6307   -0.1911 H       1  LIG1        0.0686
@<TRIPOS>BOND
     1    85    82    1
     2    62    70    1
     3    61    60    1
     4    86    77    1
     5    80    78    1
     6    77    78   ar
     7    77    76   ar
     8    78    79   ar
     9    76    81    1
    10    76    75   ar
    11    81    82    1
    12    82    83    1
    13    82    84    1
    14    79    75   ar
    15    75    66    1
    16    68    67    1
    17    67    66   ar
    18    67    63   ar
    19    66    65   ar
    20    63    55    1
    21    63    64   ar
    22    54    55    2
    23    54    53    1
    24    55    56    1
    25    65    74    1
    26    65    64   ar
    27    53    57    2
    28    53    52    1
    29    57    58    2
    30    58    59    1
    31    58    50    1
    32    56    52    1
    33    52    45    1
    34    64    69    1
    35    50    51    1
    36    51    44    1
    37    45    44   ar
    38    45    46   ar
    39    44    43   ar
    40    46    41   ar
    41    43    47    1
    42    43    42   ar
    43    41    48    1
    44    41    42   ar
    45    40    39    1
    46    39    33    1
    47    48    49    1
    48    42    34    1
    49    33    34   ar
    50    33    32   ar
    51    34    35   ar
    52    32    37    1
    53    32    31   ar
    54    30    29    1
    55    35    36    1
    56    35    31   ar
    57    37    38    1
    58    29    22    1
    59    31    23    1
    60    22    23   ar
    61    22    21   ar
    62    23    24   ar
    63    21    26    1
    64    21    20   ar
    65    24    25    1
    66    24    20   ar
    67    26    27    3
    68    15    14    1
    69    27    28    1
    70    20    13    1
    71    14    13   ar
    72    14    10   ar
    73    13    12   ar
    74     5     4   ar
    75     5     1   ar
    76     4    10    1
    77     4     3   ar
    78    10    11   ar
    79     9     3    1
    80     6     1    1
    81     2     3   ar
    82     2     1   ar
    83     2     7    1
    84     7     8    1
    85    12    11   ar
    86    12    18    1
    87    11    17    1
    88    18    19    1
    89    17    16    3
