@<TRIPOS>MOLECULE
mol_data/noopt/geoms/mol2/12fa12ld12ee4fh-.out
 46 49 0 0 0
SMALL
GASTEIGER

@<TRIPOS>ATOM
      1 C           0.1763    1.8460    0.0000 C.ar    1  LIG1        0.1340
      2 C           1.5558    1.8460    0.0000 C.ar    1  LIG1        0.1551
      3 C           1.9706    3.2334    0.0000 C.ar    1  LIG1        0.0290
      4 C           0.8165    3.9895   -0.0001 C.ar    1  LIG1        0.1770
      5 O          -0.3030    3.1567   -0.0002 O.2     1  LIG1       -0.4560
      6 H          -0.7504    0.9343    0.0000 H       1  LIG1        0.1068
      7 O           2.3515    0.8179    0.0001 O.3     1  LIG1       -0.5036
      8 H           3.2633    1.1184    0.0001 H       1  LIG1        0.2923
      9 H           3.1998    3.6567    0.0000 H       1  LIG1        0.0693
     10 C           0.5416    5.2601   -0.0001 C.ar    1  LIG1        0.2135
     11 C           1.2791    6.4258    0.0147 C.ar    1  LIG1        0.1869
     12 C           0.3286    7.5182    0.0040 C.ar    1  LIG1        0.1428
     13 C          -0.9273    6.9473   -0.0167 C.ar    1  LIG1        0.1930
     14 O          -0.8221    5.5559   -0.0197 O.2     1  LIG1       -0.4434
     15 O           2.5732    6.5484    0.0345 O.3     1  LIG1       -0.4900
     16 C           3.1755    5.2514    0.0417 C.3     1  LIG1        0.0790
     17 H           4.2405    5.3528    0.0579 H       1  LIG1        0.0660
     18 H           2.8551    4.7142    0.9100 H       1  LIG1        0.0660
     19 H           2.8814    4.7167   -0.8371 H       1  LIG1        0.0660
     20 N           0.8923    9.8989    0.0201 N.1     1  LIG1       -0.1906
     21 C           0.6281    8.7832    0.0126 C.1     1  LIG1        0.1068
     22 C          -2.1478    7.3944   -0.0335 C.ar    1  LIG1        0.1885
     23 C          -2.7383    8.6411   -0.0462 C.ar    1  LIG1        0.0895
     24 C          -4.1697    8.4219   -0.0626 C.ar    1  LIG1        0.0866
     25 C          -4.3589    7.0552   -0.0589 C.ar    1  LIG1        0.1559
     26 O          -3.1271    6.4001   -0.0412 O.2     1  LIG1       -0.4490
     27 C          -2.1499    9.8003   -0.0441 C.1     1  LIG1       -0.0645
     28 C          -1.6062   10.8714   -0.0422 C.1     1  LIG1       -0.1138
     29 H          -1.1219   11.8255   -0.0405 H       1  LIG1        0.1232
     30 C          -5.0783    9.3515   -0.0777 C.1     1  LIG1       -0.0646
     31 C          -5.9179   10.2104   -0.0917 C.1     1  LIG1       -0.1138
     32 H          -6.6658   10.9755   -0.1042 H       1  LIG1        0.1232
     33 C          -6.6914    6.8035   -0.0507 C.ar    1  LIG1        0.1276
     34 C          -7.7743    5.9032   -0.0598 C.ar    1  LIG1       -0.0177
     35 C          -5.3894    6.2629   -0.0679 C.ar    1  LIG1        0.0616
     36 C          -7.5721    4.5251   -0.0856 C.ar    1  LIG1       -0.0376
     37 H          -8.7873    6.2990   -0.0466 H       1  LIG1        0.0655
     38 C          -5.1870    4.8872   -0.0936 C.ar    1  LIG1       -0.0268
     39 C          -6.2757    4.0090   -0.1028 C.ar    1  LIG1        0.0254
     40 H          -4.1733    4.4948   -0.1065 H       1  LIG1        0.0644
     41 H          -8.5949    3.7227   -0.0935 H       1  LIG1        0.0637
     42 O          -6.9432    8.0787   -0.0267 O.3     1  LIG1       -0.5061
     43 H          -7.8931    8.2176   -0.0207 H       1  LIG1        0.2922
     44 N          -6.0803    2.7240   -0.1267 N.pl3   1  LIG1       -0.3579
     45 H          -6.8388    2.2804   -0.6041 H       1  LIG1        0.1423
     46 H          -5.2244    2.5258   -0.6042 H       1  LIG1        0.1423
@<TRIPOS>BOND
     1    19    16    1
     2    46    44    1
     3    45    44    1
     4    44    39    1
     5    40    38    1
     6    32    31    1
     7    39    38   ar
     8    39    36   ar
     9    38    35   ar
    10    41    36    1
    11    31    30    3
    12    36    34   ar
    13    30    24    1
    14    35    25    1
    15    35    33   ar
    16    24    25   ar
    17    24    23   ar
    18    34    33   ar
    19    34    37    1
    20    25    26   ar
    21    33    42    1
    22    23    27    1
    23    23    22   ar
    24    27    28    3
    25    28    29    1
    26    26    22   ar
    27    22    13    1
    28    42    43    1
    29    14    13   ar
    30    14    10   ar
    31    13    12   ar
    32     5     4   ar
    33     5     1   ar
    34     4    10    1
    35     4     3   ar
    36    10    11   ar
    37     1     6    1
    38     1     2   ar
    39     3     9    1
    40     3     2   ar
    41     2     7    1
    42     7     8    1
    43    12    21    1
    44    12    11   ar
    45    21    20    3
    46    11    15    1
    47    15    16    1
    48    16    17    1
    49    16    18    1
