@<TRIPOS>MOLECULE
mol_data/noopt/geoms/mol2/12fd6ff(310)13el(310)4ef(70).out
 49 52 0 0 0
SMALL
GASTEIGER

@<TRIPOS>ATOM
      1 C           0.1763    1.8460    0.0000 C.ar    1  LIG1        0.1352
      2 C           1.5558    1.8460    0.0000 C.ar    1  LIG1        0.1728
      3 C           1.9706    3.2334    0.0000 C.ar    1  LIG1        0.1389
      4 C           0.8165    3.9895   -0.0001 C.ar    1  LIG1        0.1610
      5 O          -0.3030    3.1567   -0.0002 O.2     1  LIG1       -0.4577
      6 H          -0.7504    0.9343    0.0000 H       1  LIG1        0.1068
      7 O           2.3515    0.8179    0.0001 O.3     1  LIG1       -0.5028
      8 H           3.2633    1.1184    0.0001 H       1  LIG1        0.2923
      9 N           4.2839    4.0300    0.0000 N.1     1  LIG1       -0.1906
     10 C           3.1998    3.6567    0.0000 C.1     1  LIG1        0.1067
     11 C          -0.3717    5.7901    0.9296 C.ar    1  LIG1        0.2241
     12 C           0.5416    5.2601   -0.0001 C.ar    1  LIG1        0.0834
     13 C           1.1405    6.1277   -0.9153 C.ar    1  LIG1       -0.0022
     14 C           0.8099    7.4832   -0.8716 C.ar    1  LIG1        0.1451
     15 C          -0.1151    7.9180    0.0953 C.ar    1  LIG1        0.1335
     16 N          -0.7022    7.0949    0.9858 N.ar    1  LIG1       -0.2072
     17 H           1.8583    5.7500   -1.6572 H       1  LIG1        0.0663
     18 O          -0.9550    5.0223    1.8016 O.3     1  LIG1       -0.4919
     19 H          -0.3781    4.2856    2.0165 H       1  LIG1        0.2938
     20 O           1.3400    8.3314   -1.7021 O.3     1  LIG1       -0.5045
     21 H           0.7032    9.0201   -1.9068 H       1  LIG1        0.2922
     22 C          -0.4548    9.1703    0.1756 C.ar    1  LIG1        0.0883
     23 C          -0.0251   10.2479   -0.5331 C.ar    1  LIG1        0.0937
     24 C          -0.7267   11.3934   -0.0369 C.ar    1  LIG1        0.1612
     25 C          -1.5555   10.9652    0.9519 C.ar    1  LIG1        0.0917
     26 N          -1.3918    9.6049    1.0856 N.ar    1  LIG1       -0.3489
     27 H          -1.8742    9.0279    1.7356 H       1  LIG1        0.1661
     28 C           0.8609   10.2368   -1.4843 C.1     1  LIG1       -0.0638
     29 C           1.6796   10.2265   -2.3632 C.1     1  LIG1       -0.1137
     30 H           2.4089   10.2174   -3.1461 H       1  LIG1        0.1232
     31 O          -0.5979   12.6183   -0.4530 O.3     1  LIG1       -0.4917
     32 C           0.7900   12.9270   -0.6059 C.3     1  LIG1        0.0789
     33 H           0.8956   13.9351   -0.9485 H       1  LIG1        0.0660
     34 H           1.2858   12.8167    0.3360 H       1  LIG1        0.0660
     35 H           1.2273   12.2602   -1.3193 H       1  LIG1        0.0660
     36 C          -2.0622   11.8999    3.0432 C.ar    1  LIG1        0.0341
     37 C          -2.9991   12.6178    3.8115 C.ar    1  LIG1       -0.0423
     38 C          -2.3888   11.6262    1.6993 C.ar    1  LIG1        0.0207
     39 C          -4.2081   13.0457    3.2676 C.ar    1  LIG1       -0.0190
     40 H          -2.7673   12.8396    4.8508 H       1  LIG1        0.0631
     41 C          -3.5956   12.0531    1.1558 C.ar    1  LIG1       -0.0098
     42 C          -4.5132   12.7654    1.9351 C.ar    1  LIG1        0.1176
     43 H          -3.8244   11.8296    0.1169 H       1  LIG1        0.0661
     44 H          -5.0501   13.7064    4.0056 H       1  LIG1        0.0654
     45 C          -0.9512   11.5276    3.6063 C.1     1  LIG1       -0.0690
     46 C           0.0753   11.1835    4.1266 C.1     1  LIG1       -0.1139
     47 H           0.9897   10.8770    4.5901 H       1  LIG1        0.1232
     48 O          -5.6399   13.1618    1.4216 O.3     1  LIG1       -0.5067
     49 H          -6.2179   12.4058    1.2951 H       1  LIG1        0.2921
@<TRIPOS>BOND
     1    30    29    1
     2    29    28    3
     3    21    20    1
     4    20    14    1
     5    17    13    1
     6    28    23    1
     7    35    32    1
     8    33    32    1
     9    13    14   ar
    10    13    12   ar
    11    14    15   ar
    12    32    31    1
    13    32    34    1
    14    23    24   ar
    15    23    22   ar
    16    31    24    1
    17    24    25   ar
    18     5     4   ar
    19     5     1   ar
    20    12     4    1
    21    12    11   ar
    22     4     3   ar
    23    10     9    3
    24    10     3    1
    25     6     1    1
    26     3     2   ar
    27     1     2   ar
    28     2     7    1
    29     7     8    1
    30    15    22    1
    31    15    16   ar
    32    43    41    1
    33    22    26   ar
    34    11    16   ar
    35    11    18    1
    36    25    26   ar
    37    25    38    1
    38    26    27    1
    39    41    38   ar
    40    41    42   ar
    41    49    48    1
    42    48    42    1
    43    38    36   ar
    44    18    19    1
    45    42    39   ar
    46    36    45    1
    47    36    37   ar
    48    39    37   ar
    49    39    44    1
    50    45    46    3
    51    37    40    1
    52    46    47    1
