@<TRIPOS>MOLECULE
mol_data/noopt/geoms/mol2/12fd12eh-6ai4aa.out
 44 47 0 0 0
SMALL
GASTEIGER

@<TRIPOS>ATOM
      1 C           0.1763    1.8460    0.0000 C.ar    1  LIG1        0.1354
      2 C           1.5558    1.8460    0.0000 C.ar    1  LIG1        0.1729
      3 C           1.9706    3.2334    0.0000 C.ar    1  LIG1        0.1418
      4 C           0.8165    3.9895   -0.0001 C.ar    1  LIG1        0.1920
      5 O          -0.3030    3.1567   -0.0002 O.2     1  LIG1       -0.4547
      6 H          -0.7504    0.9343    0.0000 H       1  LIG1        0.1068
      7 O           2.3515    0.8179    0.0001 O.3     1  LIG1       -0.5028
      8 H           3.2633    1.1184    0.0001 H       1  LIG1        0.2923
      9 N           4.2839    4.0300    0.0000 N.1     1  LIG1       -0.1906
     10 C           3.1998    3.6567    0.0000 C.1     1  LIG1        0.1068
     11 C           0.5416    5.2601   -0.0001 C.ar    1  LIG1        0.1891
     12 C           1.2792    6.4258   -0.0001 C.ar    1  LIG1        0.0947
     13 C           0.3286    7.5182   -0.0001 C.ar    1  LIG1        0.0874
     14 C          -0.9274    6.9472   -0.0002 C.ar    1  LIG1        0.1591
     15 O          -0.8223    5.5559   -0.0003 O.2     1  LIG1       -0.4485
     16 C           2.5734    6.5485   -0.0000 C.1     1  LIG1       -0.0639
     17 C           3.7693    6.6618    0.0001 C.1     1  LIG1       -0.1137
     18 H           4.8345    6.7627    0.0002 H       1  LIG1        0.1232
     19 N           0.6282    8.7832   -0.0001 N.pl3   1  LIG1       -0.3541
     20 H           1.4995    8.9194   -0.4715 H       1  LIG1        0.1425
     21 H          -0.0895    9.2957   -0.4715 H       1  LIG1        0.1425
     22 C          -3.2334    6.4990   -0.0000 C.ar    1  LIG1        0.0390
     23 C          -2.1481    7.3943   -0.0002 C.ar    1  LIG1        0.0375
     24 C          -2.4144    8.7648   -0.0000 C.ar    1  LIG1       -0.0446
     25 C          -3.7436    9.1911    0.0001 C.ar    1  LIG1       -0.0238
     26 C          -4.7606    8.2188    0.0000 C.ar    1  LIG1        0.0739
     27 N          -4.5217    6.8928    0.0001 N.ar    1  LIG1       -0.2540
     28 H          -1.5923    9.4945   -0.0012 H       1  LIG1        0.0628
     29 H          -3.0362    5.2141   -0.0001 H       1  LIG1        0.0837
     30 C          -4.0438   10.4562    0.0001 C.3     1  LIG1       -0.0377
     31 H          -4.9762   10.6016    0.5045 H       1  LIG1        0.0278
     32 H          -4.1262   10.8033   -1.0088 H       1  LIG1        0.0278
     33 H          -3.2761   11.0050    0.5044 H       1  LIG1        0.0278
     34 C          -6.3636    9.9318    0.0011 C.ar    1  LIG1       -0.0526
     35 C          -7.7341   10.2561    0.0028 C.ar    1  LIG1       -0.0611
     36 C          -6.0133    8.5661    0.0002 C.ar    1  LIG1        0.0006
     37 C          -8.7141    9.2661    0.0031 C.ar    1  LIG1       -0.0617
     38 H          -8.0265   11.3038    0.0037 H       1  LIG1        0.0618
     39 C          -6.9913    7.5774    0.0005 C.ar    1  LIG1       -0.0526
     40 C          -8.3475    7.9197    0.0018 C.ar    1  LIG1       -0.0611
     41 H          -6.6957    6.5313   -0.0001 H       1  LIG1        0.0624
     42 H          -9.9702    9.6013    0.0046 H       1  LIG1        0.0618
     43 H          -5.4957   10.8996    0.0007 H       1  LIG1        0.0624
     44 H          -9.2573    6.9911    0.0022 H       1  LIG1        0.0618
@<TRIPOS>BOND
     1    32    30    1
     2    21    19    1
     3    20    19    1
     4    28    24    1
     5    15    14   ar
     6    15    11   ar
     7     5     4   ar
     8     5     1   ar
     9    23    14    1
    10    23    22   ar
    11    23    24   ar
    12    14    13   ar
    13    41    39    1
    14     4    11    1
    15     4     3   ar
    16    19    13    1
    17    11    12   ar
    18    12    13   ar
    19    12    16    1
    20    29    22    1
    21    22    27   ar
    22    24    25   ar
    23     1     6    1
    24     1     2   ar
    25    16    17    3
    26    10     9    3
    27    10     3    1
    28     2     3   ar
    29     2     7    1
    30    26    27   ar
    31    26    25   ar
    32    26    36    1
    33    30    25    1
    34    30    33    1
    35    30    31    1
    36    17    18    1
    37     7     8    1
    38    36    39   ar
    39    36    34   ar
    40    39    40   ar
    41    43    34    1
    42    34    35   ar
    43    40    44    1
    44    40    37   ar
    45    35    37   ar
    46    35    38    1
    47    37    42    1
