@<TRIPOS>MOLECULE
mol_data/noopt/geoms/mol2/12fd12hh13aa-6ih-.out
 44 47 0 0 0
SMALL
GASTEIGER

@<TRIPOS>ATOM
      1 C           0.1763    1.8460    0.0000 C.ar    1  LIG1        0.1354
      2 C           1.5558    1.8460    0.0000 C.ar    1  LIG1        0.1729
      3 C           1.9706    3.2334    0.0000 C.ar    1  LIG1        0.1418
      4 C           0.8165    3.9895   -0.0001 C.ar    1  LIG1        0.1926
      5 O          -0.3030    3.1567   -0.0002 O.2     1  LIG1       -0.4547
      6 H          -0.7504    0.9343    0.0000 H       1  LIG1        0.1068
      7 O           2.3515    0.8179    0.0001 O.3     1  LIG1       -0.5028
      8 H           3.2633    1.1184    0.0001 H       1  LIG1        0.2923
      9 N           4.2839    4.0300    0.0000 N.1     1  LIG1       -0.1906
     10 C           3.1998    3.6567    0.0000 C.1     1  LIG1        0.1068
     11 C           0.5416    5.2601   -0.0001 C.ar    1  LIG1        0.1944
     12 C           1.2791    6.4258    0.0147 C.ar    1  LIG1        0.0958
     13 C           0.3286    7.5182    0.0040 C.ar    1  LIG1        0.0942
     14 C          -0.9273    6.9473   -0.0167 C.ar    1  LIG1        0.1743
     15 O          -0.8221    5.5559   -0.0197 O.2     1  LIG1       -0.4464
     16 N           2.5732    6.5484    0.0345 N.pl3   1  LIG1       -0.3535
     17 H           2.9892    5.7677   -0.4317 H       1  LIG1        0.1425
     18 H           2.8351    7.3933   -0.4318 H       1  LIG1        0.1425
     19 N           0.6281    8.7832    0.0126 N.pl3   1  LIG1       -0.3535
     20 H           1.5001    8.9225   -0.4566 H       1  LIG1        0.1425
     21 H          -0.0889    9.2987   -0.4567 H       1  LIG1        0.1425
     22 C          -2.1479    7.3944   -0.0335 C.ar    1  LIG1        0.0845
     23 C          -2.6203    8.6690   -0.0286 C.ar    1  LIG1       -0.0327
     24 C          -4.0502    8.5952   -0.0534 C.ar    1  LIG1       -0.0357
     25 C          -4.3886    7.2788   -0.0740 C.ar    1  LIG1        0.0488
     26 N          -3.2270    6.5401   -0.0615 N.ar    1  LIG1       -0.3517
     27 H          -3.1755    5.5475   -0.0717 H       1  LIG1        0.1660
     28 H          -1.9030    9.7530   -0.0044 H       1  LIG1        0.0640
     29 H          -4.8757    9.5995   -0.0561 H       1  LIG1        0.0639
     30 C          -5.6622    5.3058   -0.1354 C.ar    1  LIG1        0.0474
     31 C          -5.5565    6.7083   -0.1001 C.ar    1  LIG1        0.0210
     32 C          -6.7294    7.4654   -0.0936 C.ar    1  LIG1       -0.0287
     33 C          -7.9574    6.8022   -0.1226 C.ar    1  LIG1        0.0435
     34 C          -7.9604    5.3957   -0.1571 C.ar    1  LIG1        0.0485
     35 N          -6.8384    4.6497   -0.1636 N.ar    1  LIG1       -0.2577
     36 H          -6.6864    8.5634   -0.0674 H       1  LIG1        0.0643
     37 H          -9.0784    4.7330   -0.1848 H       1  LIG1        0.0848
     38 C          -4.5985    4.5579   -0.1427 C.3     1  LIG1       -0.0217
     39 H          -3.8020    5.0658    0.3597 H       1  LIG1        0.0293
     40 H          -4.3113    4.3561   -1.1536 H       1  LIG1        0.0293
     41 H          -4.8070    3.6365    0.3596 H       1  LIG1        0.0293
     42 N          -9.0777    7.4618   -0.1181 N.pl3   1  LIG1       -0.3568
     43 H          -8.9520    8.3353   -0.5884 H       1  LIG1        0.1424
     44 H          -9.7805    6.9282   -0.5884 H       1  LIG1        0.1424
@<TRIPOS>BOND
     1    40    38    1
     2    44    42    1
     3    43    42    1
     4    21    19    1
     5    20    19    1
     6    18    16    1
     7    17    16    1
     8    37    34    1
     9    35    34   ar
    10    35    30   ar
    11    34    33   ar
    12    38    30    1
    13    38    41    1
    14    38    39    1
    15    30    31   ar
    16    33    42    1
    17    33    32   ar
    18    31    32   ar
    19    31    25    1
    20    32    36    1
    21    25    26   ar
    22    25    24   ar
    23    27    26    1
    24    26    22   ar
    25    29    24    1
    26    24    23   ar
    27    22    23   ar
    28    22    14    1
    29    23    28    1
    30    15    14   ar
    31    15    11   ar
    32    14    13   ar
    33     5     4   ar
    34     5     1   ar
    35     4    11    1
    36     4     3   ar
    37    11    12   ar
    38     9    10    3
    39     2     3   ar
    40     2     1   ar
    41     2     7    1
    42     3    10    1
    43     6     1    1
    44     7     8    1
    45    13    19    1
    46    13    12   ar
    47    12    16    1
