@<TRIPOS>MOLECULE
mol_data/noopt/geoms/mol2/12fd6eh(220)12ih(30)13ii(30).out
 50 53 0 0 0
SMALL
GASTEIGER

@<TRIPOS>ATOM
      1 C           0.1763    1.8460    0.0000 C.ar    1  LIG1        0.1352
      2 C           1.5558    1.8460    0.0000 C.ar    1  LIG1        0.1728
      3 C           1.9706    3.2334    0.0000 C.ar    1  LIG1        0.1388
      4 C           0.8165    3.9895   -0.0001 C.ar    1  LIG1        0.1585
      5 O          -0.3030    3.1567   -0.0002 O.2     1  LIG1       -0.4578
      6 H          -0.7504    0.9343    0.0000 H       1  LIG1        0.1068
      7 O           2.3515    0.8179    0.0001 O.3     1  LIG1       -0.5028
      8 H           3.2633    1.1184    0.0001 H       1  LIG1        0.2923
      9 N           4.2839    4.0300    0.0000 N.1     1  LIG1       -0.1906
     10 C           3.1998    3.6567    0.0000 C.1     1  LIG1        0.1067
     11 C           1.3006    6.1519    0.7796 C.ar    1  LIG1        0.1247
     12 C           0.5416    5.2601   -0.0001 C.ar    1  LIG1        0.0542
     13 C          -0.5061    5.7715   -0.7681 C.ar    1  LIG1       -0.0255
     14 C          -0.7583    7.1439   -0.7316 C.ar    1  LIG1        0.0547
     15 C           0.0562    7.9551    0.0796 C.ar    1  LIG1        0.1282
     16 N           1.0711    7.4785    0.8267 N.ar    1  LIG1       -0.2327
     17 H          -1.1216    5.1053   -1.3891 H       1  LIG1        0.0644
     18 C           2.2861    5.7235    1.5112 C.1     1  LIG1       -0.0491
     19 C           3.1967    5.3277    2.1872 C.1     1  LIG1       -0.1124
     20 H           4.0079    4.9751    2.7894 H       1  LIG1        0.1232
     21 N          -1.7223    7.6689   -1.4283 N.pl3   1  LIG1       -0.3562
     22 H          -1.3570    8.3997   -2.0049 H       1  LIG1        0.1424
     23 H          -2.1380    6.9656   -2.0050 H       1  LIG1        0.1424
     24 C          -0.1393    9.2386    0.1467 C.ar    1  LIG1        0.1604
     25 C           0.5698   10.3171    0.6336 C.ar    1  LIG1        0.0182
     26 C          -0.2393   11.4920    0.3844 C.ar    1  LIG1        0.0760
     27 C          -1.3895   11.0532   -0.2385 C.ar    1  LIG1        0.1728
     28 O          -1.3513    9.6674   -0.3962 O.2     1  LIG1       -0.4496
     29 C           1.7365   10.3089    1.2077 C.3     1  LIG1       -0.0343
     30 H           1.8399   11.1819    1.8177 H       1  LIG1        0.0279
     31 H           2.5019   10.3036    0.4599 H       1  LIG1        0.0279
     32 H           1.8276    9.4346    1.8176 H       1  LIG1        0.0279
     33 N           0.0806   12.7125    0.6975 N.pl3   1  LIG1       -0.3548
     34 H           0.9812   12.9282    0.3202 H       1  LIG1        0.1424
     35 H          -0.5984   13.3423    0.3202 H       1  LIG1        0.1424
     36 C          -2.4670   11.6172   -0.6978 C.ar    1  LIG1        0.0872
     37 C          -2.9260   12.8888   -0.5557 C.ar    1  LIG1       -0.0192
     38 C          -4.1661   12.9778   -1.2663 C.ar    1  LIG1       -0.0296
     39 C          -4.4095   11.7571   -1.8128 C.ar    1  LIG1        0.0054
     40 N          -3.3720   10.9210   -1.4668 N.ar    1  LIG1       -0.3578
     41 H          -3.2891    9.9663   -1.7310 H       1  LIG1        0.1654
     42 H          -5.4026   11.3422   -2.5419 H       1  LIG1        0.0810
     43 C          -2.3442   13.8452    0.1059 C.3     1  LIG1       -0.0374
     44 H          -3.0643   14.3424    0.7216 H       1  LIG1        0.0278
     45 H          -1.9178   14.5460   -0.5812 H       1  LIG1        0.0278
     46 H          -1.5715   13.4342    0.7215 H       1  LIG1        0.0278
     47 C          -4.9224   14.0303   -1.3719 C.3     1  LIG1       -0.0380
     48 H          -5.8632   13.8425   -0.8982 H       1  LIG1        0.0278
     49 H          -5.0820   14.2524   -2.4064 H       1  LIG1        0.0278
     50 H          -4.4442   14.8621   -0.8982 H       1  LIG1        0.0278
@<TRIPOS>BOND
     1    42    39    1
     2    49    47    1
     3    23    21    1
     4    22    21    1
     5    39    40   ar
     6    39    38   ar
     7    41    40    1
     8    40    36   ar
     9    21    14    1
    10    17    13    1
    11    47    38    1
    12    47    50    1
    13    47    48    1
    14    38    37   ar
    15    13    14   ar
    16    13    12   ar
    17    14    15   ar
    18    36    37   ar
    19    36    27    1
    20    45    43    1
    21    37    43    1
    22    28    27   ar
    23    28    24   ar
    24    27    26   ar
    25     5     4   ar
    26     5     1   ar
    27    12     4    1
    28    12    11   ar
    29     4     3   ar
    30     1     2   ar
    31     1     6    1
    32     2     3   ar
    33     2     7    1
    34     3    10    1
    35     9    10    3
    36     7     8    1
    37    15    24    1
    38    15    16   ar
    39    43    46    1
    40    43    44    1
    41    24    25   ar
    42    35    33    1
    43    34    33    1
    44    26    25   ar
    45    26    33    1
    46    31    29    1
    47    25    29    1
    48    11    16   ar
    49    11    18    1
    50    29    32    1
    51    29    30    1
    52    18    19    3
    53    19    20    1
