@<TRIPOS>MOLECULE
mol_data/noopt/geoms/mol2/12fe4eh(190)4fi(180)13eh(320).out
 52 55 0 0 0
SMALL
GASTEIGER

@<TRIPOS>ATOM
      1 C           0.1763    1.8460    0.0000 C.ar    1  LIG1        0.1351
      2 C           1.5558    1.8460    0.0000 C.ar    1  LIG1        0.1708
      3 C           1.9706    3.2334    0.0000 C.ar    1  LIG1        0.1118
      4 C           0.8165    3.9895   -0.0001 C.ar    1  LIG1        0.1550
      5 O          -0.3030    3.1567   -0.0002 O.2     1  LIG1       -0.4579
      6 H          -0.7504    0.9343    0.0000 H       1  LIG1        0.1068
      7 O           2.3515    0.8179    0.0001 O.3     1  LIG1       -0.5028
      8 H           3.2633    1.1184    0.0001 H       1  LIG1        0.2923
      9 C           3.1998    3.6567    0.0000 C.1     1  LIG1       -0.0622
     10 C           4.3355    4.0478    0.0000 C.1     1  LIG1       -0.1137
     11 H           5.3472    4.3962    0.0000 H       1  LIG1        0.1232
     12 C          -0.7834    5.6921   -0.2131 C.ar    1  LIG1        0.0361
     13 C          -1.0292    7.0788   -0.2053 C.ar    1  LIG1       -0.0361
     14 C           0.5416    5.2600   -0.0001 C.ar    1  LIG1        0.0357
     15 C          -0.0026    7.9965    0.0057 C.ar    1  LIG1        0.0074
     16 H          -2.0444    7.4338   -0.3678 H       1  LIG1        0.0637
     17 C           1.5668    6.1758    0.2106 C.ar    1  LIG1       -0.0286
     18 C           1.3026    7.5494    0.2151 C.ar    1  LIG1        0.0332
     19 H           2.5804    5.8177    0.3724 H       1  LIG1        0.0643
     20 C          -1.7822    4.8848   -0.4150 C.1     1  LIG1       -0.0689
     21 C          -2.7051    4.1389   -0.6015 C.1     1  LIG1       -0.1139
     22 H          -3.5272    3.4744   -0.7677 H       1  LIG1        0.1232
     23 N           2.2650    8.4008    0.4124 N.pl3   1  LIG1       -0.3575
     24 H           3.1063    8.0549   -0.0029 H       1  LIG1        0.1423
     25 H           2.0244    9.2780   -0.0030 H       1  LIG1        0.1423
     26 C          -1.6042    9.7108    0.0064 C.ar    1  LIG1        0.1252
     27 C          -1.8359   11.0999    0.0058 C.ar    1  LIG1       -0.0102
     28 C          -0.2651    9.2696    0.0066 C.ar    1  LIG1        0.0256
     29 C          -0.7824   12.0113    0.0062 C.ar    1  LIG1        0.0059
     30 H          -2.8616   11.4619    0.0054 H       1  LIG1        0.0661
     31 C           0.7870   10.1791    0.0069 C.ar    1  LIG1       -0.0469
     32 C           0.5364   11.5552    0.0068 C.ar    1  LIG1       -0.0405
     33 H           1.8109    9.8141    0.0071 H       1  LIG1        0.0628
     34 O          -2.6281    8.9096    0.0063 O.3     1  LIG1       -0.5061
     35 H          -2.3228    7.9995    0.0063 H       1  LIG1        0.2922
     36 C           1.5242   12.4009    0.0070 C.3     1  LIG1       -0.0391
     37 H           1.2269   13.2965    0.5114 H       1  LIG1        0.0278
     38 H           1.7952   12.6330   -1.0018 H       1  LIG1        0.0278
     39 H           2.3633   11.9691    0.5114 H       1  LIG1        0.0278
     40 C          -1.0325   13.2870    0.0058 C.ar    1  LIG1        0.0642
     41 C          -0.3989   14.3098   -0.6270 C.ar    1  LIG1        0.0705
     42 C          -1.0876   15.5174   -0.2834 C.ar    1  LIG1        0.0583
     43 C          -2.1128   15.1792    0.5428 C.ar    1  LIG1        0.0242
     44 N          -2.0825   13.8147    0.7228 N.ar    1  LIG1       -0.3580
     45 H          -2.7182   13.2933    1.2814 H       1  LIG1        0.1654
     46 H          -3.0140   15.9205    1.1159 H       1  LIG1        0.0826
     47 C           0.6414   14.2069   -1.3997 C.1     1  LIG1       -0.0657
     48 C           1.6027   14.1118   -2.1136 C.1     1  LIG1       -0.1138
     49 H           2.4590   14.0271   -2.7496 H       1  LIG1        0.1232
     50 N          -0.7905   16.7174   -0.6856 N.pl3   1  LIG1       -0.3559
     51 H           0.0432   16.6873   -1.2370 H       1  LIG1        0.1424
     52 H          -1.5420   17.0797   -1.2371 H       1  LIG1        0.1424
@<TRIPOS>BOND
     1    49    48    1
     2    48    47    3
     3    47    41    1
     4    52    50    1
     5    51    50    1
     6    38    36    1
     7    22    21    1
     8    50    42    1
     9    41    42   ar
    10    41    40   ar
    11    21    20    3
    12    20    12    1
    13    16    13    1
    14    42    43   ar
    15    12    13   ar
    16    12    14   ar
    17    13    15   ar
    18    25    23    1
    19    24    23    1
    20     5     4   ar
    21     5     1   ar
    22    14     4    1
    23    14    17   ar
    24     4     3   ar
    25     1     2   ar
    26     1     6    1
    27     2     3   ar
    28     2     7    1
    29     9    10    3
    30     9     3    1
    31    10    11    1
    32     7     8    1
    33    30    27    1
    34    15    28    1
    35    15    18   ar
    36    40    29    1
    37    40    44   ar
    38    27    29   ar
    39    27    26   ar
    40    29    32   ar
    41    35    34    1
    42    34    26    1
    43    26    28   ar
    44    28    31   ar
    45    32    31   ar
    46    32    36    1
    47    31    33    1
    48    36    39    1
    49    36    37    1
    50    17    18   ar
    51    17    19    1
    52    18    23    1
    53    43    44   ar
    54    43    46    1
    55    44    45    1
