@<TRIPOS>MOLECULE
mol_data/noopt/geoms/mol2/12fe12fe12fe.out
 32 34 0 0 0
SMALL
GASTEIGER

@<TRIPOS>ATOM
      1 C           0.1763    1.8460    0.0000 C.ar    1  LIG1        0.1353
      2 C           1.5558    1.8460    0.0000 C.ar    1  LIG1        0.1709
      3 C           1.9706    3.2334    0.0000 C.ar    1  LIG1        0.1149
      4 C           0.8165    3.9895   -0.0001 C.ar    1  LIG1        0.1924
      5 O          -0.3030    3.1567   -0.0002 O.2     1  LIG1       -0.4547
      6 H          -0.7504    0.9343    0.0000 H       1  LIG1        0.1068
      7 O           2.3515    0.8179    0.0001 O.3     1  LIG1       -0.5028
      8 H           3.2633    1.1184    0.0001 H       1  LIG1        0.2923
      9 C           3.1998    3.6567    0.0000 C.1     1  LIG1       -0.0621
     10 C           4.3355    4.0478    0.0000 C.1     1  LIG1       -0.1137
     11 H           5.3472    4.3962    0.0000 H       1  LIG1        0.1232
     12 C           0.5416    5.2601   -0.0001 C.ar    1  LIG1        0.2144
     13 C           1.2792    6.4258   -0.0001 C.ar    1  LIG1        0.1823
     14 C           0.3286    7.5182   -0.0001 C.ar    1  LIG1        0.1157
     15 C          -0.9274    6.9472   -0.0002 C.ar    1  LIG1        0.1934
     16 O          -0.8223    5.5559   -0.0003 O.2     1  LIG1       -0.4434
     17 O           2.5735    6.5485   -0.0000 O.3     1  LIG1       -0.5023
     18 H           2.8071    7.4796    0.0000 H       1  LIG1        0.2923
     19 C           0.6282    8.7832   -0.0001 C.1     1  LIG1       -0.0621
     20 C           0.9050    9.9521   -0.0001 C.1     1  LIG1       -0.1137
     21 H           1.1515   10.9933   -0.0001 H       1  LIG1        0.1232
     22 C          -2.1481    7.3943   -0.0002 C.ar    1  LIG1        0.2134
     23 C          -2.7387    8.6410   -0.0002 C.ar    1  LIG1        0.1815
     24 C          -4.1701    8.4218   -0.0002 C.ar    1  LIG1        0.1045
     25 C          -4.3593    7.0551   -0.0003 C.ar    1  LIG1        0.1118
     26 O          -3.1273    6.4000   -0.0004 O.2     1  LIG1       -0.4547
     27 H          -5.3898    6.2627   -0.0003 H       1  LIG1        0.1043
     28 O          -2.1503    9.8003   -0.0001 O.3     1  LIG1       -0.5023
     29 H          -2.8123   10.4956   -0.0001 H       1  LIG1        0.2923
     30 C          -5.0789    9.3514   -0.0002 C.1     1  LIG1       -0.0628
     31 C          -5.9187   10.2103   -0.0002 C.1     1  LIG1       -0.1137
     32 H          -6.6667   10.9754   -0.0002 H       1  LIG1        0.1232
@<TRIPOS>BOND
     1    26    25   ar
     2    26    22   ar
     3    27    25    1
     4    25    24   ar
     5    16    15   ar
     6    16    12   ar
     7    32    31    1
     8    31    30    3
     9    22    23   ar
    10    22    15    1
    11     5     4   ar
    12     5     1   ar
    13    30    24    1
    14    23    24   ar
    15    23    28    1
    16    15    14   ar
    17    12    13   ar
    18    12     4    1
    19    21    20    1
    20    20    19    3
    21    19    14    1
    22    14    13   ar
    23    13    17    1
    24    28    29    1
    25     4     3   ar
    26    17    18    1
    27     1     6    1
    28     1     2   ar
    29    11    10    1
    30    10     9    3
    31     9     3    1
    32     3     2   ar
    33     2     7    1
    34     7     8    1
