@<TRIPOS>MOLECULE
mol_data/noopt/geoms/mol2/12fe12fe-12fe.out
 32 34 0 0 0
SMALL
GASTEIGER

@<TRIPOS>ATOM
      1 C           0.1763    1.8460    0.0000 C.ar    1  LIG1        0.1353
      2 C           1.5558    1.8460    0.0000 C.ar    1  LIG1        0.1709
      3 C           1.9706    3.2334    0.0000 C.ar    1  LIG1        0.1149
      4 C           0.8165    3.9895   -0.0001 C.ar    1  LIG1        0.1924
      5 O          -0.3030    3.1567   -0.0002 O.2     1  LIG1       -0.4547
      6 H          -0.7504    0.9343    0.0000 H       1  LIG1        0.1068
      7 O           2.3515    0.8179    0.0001 O.3     1  LIG1       -0.5028
      8 H           3.2633    1.1184    0.0001 H       1  LIG1        0.2923
      9 C           3.1998    3.6567    0.0000 C.1     1  LIG1       -0.0621
     10 C           4.3355    4.0478    0.0000 C.1     1  LIG1       -0.1137
     11 H           5.3472    4.3962    0.0000 H       1  LIG1        0.1232
     12 C           0.5416    5.2601   -0.0001 C.ar    1  LIG1        0.2144
     13 C          -0.6119    6.0167   -0.0001 C.ar    1  LIG1        0.1823
     14 C          -0.1979    7.4043   -0.0001 C.ar    1  LIG1        0.1157
     15 C           1.1818    7.4036   -0.0002 C.ar    1  LIG1        0.1934
     16 O           1.6612    6.0932   -0.0003 O.2     1  LIG1       -0.4434
     17 O          -1.8411    5.5933   -0.0000 O.3     1  LIG1       -0.5023
     18 H          -1.8494    4.6334   -0.0000 H       1  LIG1        0.2923
     19 C          -0.9936    8.4323   -0.0001 C.1     1  LIG1       -0.0621
     20 C          -1.7288    9.3823   -0.0001 C.1     1  LIG1       -0.1137
     21 H          -2.3837   10.2284   -0.0001 H       1  LIG1        0.1232
     22 C           2.1085    8.3153   -0.0002 C.ar    1  LIG1        0.2134
     23 C           3.4880    8.3153   -0.0001 C.ar    1  LIG1        0.1815
     24 C           3.9028    9.7027   -0.0001 C.ar    1  LIG1        0.1045
     25 C           2.7487   10.4588   -0.0002 C.ar    1  LIG1        0.1118
     26 O           1.6292    9.6260   -0.0003 O.2     1  LIG1       -0.4547
     27 H           2.4738   11.7294   -0.0002 H       1  LIG1        0.1043
     28 O           4.2837    7.2872   -0.0000 O.3     1  LIG1       -0.5023
     29 H           5.1955    7.5877   -0.0000 H       1  LIG1        0.2923
     30 C           5.1320   10.1260   -0.0001 C.1     1  LIG1       -0.0628
     31 C           6.2677   10.5171   -0.0001 C.1     1  LIG1       -0.1137
     32 H           7.2794   10.8655   -0.0001 H       1  LIG1        0.1232
@<TRIPOS>BOND
     1    26    25   ar
     2    26    22   ar
     3    16    15   ar
     4    16    12   ar
     5    25    27    1
     6    25    24   ar
     7     5     4   ar
     8     5     1   ar
     9    15    22    1
    10    15    14   ar
    11    22    23   ar
    12    21    20    1
    13    23    24   ar
    14    23    28    1
    15    20    19    3
    16    13    14   ar
    17    13    12   ar
    18    13    17    1
    19    19    14    1
    20    24    30    1
    21    12     4    1
    22     4     3   ar
    23    30    31    3
    24    31    32    1
    25    17    18    1
    26    28    29    1
    27     1     6    1
    28     1     2   ar
    29    11    10    1
    30    10     9    3
    31     9     3    1
    32     3     2   ar
    33     2     7    1
    34     7     8    1
