@<TRIPOS>MOLECULE
mol_data/noopt/geoms/mol2/12fe12fe12fe12fe-.out
 42 45 0 0 0
SMALL
GASTEIGER

@<TRIPOS>ATOM
      1 C           0.1763    1.8460    0.0000 C.ar    1  LIG1        0.1353
      2 C           1.5558    1.8460    0.0000 C.ar    1  LIG1        0.1709
      3 C           1.9706    3.2334    0.0000 C.ar    1  LIG1        0.1149
      4 C           0.8165    3.9895   -0.0001 C.ar    1  LIG1        0.1924
      5 O          -0.3030    3.1567   -0.0002 O.2     1  LIG1       -0.4547
      6 H          -0.7504    0.9343    0.0000 H       1  LIG1        0.1068
      7 O           2.3515    0.8179    0.0001 O.3     1  LIG1       -0.5028
      8 H           3.2633    1.1184    0.0001 H       1  LIG1        0.2923
      9 C           3.1998    3.6567    0.0000 C.1     1  LIG1       -0.0621
     10 C           4.3355    4.0478    0.0000 C.1     1  LIG1       -0.1137
     11 H           5.3472    4.3962    0.0000 H       1  LIG1        0.1232
     12 C           0.5416    5.2601   -0.0001 C.ar    1  LIG1        0.2144
     13 C           1.2792    6.4258   -0.0001 C.ar    1  LIG1        0.1823
     14 C           0.3286    7.5182   -0.0001 C.ar    1  LIG1        0.1157
     15 C          -0.9274    6.9472   -0.0002 C.ar    1  LIG1        0.1934
     16 O          -0.8223    5.5559   -0.0003 O.2     1  LIG1       -0.4434
     17 O           2.5735    6.5485   -0.0000 O.3     1  LIG1       -0.5023
     18 H           2.8071    7.4796    0.0000 H       1  LIG1        0.2923
     19 C           0.6282    8.7832   -0.0001 C.1     1  LIG1       -0.0621
     20 C           0.9050    9.9521   -0.0001 C.1     1  LIG1       -0.1137
     21 H           1.1515   10.9933   -0.0001 H       1  LIG1        0.1232
     22 C          -2.1481    7.3943   -0.0002 C.ar    1  LIG1        0.2144
     23 C          -2.7387    8.6410   -0.0002 C.ar    1  LIG1        0.1823
     24 C          -4.1701    8.4218   -0.0002 C.ar    1  LIG1        0.1157
     25 C          -4.3593    7.0551   -0.0003 C.ar    1  LIG1        0.1934
     26 O          -3.1273    6.4000   -0.0004 O.2     1  LIG1       -0.4434
     27 O          -2.1503    9.8003   -0.0001 O.3     1  LIG1       -0.5023
     28 H          -2.8123   10.4956   -0.0001 H       1  LIG1        0.2923
     29 C          -5.0789    9.3514   -0.0002 C.1     1  LIG1       -0.0621
     30 C          -5.9187   10.2103   -0.0002 C.1     1  LIG1       -0.1137
     31 H          -6.6667   10.9754   -0.0002 H       1  LIG1        0.1232
     32 C          -5.3898    6.2627   -0.0003 C.ar    1  LIG1        0.2134
     33 C          -5.5796    4.8963   -0.0003 C.ar    1  LIG1        0.1815
     34 C          -7.0109    4.6763   -0.0003 C.ar    1  LIG1        0.1045
     35 C          -7.6010    5.9235   -0.0004 C.ar    1  LIG1        0.1118
     36 O          -6.6221    6.9178   -0.0005 O.2     1  LIG1       -0.4547
     37 H          -8.8217    6.3706   -0.0004 H       1  LIG1        0.1043
     38 O          -4.6708    3.9667   -0.0002 O.3     1  LIG1       -0.5023
     39 H          -3.7997    4.3702   -0.0002 H       1  LIG1        0.2923
     40 C          -7.5993    3.5171   -0.0003 C.1     1  LIG1       -0.0628
     41 C          -8.1429    2.4460   -0.0003 C.1     1  LIG1       -0.1137
     42 H          -8.6272    1.4918   -0.0003 H       1  LIG1        0.1232
@<TRIPOS>BOND
     1    36    35   ar
     2    36    32   ar
     3    26    25   ar
     4    26    22   ar
     5    35    37    1
     6    35    34   ar
     7    42    41    1
     8    41    40    3
     9    33    34   ar
    10    33    32   ar
    11    33    38    1
    12    40    34    1
    13    32    25    1
    14    25    24   ar
    15    16    15   ar
    16    16    12   ar
    17    38    39    1
    18    23    22   ar
    19    23    24   ar
    20    23    27    1
    21    22    15    1
    22    24    29    1
    23    29    30    3
    24    30    31    1
    25     5     4   ar
    26     5     1   ar
    27    15    14   ar
    28    21    20    1
    29     4    12    1
    30     4     3   ar
    31    12    13   ar
    32    13    14   ar
    33    13    17    1
    34    14    19    1
    35    27    28    1
    36    19    20    3
    37    17    18    1
    38    11    10    1
    39    10     9    3
    40     9     3    1
    41     6     1    1
    42     1     2   ar
    43     3     2   ar
    44     2     7    1
    45     7     8    1
