@<TRIPOS>MOLECULE
mol_data/noopt/geoms/mol2/12fe12fe-12fe12fe.out
 42 45 0 0 0
SMALL
GASTEIGER

@<TRIPOS>ATOM
      1 C           0.1763    1.8460    0.0000 C.ar    1  LIG1        0.1353
      2 C           1.5558    1.8460    0.0000 C.ar    1  LIG1        0.1709
      3 C           1.9706    3.2334    0.0000 C.ar    1  LIG1        0.1149
      4 C           0.8165    3.9895   -0.0001 C.ar    1  LIG1        0.1924
      5 O          -0.3030    3.1567   -0.0002 O.2     1  LIG1       -0.4547
      6 H          -0.7504    0.9343    0.0000 H       1  LIG1        0.1068
      7 O           2.3515    0.8179    0.0001 O.3     1  LIG1       -0.5028
      8 H           3.2633    1.1184    0.0001 H       1  LIG1        0.2923
      9 C           3.1998    3.6567    0.0000 C.1     1  LIG1       -0.0621
     10 C           4.3355    4.0478    0.0000 C.1     1  LIG1       -0.1137
     11 H           5.3472    4.3962    0.0000 H       1  LIG1        0.1232
     12 C           0.5416    5.2601   -0.0001 C.ar    1  LIG1        0.2144
     13 C          -0.6119    6.0167   -0.0001 C.ar    1  LIG1        0.1823
     14 C          -0.1979    7.4043   -0.0001 C.ar    1  LIG1        0.1157
     15 C           1.1818    7.4036   -0.0002 C.ar    1  LIG1        0.1934
     16 O           1.6612    6.0932   -0.0003 O.2     1  LIG1       -0.4434
     17 O          -1.8411    5.5933   -0.0000 O.3     1  LIG1       -0.5023
     18 H          -1.8494    4.6334   -0.0000 H       1  LIG1        0.2923
     19 C          -0.9936    8.4323   -0.0001 C.1     1  LIG1       -0.0621
     20 C          -1.7288    9.3823   -0.0001 C.1     1  LIG1       -0.1137
     21 H          -2.3837   10.2284   -0.0001 H       1  LIG1        0.1232
     22 C           2.1085    8.3153   -0.0002 C.ar    1  LIG1        0.2144
     23 C           3.4880    8.3153   -0.0001 C.ar    1  LIG1        0.1823
     24 C           3.9028    9.7027   -0.0001 C.ar    1  LIG1        0.1157
     25 C           2.7487   10.4588   -0.0002 C.ar    1  LIG1        0.1934
     26 O           1.6292    9.6260   -0.0003 O.2     1  LIG1       -0.4434
     27 O           4.2837    7.2872   -0.0000 O.3     1  LIG1       -0.5023
     28 H           5.1955    7.5877   -0.0000 H       1  LIG1        0.2923
     29 C           5.1320   10.1260   -0.0001 C.1     1  LIG1       -0.0621
     30 C           6.2677   10.5171   -0.0001 C.1     1  LIG1       -0.1137
     31 H           7.2794   10.8655   -0.0001 H       1  LIG1        0.1232
     32 C           2.4738   11.7294   -0.0002 C.ar    1  LIG1        0.2134
     33 C           3.2115   12.8951   -0.0002 C.ar    1  LIG1        0.1815
     34 C           2.2609   13.9875   -0.0002 C.ar    1  LIG1        0.1045
     35 C           1.0048   13.4165   -0.0003 C.ar    1  LIG1        0.1118
     36 O           1.1100   12.0252   -0.0004 O.2     1  LIG1       -0.4547
     37 H          -0.2159   13.8636   -0.0003 H       1  LIG1        0.1043
     38 O           4.5057   13.0177   -0.0001 O.3     1  LIG1       -0.5023
     39 H           4.7393   13.9489   -0.0001 H       1  LIG1        0.2923
     40 C           2.5604   15.2525   -0.0002 C.1     1  LIG1       -0.0628
     41 C           2.8372   16.4214   -0.0002 C.1     1  LIG1       -0.1137
     42 H           3.0838   17.4626   -0.0002 H       1  LIG1        0.1232
@<TRIPOS>BOND
     1    36    35   ar
     2    36    32   ar
     3    26    25   ar
     4    26    22   ar
     5    35    37    1
     6    35    34   ar
     7    16    15   ar
     8    16    12   ar
     9    25    32    1
    10    25    24   ar
    11    32    33   ar
    12     5     4   ar
    13     5     1   ar
    14    33    34   ar
    15    33    38    1
    16    34    40    1
    17    15    22    1
    18    15    14   ar
    19    40    41    3
    20    41    42    1
    21    22    23   ar
    22    21    20    1
    23    23    24   ar
    24    23    27    1
    25    20    19    3
    26    13    14   ar
    27    13    12   ar
    28    13    17    1
    29    19    14    1
    30    24    29    1
    31     4    12    1
    32     4     3   ar
    33    38    39    1
    34    29    30    3
    35    30    31    1
    36    17    18    1
    37    27    28    1
    38     1     6    1
    39     1     2   ar
    40    11    10    1
    41    10     9    3
    42     9     3    1
    43     3     2   ar
    44     2     7    1
    45     7     8    1
