@<TRIPOS>MOLECULE
mol_data/noopt/geoms/mol2/12fe12fe-12fe-12fe.out
 42 45 0 0 0
SMALL
GASTEIGER

@<TRIPOS>ATOM
      1 C           0.1763    1.8460    0.0000 C.ar    1  LIG1        0.1353
      2 C           1.5558    1.8460    0.0000 C.ar    1  LIG1        0.1709
      3 C           1.9706    3.2334    0.0000 C.ar    1  LIG1        0.1149
      4 C           0.8165    3.9895   -0.0001 C.ar    1  LIG1        0.1924
      5 O          -0.3030    3.1567   -0.0002 O.2     1  LIG1       -0.4547
      6 H          -0.7504    0.9343    0.0000 H       1  LIG1        0.1068
      7 O           2.3515    0.8179    0.0001 O.3     1  LIG1       -0.5028
      8 H           3.2633    1.1184    0.0001 H       1  LIG1        0.2923
      9 C           3.1998    3.6567    0.0000 C.1     1  LIG1       -0.0621
     10 C           4.3355    4.0478    0.0000 C.1     1  LIG1       -0.1137
     11 H           5.3472    4.3962    0.0000 H       1  LIG1        0.1232
     12 C           0.5416    5.2601   -0.0001 C.ar    1  LIG1        0.2144
     13 C          -0.6119    6.0167   -0.0001 C.ar    1  LIG1        0.1823
     14 C          -0.1979    7.4043   -0.0001 C.ar    1  LIG1        0.1157
     15 C           1.1818    7.4036   -0.0002 C.ar    1  LIG1        0.1934
     16 O           1.6612    6.0932   -0.0003 O.2     1  LIG1       -0.4434
     17 O          -1.8411    5.5933   -0.0000 O.3     1  LIG1       -0.5023
     18 H          -1.8494    4.6334   -0.0000 H       1  LIG1        0.2923
     19 C          -0.9936    8.4323   -0.0001 C.1     1  LIG1       -0.0621
     20 C          -1.7288    9.3823   -0.0001 C.1     1  LIG1       -0.1137
     21 H          -2.3837   10.2284   -0.0001 H       1  LIG1        0.1232
     22 C           2.1085    8.3153   -0.0002 C.ar    1  LIG1        0.2144
     23 C           2.1310    9.6946   -0.0002 C.ar    1  LIG1        0.1823
     24 C           3.5250   10.0867   -0.0001 C.ar    1  LIG1        0.1157
     25 C           4.2622    8.9204   -0.0002 C.ar    1  LIG1        0.1934
     26 O           3.4112    7.8147   -0.0003 O.2     1  LIG1       -0.4434
     27 O           1.1161   10.5070   -0.0001 O.3     1  LIG1       -0.5023
     28 H           0.3004   10.0007   -0.0001 H       1  LIG1        0.2923
     29 C           3.9683   11.3088   -0.0001 C.1     1  LIG1       -0.0621
     30 C           4.3779   12.4380   -0.0001 C.1     1  LIG1       -0.1137
     31 H           4.7428   13.4439   -0.0001 H       1  LIG1        0.1232
     32 C           5.5281    8.6248   -0.0002 C.ar    1  LIG1        0.2134
     33 C           6.2658    7.4591   -0.0001 C.ar    1  LIG1        0.1815
     34 C           7.6600    7.8504   -0.0001 C.ar    1  LIG1        0.1045
     35 C           7.6818    9.2300   -0.0002 C.ar    1  LIG1        0.1118
     36 O           6.3794    9.7307   -0.0003 O.2     1  LIG1       -0.4547
     37 H           8.6085   10.1417   -0.0002 H       1  LIG1        0.1043
     38 O           5.8225    6.2370   -0.0000 O.3     1  LIG1       -0.5023
     39 H           6.5639    5.6272   -0.0000 H       1  LIG1        0.2923
     40 C           8.6749    7.0381   -0.0001 C.1     1  LIG1       -0.0628
     41 C           9.6127    6.2875   -0.0000 C.1     1  LIG1       -0.1137
     42 H          10.4481    5.6189   -0.0000 H       1  LIG1        0.1232
@<TRIPOS>BOND
     1    36    35   ar
     2    36    32   ar
     3    26    25   ar
     4    26    22   ar
     5    16    15   ar
     6    16    12   ar
     7    35    37    1
     8    35    34   ar
     9     5     4   ar
    10     5     1   ar
    11    25    32    1
    12    25    24   ar
    13    15    22    1
    14    15    14   ar
    15    32    33   ar
    16    23    22   ar
    17    23    24   ar
    18    23    27    1
    19    21    20    1
    20    33    34   ar
    21    33    38    1
    22    20    19    3
    23    13    14   ar
    24    13    12   ar
    25    13    17    1
    26    24    29    1
    27    19    14    1
    28    29    30    3
    29    30    31    1
    30    12     4    1
    31     4     3   ar
    32    34    40    1
    33    27    28    1
    34    40    41    3
    35    17    18    1
    36    38    39    1
    37    41    42    1
    38    11    10    1
    39    10     9    3
    40     9     3    1
    41     6     1    1
    42     3     2   ar
    43     2     1   ar
    44     2     7    1
    45     7     8    1
