@<TRIPOS>MOLECULE
mol_data/noopt/geoms/mol2/12fe4hh6il13df.out
 52 54 0 0 0
SMALL
GASTEIGER

@<TRIPOS>ATOM
      1 C           0.1763    1.8460    0.0000 C.ar    1  LIG1        0.1351
      2 C           1.5558    1.8460    0.0000 C.ar    1  LIG1        0.1708
      3 C           1.9706    3.2334    0.0000 C.ar    1  LIG1        0.1118
      4 C           0.8165    3.9895   -0.0001 C.ar    1  LIG1        0.1556
      5 O          -0.3030    3.1567   -0.0002 O.2     1  LIG1       -0.4579
      6 H          -0.7504    0.9343    0.0000 H       1  LIG1        0.1068
      7 O           2.3515    0.8179    0.0001 O.3     1  LIG1       -0.5028
      8 H           3.2633    1.1184    0.0001 H       1  LIG1        0.2923
      9 C           3.1998    3.6567    0.0000 C.1     1  LIG1       -0.0622
     10 C           4.3355    4.0478    0.0000 C.1     1  LIG1       -0.1137
     11 H           5.3472    4.3962    0.0000 H       1  LIG1        0.1232
     12 C           1.5879    6.2051    0.0007 C.ar    1  LIG1        0.0361
     13 C           1.2379    7.5692    0.0022 C.ar    1  LIG1       -0.0308
     14 C           0.5416    5.2600   -0.0001 C.ar    1  LIG1        0.0410
     15 C          -0.0943    7.9766    0.0023 C.ar    1  LIG1        0.0067
     16 H           2.0295    8.3152    0.0030 H       1  LIG1        0.0643
     17 C          -0.7885    5.6662    0.0000 C.ar    1  LIG1       -0.0280
     18 C          -1.1159    7.0261    0.0011 C.ar    1  LIG1        0.0332
     19 H          -1.5772    4.9182   -0.0005 H       1  LIG1        0.0644
     20 N           2.8483    5.8866    0.0003 N.pl3   1  LIG1       -0.3574
     21 H           2.9712    5.0134   -0.4712 H       1  LIG1        0.1423
     22 H           3.3713    6.5965   -0.4712 H       1  LIG1        0.1423
     23 N          -2.3610    7.3999    0.0014 N.pl3   1  LIG1       -0.3575
     24 H          -2.4456    8.2778   -0.4699 H       1  LIG1        0.0227
     25 H          -2.9151    6.7138   -0.4700 H       1  LIG1        0.1423
     26 C          -1.7226    9.6699    0.0045 C.ar    1  LIG1        0.0985
     27 C          -0.3815    9.2445    0.0036 C.ar    1  LIG1        0.0149
     28 C           0.6249   10.2121    0.0045 C.ar    1  LIG1       -0.0079
     29 C           0.2612   11.5599    0.0060 C.ar    1  LIG1        0.1480
     30 C          -1.1074   11.8861    0.0066 C.ar    1  LIG1        0.1307
     31 N          -2.0913   10.9656    0.0059 N.ar    1  LIG1       -0.2393
     32 H           1.6839    9.9179    0.0029 H       1  LIG1        0.0661
     33 C          -2.6948    8.8065    0.0038 C.3     2  LIG2       -0.0681
     34 H          -2.3817    7.9162    0.5081 H       1  LIG1        0.1423
     35 H          -2.9611    8.5699   -1.0052 H       1  LIG1        0.0227
     36 H          -3.5418    9.2228    0.5080 H       1  LIG1        0.0227
     37 O           1.1606   12.4986    0.0067 O.3     1  LIG1       -0.4929
     38 C           2.4641   11.9108    0.0069 C.3     1  LIG1        0.0789
     39 H           3.2040   12.6837    0.0073 H       1  LIG1        0.0660
     40 H           2.5817   11.3041    0.8804 H       1  LIG1        0.0660
     41 H           2.5822   11.3045   -0.8669 H       1  LIG1        0.0660
     42 C          -1.4958   13.1267    0.0081 C.ar    1  LIG1        0.0898
     43 C          -0.7722   14.2774    0.0253 C.ar    1  LIG1        0.1199
     44 C          -1.7014   15.3670    0.0191 C.ar    1  LIG1        0.1521
     45 C          -2.9519   14.8343   -0.0034 C.ar    1  LIG1        0.0455
     46 N          -2.8306   13.4630   -0.0098 N.ar    1  LIG1       -0.3553
     47 H          -3.5868   12.8181   -0.0255 H       1  LIG1        0.1655
     48 H          -4.1155   15.4138   -0.0169 H       1  LIG1        0.0845
     49 N           1.6681   14.4478    0.0631 N.1     1  LIG1       -0.1907
     50 C           0.5245   14.3680    0.0454 C.1     1  LIG1        0.1050
     51 O          -1.4072   16.6333    0.0321 O.3     1  LIG1       -0.5040
     52 H          -2.2162   17.1502    0.0353 H       1  LIG1        0.2923
@<TRIPOS>BOND
     1    35    33    1
     2    41    38    1
     3    22    20    1
     4    21    20    1
     5    25    23    1
     6    24    33    1
     7    47    46    1
     8    48    45    1
     9    46    45   ar
    10    46    42   ar
    11    45    44   ar
    12    19    17    1
    13     5     4   ar
    14     5     1   ar
    15    14     4    1
    16    14    17   ar
    17    14    12   ar
    18     4     3   ar
    19    11    10    1
    20    10     9    3
    21     9     3    1
    22     1     6    1
    23     1     2   ar
    24     3     2   ar
    25     2     7    1
    26    17    18   ar
    27     7     8    1
    28    20    12    1
    29    12    13   ar
    30    18    23    1
    31    18    15   ar
    32    23    34    1
    33    13    15   ar
    34    13    16    1
    35    15    27    1
    36    32    28    1
    37    27    26   ar
    38    27    28   ar
    39    33    36    1
    40    26    31   ar
    41    28    29   ar
    42    31    30   ar
    43    29    30   ar
    44    29    37    1
    45    30    42    1
    46    37    38    1
    47    38    39    1
    48    38    40    1
    49    42    43   ar
    50    44    43   ar
    51    44    51    1
    52    43    50    1
    53    51    52    1
    54    50    49    3
