@<TRIPOS>MOLECULE
mol_data/noopt/geoms/mol2/12fe4hh(290)13fh(80)12ae(260).out
 46 49 0 0 0
SMALL
GASTEIGER

@<TRIPOS>ATOM
      1 C           0.1763    1.8460    0.0000 C.ar    1  LIG1        0.1351
      2 C           1.5558    1.8460    0.0000 C.ar    1  LIG1        0.1708
      3 C           1.9706    3.2334    0.0000 C.ar    1  LIG1        0.1118
      4 C           0.8165    3.9895   -0.0001 C.ar    1  LIG1        0.1556
      5 O          -0.3030    3.1567   -0.0002 O.2     1  LIG1       -0.4579
      6 H          -0.7504    0.9343    0.0000 H       1  LIG1        0.1068
      7 O           2.3515    0.8179    0.0001 O.3     1  LIG1       -0.5028
      8 H           3.2633    1.1184    0.0001 H       1  LIG1        0.2923
      9 C           3.1998    3.6567    0.0000 C.1     1  LIG1       -0.0622
     10 C           4.3355    4.0478    0.0000 C.1     1  LIG1       -0.1137
     11 H           5.3472    4.3962    0.0000 H       1  LIG1        0.1232
     12 C           0.8024    6.0352   -1.1486 C.ar    1  LIG1        0.0361
     13 C           0.4883    7.4071   -1.0976 C.ar    1  LIG1       -0.0294
     14 C           0.5416    5.2600   -0.0001 C.ar    1  LIG1        0.0410
     15 C          -0.0618    7.9837    0.0449 C.ar    1  LIG1        0.0243
     16 H           0.6817    8.0236   -1.9727 H       1  LIG1        0.0643
     17 C          -0.0076    5.8352    1.1408 C.ar    1  LIG1       -0.0279
     18 C          -0.3131    7.1998    1.1717 C.ar    1  LIG1        0.0347
     19 H          -0.1993    5.2164    2.0137 H       1  LIG1        0.0644
     20 N           1.3136    5.5546   -2.2430 N.pl3   1  LIG1       -0.3574
     21 H           0.5963    5.1083   -2.7780 H       1  LIG1        0.1423
     22 H           1.7148    6.2981   -2.7780 H       1  LIG1        0.1423
     23 N          -0.8262    7.7320    2.2411 N.pl3   1  LIG1       -0.3574
     24 H          -0.6391    8.7143    2.2472 H       1  LIG1        0.1423
     25 H          -1.8147    7.5809    2.2472 H       1  LIG1        0.1423
     26 C          -0.3397    9.2536    0.0572 C.ar    1  LIG1        0.0927
     27 C          -0.3355   10.1474    1.0814 C.ar    1  LIG1        0.1636
     28 C          -0.7228   11.4166    0.5430 C.ar    1  LIG1        0.0959
     29 C          -0.9450   11.2428   -0.7869 C.ar    1  LIG1        0.1071
     30 N          -0.7120    9.9199   -1.0884 N.ar    1  LIG1       -0.3473
     31 H          -0.7983    9.5110   -1.9902 H       1  LIG1        0.1662
     32 O          -0.0360    9.8929    2.3206 O.3     1  LIG1       -0.5031
     33 H           0.6239   10.5196    2.6260 H       1  LIG1        0.2923
     34 N          -0.8408   12.5315    1.2011 N.pl3   1  LIG1       -0.3534
     35 H          -0.0842   13.1406    0.9633 H       1  LIG1        0.1425
     36 H          -1.7081   12.9687    0.9633 H       1  LIG1        0.1425
     37 C          -1.3124   12.0932   -1.6989 C.ar    1  LIG1        0.1540
     38 C          -1.5017   12.0500   -3.0647 C.ar    1  LIG1        0.0011
     39 C          -1.9242   13.3753   -3.4670 C.ar    1  LIG1        0.0630
     40 C          -1.9652   14.1408   -2.3199 C.ar    1  LIG1        0.1080
     41 O          -1.5922   13.3725   -1.2165 O.2     1  LIG1       -0.4602
     42 H          -2.2624   15.3751   -2.0401 H       1  LIG1        0.1042
     43 H          -1.3398   11.0334   -3.8586 H       1  LIG1        0.0668
     44 C          -2.2044   13.7451   -4.6814 C.1     1  LIG1       -0.0665
     45 C          -2.4634   14.0868   -5.8035 C.1     1  LIG1       -0.1138
     46 H          -2.6940   14.3911   -6.8031 H       1  LIG1        0.1232
@<TRIPOS>BOND
     1    46    45    1
     2    45    44    3
     3    44    39    1
     4    43    38    1
     5    39    38   ar
     6    39    40   ar
     7    38    37   ar
     8    22    20    1
     9    21    20    1
    10    40    42    1
    11    40    41   ar
    12    20    12    1
    13    31    30    1
    14    16    13    1
    15    37    41   ar
    16    37    29    1
    17    12    13   ar
    18    12    14   ar
    19    13    15   ar
    20    30    29   ar
    21    30    26   ar
    22    29    28   ar
    23     5     4   ar
    24     5     1   ar
    25    14     4    1
    26    14    17   ar
    27     4     3   ar
    28     1     2   ar
    29     1     6    1
    30     2     3   ar
    31     2     7    1
    32     3     9    1
    33     9    10    3
    34    10    11    1
    35     7     8    1
    36    15    26    1
    37    15    18   ar
    38    26    27   ar
    39    28    27   ar
    40    28    34    1
    41    36    34    1
    42    35    34    1
    43    27    32    1
    44    17    18   ar
    45    17    19    1
    46    18    23    1
    47    23    24    1
    48    23    25    1
    49    32    33    1
