@<TRIPOS>MOLECULE
mol_data/noopt/geoms/mol2/12fe12fe12fe-12fe-.out
 42 45 0 0 0
SMALL
GASTEIGER

@<TRIPOS>ATOM
      1 C           0.1763    1.8460    0.0000 C.ar    1  LIG1        0.1353
      2 C           1.5558    1.8460    0.0000 C.ar    1  LIG1        0.1709
      3 C           1.9706    3.2334    0.0000 C.ar    1  LIG1        0.1149
      4 C           0.8165    3.9895   -0.0001 C.ar    1  LIG1        0.1924
      5 O          -0.3030    3.1567   -0.0002 O.2     1  LIG1       -0.4547
      6 H          -0.7504    0.9343    0.0000 H       1  LIG1        0.1068
      7 O           2.3515    0.8179    0.0001 O.3     1  LIG1       -0.5028
      8 H           3.2633    1.1184    0.0001 H       1  LIG1        0.2923
      9 C           3.1998    3.6567    0.0000 C.1     1  LIG1       -0.0621
     10 C           4.3355    4.0478    0.0000 C.1     1  LIG1       -0.1137
     11 H           5.3472    4.3962    0.0000 H       1  LIG1        0.1232
     12 C           0.5416    5.2601   -0.0001 C.ar    1  LIG1        0.2144
     13 C           1.2792    6.4258   -0.0001 C.ar    1  LIG1        0.1823
     14 C           0.3286    7.5182   -0.0001 C.ar    1  LIG1        0.1157
     15 C          -0.9274    6.9472   -0.0002 C.ar    1  LIG1        0.1934
     16 O          -0.8223    5.5559   -0.0003 O.2     1  LIG1       -0.4434
     17 O           2.5735    6.5485   -0.0000 O.3     1  LIG1       -0.5023
     18 H           2.8071    7.4796    0.0000 H       1  LIG1        0.2923
     19 C           0.6282    8.7832   -0.0001 C.1     1  LIG1       -0.0621
     20 C           0.9050    9.9521   -0.0001 C.1     1  LIG1       -0.1137
     21 H           1.1515   10.9933   -0.0001 H       1  LIG1        0.1232
     22 C          -2.1481    7.3943   -0.0002 C.ar    1  LIG1        0.2144
     23 C          -3.4042    6.8241   -0.0002 C.ar    1  LIG1        0.1823
     24 C          -4.3554    7.9160   -0.0002 C.ar    1  LIG1        0.1157
     25 C          -3.6171    9.0815   -0.0003 C.ar    1  LIG1        0.1934
     26 O          -2.2534    8.7859   -0.0004 O.2     1  LIG1       -0.4434
     27 O          -3.7038    5.5591   -0.0001 O.3     1  LIG1       -0.5023
     28 H          -2.8970    5.0387   -0.0001 H       1  LIG1        0.2923
     29 C          -5.6496    7.7933   -0.0002 C.1     1  LIG1       -0.0621
     30 C          -6.8455    7.6800   -0.0002 C.1     1  LIG1       -0.1137
     31 H          -7.9107    7.5790   -0.0002 H       1  LIG1        0.1232
     32 C          -3.8920   10.3521   -0.0003 C.ar    1  LIG1        0.2134
     33 C          -5.0455   11.1087   -0.0003 C.ar    1  LIG1        0.1815
     34 C          -4.6315   12.4963   -0.0002 C.ar    1  LIG1        0.1045
     35 C          -3.2517   12.4956   -0.0003 C.ar    1  LIG1        0.1118
     36 O          -2.7723   11.1852   -0.0004 O.2     1  LIG1       -0.4547
     37 H          -2.3250   13.4073   -0.0003 H       1  LIG1        0.1043
     38 O          -6.2747   10.6854   -0.0002 O.3     1  LIG1       -0.5023
     39 H          -6.2830    9.7254   -0.0002 H       1  LIG1        0.2923
     40 C          -5.4271   13.5243   -0.0002 C.1     1  LIG1       -0.0628
     41 C          -6.1623   14.4743   -0.0002 C.1     1  LIG1       -0.1137
     42 H          -6.8172   15.3204   -0.0002 H       1  LIG1        0.1232
@<TRIPOS>BOND
     1    36    35   ar
     2    36    32   ar
     3    26    25   ar
     4    26    22   ar
     5    16    15   ar
     6    16    12   ar
     7    35    37    1
     8    35    34   ar
     9    25    32    1
    10    25    24   ar
    11    33    32   ar
    12    33    34   ar
    13    33    38    1
    14    31    30    1
    15    30    29    3
    16    23    24   ar
    17    23    22   ar
    18    23    27    1
    19    34    40    1
    20    29    24    1
    21    40    41    3
    22    41    42    1
    23    22    15    1
    24    15    14   ar
    25     5     4   ar
    26     5     1   ar
    27    38    39    1
    28    27    28    1
    29    20    19    3
    30    20    21    1
    31    19    14    1
    32    14    13   ar
    33    13    12   ar
    34    13    17    1
    35    12     4    1
    36     4     3   ar
    37     1     2   ar
    38     1     6    1
    39     2     3   ar
    40     2     7    1
    41     3     9    1
    42     9    10    3
    43    10    11    1
    44    17    18    1
    45     7     8    1
