@<TRIPOS>MOLECULE
mol_data/noopt/geoms/mol2/12fe13ae(180)13ae(320)4fd(240).out
 44 47 0 0 0
SMALL
GASTEIGER

@<TRIPOS>ATOM
      1 C           0.1763    1.8460    0.0000 C.ar    1  LIG1        0.1352
      2 C           1.5558    1.8460    0.0000 C.ar    1  LIG1        0.1709
      3 C           1.9706    3.2334    0.0000 C.ar    1  LIG1        0.1132
      4 C           0.8165    3.9895   -0.0001 C.ar    1  LIG1        0.1699
      5 O          -0.3030    3.1567   -0.0002 O.2     1  LIG1       -0.4564
      6 H          -0.7504    0.9343    0.0000 H       1  LIG1        0.1068
      7 O           2.3515    0.8179    0.0001 O.3     1  LIG1       -0.5028
      8 H           3.2633    1.1184    0.0001 H       1  LIG1        0.2923
      9 C           3.1998    3.6567    0.0000 C.1     1  LIG1       -0.0621
     10 C           4.3355    4.0478    0.0000 C.1     1  LIG1       -0.1137
     11 H           5.3472    4.3962    0.0000 H       1  LIG1        0.1232
     12 C           0.5416    5.2601   -0.0001 C.ar    1  LIG1        0.0851
     13 C          -0.6560    5.9034    0.0004 C.ar    1  LIG1       -0.0173
     14 C          -0.3860    7.3097   -0.0010 C.ar    1  LIG1        0.0520
     15 C           0.9646    7.4640   -0.0005 C.ar    1  LIG1        0.0790
     16 N           1.5364    6.2117   -0.0004 N.ar    1  LIG1       -0.3496
     17 H           2.5126    6.0243   -0.0000 H       1  LIG1        0.1661
     18 H          -1.8284    5.3418    0.0005 H       1  LIG1        0.0652
     19 C          -1.2672    8.2655   -0.0020 C.1     1  LIG1       -0.0675
     20 C          -2.0814    9.1486   -0.0030 C.1     1  LIG1       -0.1138
     21 H          -2.8067    9.9353   -0.0038 H       1  LIG1        0.1232
     22 C           1.6904    8.5425   -0.0012 C.ar    1  LIG1        0.0657
     23 C           2.8618    8.8169   -0.6341 C.ar    1  LIG1       -0.0189
     24 C           3.2296   10.1576   -0.2908 C.ar    1  LIG1        0.0506
     25 C           2.2659   10.6441    0.5354 C.ar    1  LIG1        0.0661
     26 N           1.3219    9.6584    0.7157 N.ar    1  LIG1       -0.3519
     27 H           0.5038    9.7398    1.2744 H       1  LIG1        0.1660
     28 H           3.5241    8.0079   -1.4067 H       1  LIG1        0.0652
     29 C           4.2885   10.7953   -0.6933 C.1     1  LIG1       -0.0675
     30 C           5.2669   11.3846   -1.0652 C.1     1  LIG1       -0.1138
     31 H           6.1385   11.9095   -1.3965 H       1  LIG1        0.1232
     32 C           1.4402   12.8390    0.4672 C.ar    1  LIG1        0.1260
     33 C           1.3485   14.0791    1.1283 C.ar    1  LIG1       -0.0183
     34 C           2.1536   11.8056    1.1083 C.ar    1  LIG1        0.0421
     35 C           1.9397   14.2833    2.3731 C.ar    1  LIG1       -0.0409
     36 H           0.8029   14.8902    0.6514 H       1  LIG1        0.0655
     37 C           2.7440   12.0090    2.3509 C.ar    1  LIG1       -0.0317
     38 C           2.6414   13.2480    2.9919 C.ar    1  LIG1        0.0526
     39 H           3.2889   11.1964    2.8248 H       1  LIG1        0.0638
     40 H           1.8352   15.4410    2.9552 H       1  LIG1        0.0631
     41 O           0.8675   12.7089   -0.6926 O.3     1  LIG1       -0.5061
     42 H           0.9268   11.7944   -0.9785 H       1  LIG1        0.2922
     43 N           3.6842   13.5948    5.1778 N.1     1  LIG1       -0.1909
     44 C           3.1955   13.4322    4.1534 C.1     1  LIG1        0.0992
@<TRIPOS>BOND
     1    28    23    1
     2    31    30    1
     3    30    29    3
     4    42    41    1
     5    29    24    1
     6    41    32    1
     7    23    24   ar
     8    23    22   ar
     9    24    25   ar
    10    21    20    1
    11    20    19    3
    12    19    14    1
    13    22    15    1
    14    22    26   ar
    15    14    15   ar
    16    14    13   ar
    17    15    16   ar
    18    16    12   ar
    19    16    17    1
    20     5     4   ar
    21     5     1   ar
    22    12     4    1
    23    12    13   ar
    24     4     3   ar
    25     1     2   ar
    26     1     6    1
    27    11    10    1
    28    10     9    3
    29     2     3   ar
    30     2     7    1
    31     9     3    1
    32     7     8    1
    33    13    18    1
    34    32    34   ar
    35    32    33   ar
    36    25    26   ar
    37    25    34    1
    38    36    33    1
    39    26    27    1
    40    34    37   ar
    41    33    35   ar
    42    37    39    1
    43    37    38   ar
    44    35    40    1
    45    35    38   ar
    46    38    44    1
    47    44    43    3
