@<TRIPOS>MOLECULE
mol_data/noopt/geoms/mol2/12fe13di6id12ae.out
 46 49 0 0 0
SMALL
GASTEIGER

@<TRIPOS>ATOM
      1 C           0.1763    1.8460    0.0000 C.ar    1  LIG1        0.1352
      2 C           1.5558    1.8460    0.0000 C.ar    1  LIG1        0.1709
      3 C           1.9706    3.2334    0.0000 C.ar    1  LIG1        0.1132
      4 C           0.8165    3.9895   -0.0001 C.ar    1  LIG1        0.1711
      5 O          -0.3030    3.1567   -0.0002 O.2     1  LIG1       -0.4564
      6 H          -0.7504    0.9343    0.0000 H       1  LIG1        0.1068
      7 O           2.3515    0.8179    0.0001 O.3     1  LIG1       -0.5028
      8 H           3.2633    1.1184    0.0001 H       1  LIG1        0.2923
      9 C           3.1998    3.6567    0.0000 C.1     1  LIG1       -0.0621
     10 C           4.3355    4.0478    0.0000 C.1     1  LIG1       -0.1137
     11 H           5.3472    4.3962    0.0000 H       1  LIG1        0.1232
     12 C           0.5416    5.2601   -0.0001 C.ar    1  LIG1        0.1017
     13 C           1.3660    6.3408    0.0161 C.ar    1  LIG1        0.0835
     14 C           0.5390    7.5098    0.0084 C.ar    1  LIG1       -0.0071
     15 C          -0.7545    7.0921   -0.0139 C.ar    1  LIG1        0.0529
     16 N          -0.7574    5.7154   -0.0188 N.ar    1  LIG1       -0.3504
     17 H          -1.5687    5.1413   -0.0340 H       1  LIG1        0.1660
     18 N           3.8118    6.2904    0.0545 N.1     1  LIG1       -0.1908
     19 C           2.6656    6.3141    0.0365 C.1     1  LIG1        0.1017
     20 C           0.9463    8.7447    0.0202 C.3     1  LIG1       -0.0365
     21 H           0.2269    9.3527    0.5278 H       1  LIG1        0.0279
     22 H           1.0608    9.0920   -0.9854 H       1  LIG1        0.0279
     23 H           1.8863    8.8054    0.5277 H       1  LIG1        0.0279
     24 C          -3.1034    7.1138   -0.0362 C.ar    1  LIG1        0.0482
     25 C          -1.8611    7.7741   -0.0284 C.ar    1  LIG1        0.0209
     26 C          -1.8480    9.1701   -0.0363 C.ar    1  LIG1       -0.0313
     27 C          -3.0652    9.8534   -0.0518 C.ar    1  LIG1        0.0813
     28 C          -4.2559    9.1041   -0.0587 C.ar    1  LIG1        0.1236
     29 N          -4.2869    7.7571   -0.0511 N.ar    1  LIG1       -0.2468
     30 H          -0.8967    9.7207   -0.0316 H       1  LIG1        0.0638
     31 C          -3.1671    5.8151   -0.0293 C.3     1  LIG1       -0.0217
     32 H          -2.3118    5.4187    0.4771 H       1  LIG1        0.0293
     33 H          -3.1847    5.4534   -1.0362 H       1  LIG1        0.0293
     34 H          -4.0570    5.5043    0.4770 H       1  LIG1        0.0293
     35 N          -3.1427   12.2987   -0.0669 N.1     1  LIG1       -0.1908
     36 C          -3.1064   11.1527   -0.0598 C.1     1  LIG1        0.1014
     37 C          -5.4139    9.6947   -0.0730 C.ar    1  LIG1        0.1554
     38 C          -5.8502   11.0034   -0.0838 C.ar    1  LIG1        0.0011
     39 C          -7.2975   10.9580   -0.0977 C.ar    1  LIG1        0.0630
     40 C          -7.6497    9.6240   -0.0946 C.ar    1  LIG1        0.1080
     41 O          -6.5056    8.8254   -0.0795 O.2     1  LIG1       -0.4601
     42 H          -8.7681    8.9612   -0.1022 H       1  LIG1        0.1042
     43 H          -5.1266   12.0834   -0.0820 H       1  LIG1        0.0668
     44 C          -8.0878   11.9901   -0.1106 C.1     1  LIG1       -0.0665
     45 C          -8.8180   12.9438   -0.1225 C.1     1  LIG1       -0.1138
     46 H          -9.4685   13.7933   -0.1331 H       1  LIG1        0.1232
@<TRIPOS>BOND
     1    33    31    1
     2    22    20    1
     3    46    45    1
     4    45    44    3
     5    44    39    1
     6    42    40    1
     7    39    40   ar
     8    39    38   ar
     9    40    41   ar
    10    38    43    1
    11    38    37   ar
    12    41    37   ar
    13    37    28    1
    14    35    36    3
    15    36    27    1
    16    28    27   ar
    17    28    29   ar
    18    27    26   ar
    19    29    24   ar
    20    26    30    1
    21    26    25   ar
    22    24    31    1
    23    24    25   ar
    24    17    16    1
    25    31    34    1
    26    31    32    1
    27    25    15    1
    28    16    15   ar
    29    16    12   ar
    30    15    14   ar
    31     5     4   ar
    32     5     1   ar
    33    12     4    1
    34    12    13   ar
    35     4     3   ar
    36    10    11    1
    37    10     9    3
    38     9     3    1
    39     6     1    1
    40     1     2   ar
    41     3     2   ar
    42     2     7    1
    43     7     8    1
    44    14    13   ar
    45    14    20    1
    46    13    19    1
    47    20    23    1
    48    20    21    1
    49    19    18    3
