@<TRIPOS>MOLECULE
mol_data/noopt/geoms/mol2/12fe13hi(180)4ai(20)13da(70).out
 47 50 0 0 0
SMALL
GASTEIGER

@<TRIPOS>ATOM
      1 C           0.1763    1.8460    0.0000 C.ar    1  LIG1        0.1352
      2 C           1.5558    1.8460    0.0000 C.ar    1  LIG1        0.1709
      3 C           1.9706    3.2334    0.0000 C.ar    1  LIG1        0.1133
      4 C           0.8165    3.9895   -0.0001 C.ar    1  LIG1        0.1717
      5 O          -0.3030    3.1567   -0.0002 O.2     1  LIG1       -0.4564
      6 H          -0.7504    0.9343    0.0000 H       1  LIG1        0.1068
      7 O           2.3515    0.8179    0.0001 O.3     1  LIG1       -0.5028
      8 H           3.2633    1.1184    0.0001 H       1  LIG1        0.2923
      9 C           3.1998    3.6567    0.0000 C.1     1  LIG1       -0.0621
     10 C           4.3355    4.0478    0.0000 C.1     1  LIG1       -0.1137
     11 H           5.3472    4.3962    0.0000 H       1  LIG1        0.1232
     12 C           0.5416    5.2601   -0.0001 C.ar    1  LIG1        0.1050
     13 C          -0.6560    5.9034    0.0004 C.ar    1  LIG1        0.0568
     14 C          -0.3860    7.3097   -0.0010 C.ar    1  LIG1       -0.0038
     15 C           0.9646    7.4640   -0.0005 C.ar    1  LIG1        0.0517
     16 N           1.5364    6.2117   -0.0004 N.ar    1  LIG1       -0.3500
     17 H           2.5126    6.0243   -0.0000 H       1  LIG1        0.1661
     18 N          -1.8284    5.3418    0.0005 N.pl3   1  LIG1       -0.3560
     19 H          -2.4818    5.9341   -0.4709 H       1  LIG1        0.1424
     20 H          -1.7764    4.4614   -0.4709 H       1  LIG1        0.1424
     21 C          -1.2674    8.2657   -0.0020 C.3     1  LIG1       -0.0359
     22 H          -2.1518    7.9361    0.5021 H       1  LIG1        0.0279
     23 H          -1.5087    8.5273   -1.0112 H       1  LIG1        0.0279
     24 H          -0.8671    9.1204    0.5020 H       1  LIG1        0.0279
     25 C           3.0355    8.4842    0.4172 C.ar    1  LIG1       -0.0520
     26 C           3.7790    9.6801    0.3996 C.ar    1  LIG1       -0.0517
     27 C           1.6904    8.5424   -0.0012 C.ar    1  LIG1       -0.0011
     28 C           3.2106   10.8819   -0.0165 C.ar    1  LIG1        0.0025
     29 H           4.8186    9.6577    0.7186 H       1  LIG1        0.0624
     30 C           1.1224    9.7420   -0.4166 C.ar    1  LIG1       -0.0491
     31 C           1.8775   10.9194   -0.4274 C.ar    1  LIG1       -0.0407
     32 H           0.0831    9.7611   -0.7346 H       1  LIG1        0.0627
     33 H           3.6210    7.3939    0.8155 H       1  LIG1        0.0624
     34 C           1.3411   12.0380   -0.8168 C.3     1  LIG1       -0.0391
     35 H           0.3409   12.1033   -0.4423 H       1  LIG1        0.0278
     36 H           1.3245   12.0725   -1.8861 H       1  LIG1        0.0278
     37 H           1.9164   12.8588   -0.4423 H       1  LIG1        0.0278
     38 C           3.9262   11.9673   -0.0202 C.ar    1  LIG1        0.0643
     39 C           4.7313   12.4961    0.9390 C.ar    1  LIG1        0.0769
     40 C           5.2822   13.7091    0.4138 C.ar    1  LIG1       -0.0264
     41 C           4.7909   13.8672   -0.8439 C.ar    1  LIG1        0.0034
     42 N           3.9599   12.8033   -1.1134 N.ar    1  LIG1       -0.3596
     43 H           3.4636   12.6609   -1.9628 H       1  LIG1        0.1654
     44 H           4.9968   14.8072   -1.7180 H       1  LIG1        0.0807
     45 N           5.1541   11.5466    3.1538 N.1     1  LIG1       -0.1908
     46 C           4.9559   11.9916    2.1158 C.1     1  LIG1        0.1013
     47 H           6.1016   14.5131    1.0238 H       1  LIG1        0.0645
@<TRIPOS>BOND
     1    43    42    1
     2    36    34    1
     3    44    41    1
     4    42    41   ar
     5    42    38   ar
     6    23    21    1
     7    41    40   ar
     8    34    37    1
     9    34    35    1
    10    34    31    1
    11    32    30    1
    12    20    18    1
    13    19    18    1
    14    31    30   ar
    15    31    28   ar
    16    30    27   ar
    17    38    28    1
    18    38    39   ar
    19    28    26   ar
    20    21    14    1
    21    21    24    1
    22    21    22    1
    23    27    15    1
    24    27    25   ar
    25    14    15   ar
    26    14    13   ar
    27    15    16   ar
    28    16    12   ar
    29    16    17    1
    30     5     4   ar
    31     5     1   ar
    32    12     4    1
    33    12    13   ar
    34     4     3   ar
    35     1     2   ar
    36     1     6    1
    37    11    10    1
    38     2     3   ar
    39     2     7    1
    40     3     9    1
    41    10     9    3
    42     7     8    1
    43    13    18    1
    44    26    25   ar
    45    26    29    1
    46    40    39   ar
    47    40    47    1
    48    25    33    1
    49    39    46    1
    50    46    45    3
