@<TRIPOS>MOLECULE
mol_data/noopt/geoms/mol2/12fe12ll(210)4ha(210)4dl(270).out
 54 55 0 0 0
SMALL
GASTEIGER

@<TRIPOS>ATOM
      1 C           0.1763    1.8460    0.0000 C.ar    1  LIG1        0.1353
      2 C           1.5558    1.8460    0.0000 C.ar    1  LIG1        0.1709
      3 C           1.9706    3.2334    0.0000 C.ar    1  LIG1        0.1149
      4 C           0.8165    3.9895   -0.0001 C.ar    1  LIG1        0.1925
      5 O          -0.3030    3.1567   -0.0002 O.2     1  LIG1       -0.4547
      6 H          -0.7504    0.9343    0.0000 H       1  LIG1        0.1068
      7 O           2.3515    0.8179    0.0001 O.3     1  LIG1       -0.5028
      8 H           3.2633    1.1184    0.0001 H       1  LIG1        0.2923
      9 C           3.1998    3.6567    0.0000 C.1     1  LIG1       -0.0621
     10 C           4.3355    4.0478    0.0000 C.1     1  LIG1       -0.1137
     11 H           5.3472    4.3962    0.0000 H       1  LIG1        0.1232
     12 C           0.5416    5.2601   -0.0001 C.ar    1  LIG1        0.2172
     13 C          -0.5102    6.0387   -0.4367 C.ar    1  LIG1        0.2168
     14 C          -0.1696    7.4104   -0.1217 C.ar    1  LIG1        0.2664
     15 C           1.0683    7.3790    0.4869 C.ar    1  LIG1        0.1867
     16 O           1.5275    6.0643    0.5734 O.2     1  LIG1       -0.4439
     17 O          -1.6035    5.6448   -1.0194 O.3     1  LIG1       -0.4882
     18 C          -2.4618    6.7684   -1.2334 C.3     1  LIG1        0.0791
     19 H          -3.3615    6.4437   -1.7131 H       1  LIG1        0.0660
     20 H          -2.7016    7.2183   -0.2926 H       1  LIG1        0.0660
     21 H          -1.9646    7.4838   -1.8545 H       1  LIG1        0.0660
     22 O          -0.9063    8.4513   -0.3745 O.3     1  LIG1       -0.2799
     23 C          -0.0765    9.6122   -0.4674 C.3     2  LIG2       -0.0531
     24 H          -0.6833   10.4686   -0.6757 H       1  LIG1        0.0265
     25 H           0.4390    9.7572    0.4589 H       2  LIG2        0.1146
     26 H           0.6356    9.4796   -1.2549 H       1  LIG1        0.0265
     27 C           1.6943    9.6313    0.6850 C.ar    1  LIG1       -0.0058
     28 C           2.6007   10.5521    1.2452 C.ar    1  LIG1       -0.0456
     29 C           1.8794    8.2657    0.9827 C.ar    1  LIG1        0.0290
     30 C           3.6455   10.1341    2.0664 C.ar    1  LIG1       -0.0159
     31 H           2.4763   11.6107    1.0283 H       1  LIG1        0.0630
     32 C           2.9223    7.8478    1.8024 C.ar    1  LIG1       -0.0498
     33 C           3.8120    8.7779    2.3498 C.ar    1  LIG1       -0.0533
     34 H           3.0440    6.7891    2.0170 H       1  LIG1        0.0625
     35 N           0.7393   10.0818   -0.0733 N.3     3  LIG3       -0.3437
     36 H           1.0915   10.8184   -0.6507 H       2  LIG2        0.1146
     37 H           0.3949    9.3415   -0.6507 H       2  LIG2        0.1146
     38 H           4.7851    8.3814    3.1152 H       1  LIG1        0.0624
     39 C           5.2275   11.8292    1.7092 C.ar    1  LIG1        0.0597
     40 C           6.1003   12.7629    2.3005 C.ar    1  LIG1       -0.0403
     41 C           4.4637   11.0114    2.5669 C.ar    1  LIG1        0.0029
     42 C           6.2091   12.8793    3.6844 C.ar    1  LIG1       -0.0187
     43 H           6.6991   13.4037    1.6571 H       1  LIG1        0.0632
     44 C           4.5720   11.1273    3.9486 C.ar    1  LIG1       -0.0110
     45 C           5.4445   12.0612    4.5169 C.ar    1  LIG1        0.1207
     46 H           3.9724   10.4851    4.5887 H       1  LIG1        0.0660
     47 H           7.0251   13.7523    4.1966 H       1  LIG1        0.0654
     48 N           5.1180   11.7128   -0.7322 N.1     1  LIG1       -0.1909
     49 C           5.1693   11.7674    0.4119 C.1     1  LIG1        0.0998
     50 O           5.5415   12.1648    5.8092 O.3     1  LIG1       -0.4951
     51 C           6.5611   11.2815    6.2836 C.3     1  LIG1        0.0788
     52 H           6.6408   11.3672    7.3472 H       1  LIG1        0.0660
     53 H           6.3092   10.2742    6.0249 H       1  LIG1        0.0660
     54 H           7.4964   11.5419    5.8338 H       1  LIG1        0.0660
@<TRIPOS>BOND
     1    21    18    1
     2    19    18    1
     3    26    23    1
     4    18    17    1
     5    18    20    1
     6    17    13    1
     7    48    49    3
     8    24    23    1
     9    37    35    1
    10    36    35    1
    11    13    14   ar
    12    13    12   ar
    13    22    14    1
    14    14    15   ar
    15    35    25    1
    16     5     4   ar
    17     5     1   ar
    18    12     4    1
    19    12    16   ar
    20     4     3   ar
    21    11    10    1
    22    10     9    3
    23     9     3    1
    24     6     1    1
    25     2     1   ar
    26     2     3   ar
    27     2     7    1
    28     7     8    1
    29    49    39    1
    30    15    16   ar
    31    15    29    1
    32    27    29   ar
    33    27    28   ar
    34    29    32   ar
    35    31    28    1
    36    28    30   ar
    37    43    40    1
    38    39    40   ar
    39    39    41   ar
    40    32    34    1
    41    32    33   ar
    42    30    33   ar
    43    30    41    1
    44    40    42   ar
    45    33    38    1
    46    41    44   ar
    47    42    47    1
    48    42    45   ar
    49    44    45   ar
    50    44    46    1
    51    45    50    1
    52    50    51    1
    53    54    51    1
    54    53    51    1
    55    51    52    1
