@<TRIPOS>MOLECULE
mol_data/noopt/geoms/mol2/12ff13hd(40)12hl(280)4ha(50).out
 47 50 0 0 0
SMALL
GASTEIGER

@<TRIPOS>ATOM
      1 C           0.1763    1.8460    0.0000 C.ar    1  LIG1        0.1378
      2 C           1.5558    1.8460    0.0000 C.ar    1  LIG1        0.1977
      3 C           1.9706    3.2334    0.0000 C.ar    1  LIG1        0.2067
      4 C           0.8165    3.9895   -0.0001 C.ar    1  LIG1        0.1977
      5 O          -0.3030    3.1567   -0.0002 O.2     1  LIG1       -0.4538
      6 H          -0.7504    0.9343    0.0000 H       1  LIG1        0.1069
      7 O           2.3515    0.8179    0.0001 O.3     1  LIG1       -0.5012
      8 H           3.2633    1.1184    0.0001 H       1  LIG1        0.2924
      9 O           3.1998    3.6567    0.0000 O.3     1  LIG1       -0.5008
     10 H           3.2081    4.6167    0.0000 H       1  LIG1        0.2924
     11 C           0.5416    5.2601   -0.0001 C.ar    1  LIG1        0.1086
     12 C           1.1557    6.2953    0.6317 C.ar    1  LIG1        0.0717
     13 C           0.4421    7.4889    0.2898 C.ar    1  LIG1        0.1013
     14 C          -0.5756    7.1308   -0.5373 C.ar    1  LIG1        0.1040
     15 N          -0.5187    5.7671   -0.7170 N.ar    1  LIG1       -0.3467
     16 H          -1.1435    5.2333   -1.2762 H       1  LIG1        0.1662
     17 N           2.1978    6.2128    1.4046 N.pl3   1  LIG1       -0.3552
     18 H           2.6799    5.3556    1.2236 H       1  LIG1        0.1424
     19 H           2.8088    6.9835    1.2236 H       1  LIG1        0.1424
     20 N           0.9547    9.7574    1.0495 N.1     1  LIG1       -0.1907
     21 C           0.7145    8.6942    0.6935 C.1     1  LIG1        0.1033
     22 C          -1.4917    7.8540   -1.1097 C.ar    1  LIG1        0.1773
     23 C          -1.7386    8.2922   -2.3942 C.ar    1  LIG1        0.1155
     24 C          -2.9545    9.0767   -2.3383 C.ar    1  LIG1        0.1871
     25 C          -3.3702    9.0657   -1.0228 C.ar    1  LIG1        0.1808
     26 O          -2.4846    8.3182   -0.2457 O.2     1  LIG1       -0.4475
     27 N          -1.0350    8.0614   -3.4627 N.pl3   1  LIG1       -0.3521
     28 H          -1.4773    7.3471   -4.0052 H       1  LIG1        0.1425
     29 H          -0.9683    8.8987   -4.0052 H       1  LIG1        0.1425
     30 O          -3.5229    9.6662   -3.3480 O.3     1  LIG1       -0.4896
     31 C          -2.7610   10.8182   -3.7188 C.3     1  LIG1        0.0791
     32 H          -3.2290   11.3030   -4.5499 H       1  LIG1        0.0660
     33 H          -2.7129   11.4954   -2.8917 H       1  LIG1        0.0660
     34 H          -1.7710   10.5182   -3.9921 H       1  LIG1        0.0660
     35 C          -4.1230   10.3336    0.8020 C.ar    1  LIG1        0.0354
     36 C          -5.2360   10.8637    1.4828 C.ar    1  LIG1       -0.0404
     37 C          -4.3665    9.5761   -0.3619 C.ar    1  LIG1        0.0416
     38 C          -6.5348   10.6508    1.0265 C.ar    1  LIG1       -0.0600
     39 H          -5.0707   11.4511    2.3833 H       1  LIG1        0.0636
     40 C          -5.6630    9.3633   -0.8180 C.ar    1  LIG1       -0.0492
     41 C          -6.7556    9.8986   -0.1279 C.ar    1  LIG1       -0.0610
     42 H          -5.8248    8.7755   -1.7180 H       1  LIG1        0.0625
     43 H          -7.5393   11.1552    1.6797 H       1  LIG1        0.0618
     44 N          -2.9352   10.5665    1.2763 N.pl3   1  LIG1       -0.3574
     45 H          -2.3048    9.8580    0.9589 H       1  LIG1        0.1423
     46 H          -2.6189   11.4605    0.9589 H       1  LIG1        0.1423
     47 H          -7.9653    9.6962   -0.5588 H       1  LIG1        0.0618
@<TRIPOS>BOND
     1    32    31    1
     2    29    27    1
     3    28    27    1
     4    34    31    1
     5    31    30    1
     6    31    33    1
     7    27    23    1
     8    30    24    1
     9    23    24   ar
    10    23    22   ar
    11    24    25   ar
    12    42    40    1
    13    16    15    1
    14    22    14    1
    15    22    26   ar
    16    25    37    1
    17    25    26   ar
    18    40    37   ar
    19    40    41   ar
    20    15    14   ar
    21    15    11   ar
    22    47    41    1
    23    14    13   ar
    24    37    35   ar
    25    41    38   ar
    26     5     4   ar
    27     5     1   ar
    28     4    11    1
    29     4     3   ar
    30    11    12   ar
    31     1     2   ar
    32     1     6    1
    33     2     3   ar
    34     2     7    1
    35     3     9    1
    36    10     9    1
    37     7     8    1
    38    13    12   ar
    39    13    21    1
    40    12    17    1
    41    21    20    3
    42    35    44    1
    43    35    36   ar
    44    46    44    1
    45    45    44    1
    46    38    36   ar
    47    38    43    1
    48    19    17    1
    49    18    17    1
    50    36    39    1
