@<TRIPOS>MOLECULE
mol_data/noopt/geoms/mol2/12ff12ff.out
 20 21 0 0 0
SMALL
GASTEIGER

@<TRIPOS>ATOM
      1 C           0.1763    1.8460    0.0000 C.ar    1  LIG1        0.1379
      2 C           1.5558    1.8460    0.0000 C.ar    1  LIG1        0.1977
      3 C           1.9706    3.2334    0.0000 C.ar    1  LIG1        0.2084
      4 C           0.8165    3.9895   -0.0001 C.ar    1  LIG1        0.2184
      5 O          -0.3030    3.1567   -0.0002 O.2     1  LIG1       -0.4521
      6 H          -0.7504    0.9343    0.0000 H       1  LIG1        0.1069
      7 O           2.3515    0.8179    0.0001 O.3     1  LIG1       -0.5012
      8 H           3.2633    1.1184    0.0001 H       1  LIG1        0.2924
      9 O           3.1998    3.6567    0.0000 O.3     1  LIG1       -0.5007
     10 H           3.2081    4.6167    0.0000 H       1  LIG1        0.2924
     11 C           0.5416    5.2601   -0.0001 C.ar    1  LIG1        0.2184
     12 C           1.2792    6.4258   -0.0001 C.ar    1  LIG1        0.2084
     13 C           0.3286    7.5182   -0.0001 C.ar    1  LIG1        0.1977
     14 C          -0.9274    6.9472   -0.0002 C.ar    1  LIG1        0.1379
     15 O          -0.8223    5.5559   -0.0003 O.2     1  LIG1       -0.4521
     16 H          -2.1481    7.3943   -0.0002 H       1  LIG1        0.1069
     17 O           2.5735    6.5485   -0.0000 O.3     1  LIG1       -0.5007
     18 H           2.8071    7.4796    0.0000 H       1  LIG1        0.2924
     19 O           0.6282    8.7833   -0.0001 O.3     1  LIG1       -0.5012
     20 H          -0.1786    9.3036   -0.0001 H       1  LIG1        0.2924
@<TRIPOS>BOND
     1    15    14   ar
     2    15    11   ar
     3    16    14    1
     4     5     4   ar
     5     5     1   ar
     6    14    13   ar
     7    11    12   ar
     8    11     4    1
     9    20    19    1
    10    19    13    1
    11    13    12   ar
    12    12    17    1
    13     4     3   ar
    14    10     9    1
    15     1     6    1
    16     1     2   ar
    17     9     3    1
    18    17    18    1
    19     3     2   ar
    20     2     7    1
    21     7     8    1
