@<TRIPOS>MOLECULE
mol_data/noopt/geoms/mol2/12ff12ff12ff.out
 29 31 0 0 0
SMALL
GASTEIGER

@<TRIPOS>ATOM
      1 C           0.1763    1.8460    0.0000 C.ar    1  LIG1        0.1379
      2 C           1.5558    1.8460    0.0000 C.ar    1  LIG1        0.1977
      3 C           1.9706    3.2334    0.0000 C.ar    1  LIG1        0.2084
      4 C           0.8165    3.9895   -0.0001 C.ar    1  LIG1        0.2184
      5 O          -0.3030    3.1567   -0.0002 O.2     1  LIG1       -0.4521
      6 H          -0.7504    0.9343    0.0000 H       1  LIG1        0.1069
      7 O           2.3515    0.8179    0.0001 O.3     1  LIG1       -0.5012
      8 H           3.2633    1.1184    0.0001 H       1  LIG1        0.2924
      9 O           3.1998    3.6567    0.0000 O.3     1  LIG1       -0.5007
     10 H           3.2081    4.6167    0.0000 H       1  LIG1        0.2924
     11 C           0.5416    5.2601   -0.0001 C.ar    1  LIG1        0.2194
     12 C           1.2792    6.4258   -0.0001 C.ar    1  LIG1        0.2092
     13 C           0.3286    7.5182   -0.0001 C.ar    1  LIG1        0.2092
     14 C          -0.9274    6.9472   -0.0002 C.ar    1  LIG1        0.2194
     15 O          -0.8223    5.5559   -0.0003 O.2     1  LIG1       -0.4407
     16 O           2.5735    6.5485   -0.0000 O.3     1  LIG1       -0.5007
     17 H           2.8071    7.4796    0.0000 H       1  LIG1        0.2924
     18 O           0.6282    8.7833   -0.0001 O.3     1  LIG1       -0.5007
     19 H          -0.1786    9.3036   -0.0001 H       1  LIG1        0.2924
     20 C          -2.1481    7.3943   -0.0002 C.ar    1  LIG1        0.2184
     21 C          -2.7387    8.6410   -0.0002 C.ar    1  LIG1        0.2084
     22 C          -4.1701    8.4218   -0.0002 C.ar    1  LIG1        0.1977
     23 C          -4.3593    7.0551   -0.0003 C.ar    1  LIG1        0.1379
     24 O          -3.1273    6.4000   -0.0004 O.2     1  LIG1       -0.4521
     25 H          -5.3898    6.2627   -0.0003 H       1  LIG1        0.1069
     26 O          -2.1503    9.8003   -0.0001 O.3     1  LIG1       -0.5007
     27 H          -2.8123   10.4956   -0.0001 H       1  LIG1        0.2924
     28 O          -5.0790    9.3514   -0.0002 O.3     1  LIG1       -0.5012
     29 H          -5.9500    8.9479   -0.0002 H       1  LIG1        0.2924
@<TRIPOS>BOND
     1    24    23   ar
     2    24    20   ar
     3    25    23    1
     4    23    22   ar
     5    15    14   ar
     6    15    11   ar
     7    29    28    1
     8    28    22    1
     9    22    21   ar
    10    21    20   ar
    11    21    26    1
    12    20    14    1
    13    14    13   ar
    14     5     4   ar
    15     5     1   ar
    16    12    13   ar
    17    12    11   ar
    18    12    16    1
    19    13    18    1
    20    11     4    1
    21    26    27    1
    22    18    19    1
    23     4     3   ar
    24     1     2   ar
    25     1     6    1
    26     2     3   ar
    27     2     7    1
    28     3     9    1
    29    16    17    1
    30     9    10    1
    31     7     8    1
