@<TRIPOS>MOLECULE
mol_data/noopt/geoms/mol2/12ff13fi12dh6ie6aa-6ad-6fa-13ll.out
 92 97 0 0 0
SMALL
GASTEIGER

@<TRIPOS>ATOM
      1 C           0.1763    1.8460    0.0000 C.ar    1  LIG1        0.1378
      2 C           1.5558    1.8460    0.0000 C.ar    1  LIG1        0.1977
      3 C           1.9706    3.2334    0.0000 C.ar    1  LIG1        0.2067
      4 C           0.8165    3.9895   -0.0001 C.ar    1  LIG1        0.1994
      5 O          -0.3030    3.1567   -0.0002 O.2     1  LIG1       -0.4538
      6 H          -0.7504    0.9343    0.0000 H       1  LIG1        0.1069
      7 O           2.3515    0.8179    0.0001 O.3     1  LIG1       -0.5012
      8 H           3.2633    1.1184    0.0001 H       1  LIG1        0.2924
      9 O           3.1998    3.6567    0.0000 O.3     1  LIG1       -0.5008
     10 H           3.2081    4.6167    0.0000 H       1  LIG1        0.2924
     11 C           0.5416    5.2601   -0.0001 C.ar    1  LIG1        0.1286
     12 C           1.3660    6.3408    0.0161 C.ar    1  LIG1        0.1488
     13 C           0.5390    7.5098    0.0084 C.ar    1  LIG1        0.0200
     14 C          -0.7545    7.0921   -0.0139 C.ar    1  LIG1        0.0905
     15 N          -0.7574    5.7154   -0.0188 N.ar    1  LIG1       -0.3461
     16 H          -1.5687    5.1413   -0.0340 H       1  LIG1        0.1662
     17 O           2.6657    6.3141    0.0365 O.3     1  LIG1       -0.5043
     18 H           3.0046    7.2122    0.0416 H       1  LIG1        0.2922
     19 C           0.9463    8.7447    0.0202 C.3     1  LIG1       -0.0341
     20 H           0.2269    9.3527    0.5278 H       1  LIG1        0.0279
     21 H           1.0608    9.0920   -0.9854 H       1  LIG1        0.0279
     22 H           1.8863    8.8054    0.5277 H       1  LIG1        0.0279
     23 C          -1.8611    7.7741   -0.0284 C.ar    1  LIG1        0.1713
     24 C          -2.1906    9.1136   -0.0394 C.ar    1  LIG1        0.1201
     25 C          -3.6368    9.1850   -0.0536 C.ar    1  LIG1        0.0893
     26 C          -4.0953    7.8837   -0.0504 C.ar    1  LIG1        0.1593
     27 O          -3.0193    6.9956   -0.0351 O.2     1  LIG1       -0.4501
     28 N          -0.6695   11.0299   -0.0360 N.1     1  LIG1       -0.1907
     29 C          -1.3823   10.1319   -0.0376 C.1     1  LIG1        0.1049
     30 N          -4.3414   10.2774   -0.0667 N.pl3   1  LIG1       -0.3540
     31 H          -3.8333   10.9961   -0.5414 H       1  LIG1        0.1425
     32 H          -5.2056   10.1110   -0.5414 H       1  LIG1        0.1425
     33 C          -5.3697    5.9103   -0.0622 C.ar    1  LIG1        0.0497
     34 C          -5.2635    7.3132   -0.0582 C.ar    1  LIG1        0.0413
     35 C          -6.4362    8.0706   -0.0623 C.ar    1  LIG1       -0.0318
     36 C          -7.6645    7.4074   -0.0705 C.ar    1  LIG1        0.0513
     37 C          -7.6679    6.0005   -0.0743 C.ar    1  LIG1        0.0881
     38 N          -6.5462    5.2541   -0.0702 N.ar    1  LIG1       -0.2499
     39 H          -6.3928    9.1690   -0.0603 H       1  LIG1        0.0638
     40 C          -4.3062    5.1621   -0.0585 C.3     1  LIG1       -0.0216
     41 H          -3.5130    5.6722    0.4469 H       1  LIG1        0.0293
     42 H          -4.0121    4.9552   -1.0664 H       1  LIG1        0.0293
     43 H          -4.5185    4.2431    0.4468 H       1  LIG1        0.0293
     44 C          -8.7845    8.0673   -0.0748 C.1     1  LIG1       -0.0675
     45 C          -9.8194    8.6771   -0.0788 C.1     1  LIG1       -0.1138
     46 H         -10.7413    9.2202   -0.0823 H       1  LIG1        0.1232
     47 C          -8.7792    3.9311   -0.1069 C.ar    1  LIG1        0.0375
     48 C          -8.7863    5.3378   -0.0818 C.ar    1  LIG1        0.0197
     49 C         -10.0162    5.9981   -0.0650 C.ar    1  LIG1       -0.0491
     50 C         -11.1871    5.2381   -0.0739 C.ar    1  LIG1       -0.0350
     51 C         -11.0772    3.8357   -0.0996 C.ar    1  LIG1        0.0725
     52 N          -9.8990    3.1823   -0.1159 N.ar    1  LIG1       -0.2543
     53 H         -10.0615    7.0962   -0.0462 H       1  LIG1        0.0625
     54 H          -7.6592    3.2713   -0.1232 H       1  LIG1        0.0836
     55 H         -12.3567    5.8054   -0.0592 H       1  LIG1        0.0639
     56 C         -12.0182    1.6835   -0.1347 C.ar    1  LIG1        0.0375
     57 C         -12.1386    3.0850   -0.1087 C.ar    1  LIG1        0.0197
     58 C         -13.4177    3.6441   -0.0928 C.ar    1  LIG1       -0.0316
     59 C         -14.5236    2.7923   -0.1034 C.ar    1  LIG1        0.0781
     60 C         -14.3011    1.4033   -0.1299 C.ar    1  LIG1        0.0891
     61 N         -13.0740    0.8469   -0.1453 N.ar    1  LIG1       -0.2532
     62 H         -13.5513    4.7350   -0.0734 H       1  LIG1        0.0638
     63 H         -10.8486    1.1161   -0.1502 H       1  LIG1        0.0836
     64 N         -16.8036    3.6792   -0.0774 N.1     1  LIG1       -0.1908
     65 C         -15.7350    3.2636   -0.0896 C.1     1  LIG1        0.1013
     66 C         -15.0656   -0.8176   -0.1675 C.3     1  LIG1        0.2411
     67 C         -15.2985    0.5696   -0.1406 C.2     1  LIG1        0.0379
     68 C         -16.6185    1.0238   -0.1256 C.2     1  LIG1       -0.0513
     69 C         -17.6521    0.0857   -0.1379 C.3     2  LIG2       -0.0309
     70 C         -17.3185   -1.2808   -0.1651 C.2     1  LIG1        0.1162
     71 N         -16.0506   -1.7365   -0.1798 N.2     1  LIG1       -0.2363
     72 H         -16.8395    2.1004   -0.1055 H       1  LIG1        0.0623
     73 O         -13.8541   -1.2890   -0.1822 O.3     1  LIG1       -0.3607
     74 H         -13.2274   -0.5618   -0.1858 H       1  LIG1        0.2128
     75 H         -18.8977    0.4579   -0.1250 H       1  LIG1        0.0309
     76 C         -18.2455   -2.1921   -0.1775 C.ar    1  LIG1        0.1128
     77 C         -19.5996   -2.0729   -0.1696 C.ar    1  LIG1        0.1884
     78 C         -20.1457   -3.3965   -0.1898 C.ar    1  LIG1        0.1795
     79 C         -19.1012   -4.2664   -0.2109 C.ar    1  LIG1        0.0482
     80 N         -17.9360   -3.5333   -0.2030 N.ar    1  LIG1       -0.3534
     81 H         -17.0171   -3.9121   -0.2145 H       1  LIG1        0.1656
     82 H         -19.0862   -5.5661   -0.2339 H       1  LIG1        0.0845
     83 O         -20.2716   -0.9602   -0.1463 O.3     1  LIG1       -0.4895
     84 C         -19.3644    0.1452   -0.1379 C.3     1  LIG1        0.0791
     85 H         -19.9179    1.0607   -0.1189 H       1  LIG1        0.0660
     86 H         -18.7403    0.0877    0.7294 H       1  LIG1        0.0660
     87 H         -18.7563    0.1142   -1.0177 H       1  LIG1        0.0660
     88 O         -21.4068   -3.7121   -0.1887 O.3     1  LIG1       -0.4900
     89 C         -22.1970   -2.5203   -0.1884 C.3     1  LIG1        0.0790
     90 H         -23.2349   -2.7805   -0.1876 H       1  LIG1        0.0660
     91 H         -21.9732   -1.9441    0.6851 H       1  LIG1        0.0660
     92 H         -21.9744   -1.9444   -1.0622 H       1  LIG1        0.0660
@<TRIPOS>BOND
     1    42    40    1
     2    92    89    1
     3    87    84    1
     4    21    19    1
     5    32    30    1
     6    31    30    1
     7    82    79    1
     8    81    80    1
     9    79    80   ar
    10    79    78   ar
    11    80    76   ar
    12    78    88    1
    13    78    77   ar
    14    88    89    1
    15    89    90    1
    16    89    91    1
    17    74    73    1
    18    73    66    1
    19    71    66    1
    20    71    70    2
    21    76    77   ar
    22    76    70    1
    23    77    83    1
    24    66    67    1
    25    63    56    1
    26    83    84    1
    27    61    56   ar
    28    61    60   ar
    29    67    60    1
    30    67    68    2
    31    69    75    1
    32    84    85    1
    33    84    86    1
    34    56    57   ar
    35    60    59   ar
    36    68    72    1
    37    54    47    1
    38    52    47   ar
    39    52    51   ar
    40    57    51    1
    41    57    58   ar
    42    47    48   ar
    43    59    58   ar
    44    59    65    1
    45    51    50   ar
    46    58    62    1
    47    65    64    3
    48    46    45    1
    49    48    37    1
    50    48    49   ar
    51    45    44    3
    52    44    36    1
    53    37    36   ar
    54    37    38   ar
    55    50    49   ar
    56    50    55    1
    57    36    35   ar
    58    38    33   ar
    59    30    25    1
    60    49    53    1
    61    35    39    1
    62    35    34   ar
    63    33    40    1
    64    33    34   ar
    65    40    43    1
    66    40    41    1
    67    34    26    1
    68    25    26   ar
    69    25    24   ar
    70    26    27   ar
    71    24    29    1
    72    24    23   ar
    73    29    28    3
    74    27    23   ar
    75    16    15    1
    76    23    14    1
    77    15    14   ar
    78    15    11   ar
    79    14    13   ar
    80     5     4   ar
    81     5     1   ar
    82    11     4    1
    83    11    12   ar
    84     4     3   ar
    85     6     1    1
    86     9    10    1
    87     9     3    1
    88     3     2   ar
    89     2     1   ar
    90     2     7    1
    91     7     8    1
    92    13    12   ar
    93    13    19    1
    94    12    17    1
    95    19    22    1
    96    19    20    1
    97    17    18    1
