@<TRIPOS>MOLECULE
mol_data/noopt/geoms/mol2/12ff12ff-12ff-12ff.out
 38 41 0 0 0
SMALL
GASTEIGER

@<TRIPOS>ATOM
      1 C           0.1763    1.8460    0.0000 C.ar    1  LIG1        0.1379
      2 C           1.5558    1.8460    0.0000 C.ar    1  LIG1        0.1977
      3 C           1.9706    3.2334    0.0000 C.ar    1  LIG1        0.2084
      4 C           0.8165    3.9895   -0.0001 C.ar    1  LIG1        0.2184
      5 O          -0.3030    3.1567   -0.0002 O.2     1  LIG1       -0.4521
      6 H          -0.7504    0.9343    0.0000 H       1  LIG1        0.1069
      7 O           2.3515    0.8179    0.0001 O.3     1  LIG1       -0.5012
      8 H           3.2633    1.1184    0.0001 H       1  LIG1        0.2924
      9 O           3.1998    3.6567    0.0000 O.3     1  LIG1       -0.5007
     10 H           3.2081    4.6167    0.0000 H       1  LIG1        0.2924
     11 C           0.5416    5.2601   -0.0001 C.ar    1  LIG1        0.2194
     12 C          -0.6119    6.0167   -0.0001 C.ar    1  LIG1        0.2092
     13 C          -0.1979    7.4043   -0.0001 C.ar    1  LIG1        0.2092
     14 C           1.1818    7.4036   -0.0002 C.ar    1  LIG1        0.2195
     15 O           1.6612    6.0932   -0.0003 O.2     1  LIG1       -0.4407
     16 O          -1.8411    5.5933   -0.0000 O.3     1  LIG1       -0.5007
     17 H          -1.8494    4.6334   -0.0000 H       1  LIG1        0.2924
     18 O          -0.9936    8.4324   -0.0001 O.3     1  LIG1       -0.5007
     19 H          -1.9053    8.1319   -0.0001 H       1  LIG1        0.2924
     20 C           2.1085    8.3153   -0.0002 C.ar    1  LIG1        0.2195
     21 C           2.1310    9.6946   -0.0002 C.ar    1  LIG1        0.2092
     22 C           3.5250   10.0867   -0.0001 C.ar    1  LIG1        0.2092
     23 C           4.2622    8.9204   -0.0002 C.ar    1  LIG1        0.2194
     24 O           3.4112    7.8147   -0.0003 O.2     1  LIG1       -0.4407
     25 O           1.1161   10.5070   -0.0001 O.3     1  LIG1       -0.5007
     26 H           0.3004   10.0007   -0.0001 H       1  LIG1        0.2924
     27 O           3.9683   11.3088   -0.0001 O.3     1  LIG1       -0.5007
     28 H           3.2269   11.9186   -0.0001 H       1  LIG1        0.2924
     29 C           5.5281    8.6248   -0.0002 C.ar    1  LIG1        0.2184
     30 C           6.2658    7.4591   -0.0001 C.ar    1  LIG1        0.2084
     31 C           7.6600    7.8504   -0.0001 C.ar    1  LIG1        0.1977
     32 C           7.6818    9.2300   -0.0002 C.ar    1  LIG1        0.1379
     33 O           6.3794    9.7307   -0.0003 O.2     1  LIG1       -0.4521
     34 H           8.6085   10.1417   -0.0002 H       1  LIG1        0.1069
     35 O           5.8225    6.2370   -0.0000 O.3     1  LIG1       -0.5007
     36 H           6.5639    5.6272   -0.0000 H       1  LIG1        0.2924
     37 O           8.6749    7.0381   -0.0001 O.3     1  LIG1       -0.5012
     38 H           9.4906    7.5444   -0.0001 H       1  LIG1        0.2924
@<TRIPOS>BOND
     1    33    32   ar
     2    33    29   ar
     3    24    23   ar
     4    24    20   ar
     5    15    14   ar
     6    15    11   ar
     7    32    34    1
     8    32    31   ar
     9     5     4   ar
    10     5     1   ar
    11    23    29    1
    12    23    22   ar
    13    14    20    1
    14    14    13   ar
    15    29    30   ar
    16    21    20   ar
    17    21    22   ar
    18    21    25    1
    19    30    31   ar
    20    30    35    1
    21    19    18    1
    22    12    13   ar
    23    12    11   ar
    24    12    16    1
    25    22    27    1
    26    18    13    1
    27    27    28    1
    28    11     4    1
    29     4     3   ar
    30    31    37    1
    31    25    26    1
    32    37    38    1
    33    16    17    1
    34    35    36    1
    35    10     9    1
    36     9     3    1
    37     6     1    1
    38     3     2   ar
    39     2     1   ar
    40     2     7    1
    41     7     8    1
