@<TRIPOS>MOLECULE
mol_data/noopt/geoms/mol2/12ff13af(120)6fe(290)4ld(120).out
 47 49 0 0 0
SMALL
GASTEIGER

@<TRIPOS>ATOM
      1 C           0.1763    1.8460    0.0000 C.ar    1  LIG1        0.1378
      2 C           1.5558    1.8460    0.0000 C.ar    1  LIG1        0.1977
      3 C           1.9706    3.2334    0.0000 C.ar    1  LIG1        0.2066
      4 C           0.8165    3.9895   -0.0001 C.ar    1  LIG1        0.1959
      5 O          -0.3030    3.1567   -0.0002 O.2     1  LIG1       -0.4539
      6 H          -0.7504    0.9343    0.0000 H       1  LIG1        0.1069
      7 O           2.3515    0.8179    0.0001 O.3     1  LIG1       -0.5012
      8 H           3.2633    1.1184    0.0001 H       1  LIG1        0.2924
      9 O           3.1998    3.6567    0.0000 O.3     1  LIG1       -0.5008
     10 H           3.2081    4.6167    0.0000 H       1  LIG1        0.2924
     11 C           0.5416    5.2601   -0.0001 C.ar    1  LIG1        0.0869
     12 C          -0.1819    6.0059    0.8764 C.ar    1  LIG1       -0.0249
     13 C          -0.1701    7.3564    0.4003 C.ar    1  LIG1        0.0103
     14 C           0.5616    7.3768   -0.7453 C.ar    1  LIG1        0.0600
     15 N           0.9988    6.0954   -0.9943 N.ar    1  LIG1       -0.3510
     16 H           1.5566    5.8175   -1.7687 H       1  LIG1        0.1660
     17 H          -0.7752    5.5696    1.9477 H       1  LIG1        0.0646
     18 O          -0.7503    8.3774    0.9581 O.3     2  HOH2       -0.2528
     19 H          -1.6801    8.1818    1.0956 H       0  HOH0        0.2528
     20 C           0.8222    9.6885   -1.0714 C.ar    1  LIG1        0.2223
     21 C           0.8576    8.3623   -1.5397 C.ar    1  LIG1        0.0614
     22 C           1.2164    8.1342   -2.8695 C.ar    1  LIG1       -0.0300
     23 C           1.5248    9.2284   -3.6795 C.ar    1  LIG1        0.0516
     24 C           1.4607   10.5176   -3.1196 C.ar    1  LIG1        0.0937
     25 N           1.1167   10.7558   -1.8389 N.ar    1  LIG1       -0.2111
     26 H           1.2541    7.1117   -3.2712 H       1  LIG1        0.0639
     27 O           0.4942    9.9515    0.1588 O.3     1  LIG1       -0.4919
     28 H          -0.1527    9.3102    0.4620 H       1  LIG1        0.2937
     29 C           1.8644    9.0687   -4.9241 C.1     1  LIG1       -0.0675
     30 C           2.1782    8.9211   -6.0742 C.1     1  LIG1       -0.1138
     31 H           2.4577    8.7896   -7.0986 H       1  LIG1        0.1232
     32 C           1.4466   12.8537   -3.3349 C.ar    1  LIG1        0.1293
     33 C           1.7658   13.9590   -4.1471 C.ar    1  LIG1       -0.0181
     34 C           1.7389   11.5677   -3.8335 C.ar    1  LIG1        0.0445
     35 C           2.3508   13.7935   -5.4006 C.ar    1  LIG1       -0.0409
     36 H           1.5485   14.9602   -3.7818 H       1  LIG1        0.0655
     37 C           2.3229   11.4020   -5.0847 C.ar    1  LIG1       -0.0316
     38 C           2.6329   12.5125   -5.8766 C.ar    1  LIG1        0.0526
     39 H           2.5385   10.4001   -5.4470 H       1  LIG1        0.0638
     40 H           2.6323   14.8362   -6.1241 H       1  LIG1        0.0631
     41 O           0.9022   13.0714   -2.1745 O.3     1  LIG1       -0.4945
     42 C           1.2028   14.4030   -1.7486 C.3     1  LIG1        0.0788
     43 H           0.7544   14.5818   -0.7937 H       1  LIG1        0.0660
     44 H           2.2634   14.5223   -1.6725 H       1  LIG1        0.0660
     45 H           0.8156   15.1013   -2.4608 H       1  LIG1        0.0660
     46 N           3.6599   12.2094   -8.0765 N.1     1  LIG1       -0.1909
     47 C           3.1786   12.3515   -7.0455 C.1     1  LIG1        0.0992
@<TRIPOS>BOND
     1    46    47    3
     2    31    30    1
     3    47    38    1
     4    40    35    1
     5    30    29    3
     6    38    35   ar
     7    38    37   ar
     8    39    37    1
     9    35    33   ar
    10    37    34   ar
    11    29    23    1
    12    33    36    1
    13    33    32   ar
    14    34    32   ar
    15    34    24    1
    16    23    24   ar
    17    23    22   ar
    18    32    41    1
    19    26    22    1
    20    24    25   ar
    21    22    21   ar
    22    45    42    1
    23    41    42    1
    24    25    20   ar
    25    16    15    1
    26    42    44    1
    27    42    43    1
    28    21    20   ar
    29    21    14    1
    30    20    27    1
    31    15    14   ar
    32    15    11   ar
    33    14    13   ar
    34     5     4   ar
    35     5     1   ar
    36     4    11    1
    37     4     3   ar
    38    11    12   ar
    39     2     3   ar
    40     2     1   ar
    41     2     7    1
    42     6     1    1
    43     3     9    1
    44     9    10    1
    45     7     8    1
    46    27    28    1
    47    13    12   ar
    48    12    17    1
    49    18    19    1
