@<TRIPOS>MOLECULE
mol_data/noopt/geoms/mol2/12ff13ee(270)13if(140)13ll.out
 51 54 0 0 0
SMALL
GASTEIGER

@<TRIPOS>ATOM
      1 C           0.1763    1.8460    0.0000 C.ar    1  LIG1        0.1378
      2 C           1.5558    1.8460    0.0000 C.ar    1  LIG1        0.1977
      3 C           1.9706    3.2334    0.0000 C.ar    1  LIG1        0.2067
      4 C           0.8165    3.9895   -0.0001 C.ar    1  LIG1        0.1971
      5 O          -0.3030    3.1567   -0.0002 O.2     1  LIG1       -0.4539
      6 H          -0.7504    0.9343    0.0000 H       1  LIG1        0.1069
      7 O           2.3515    0.8179    0.0001 O.3     1  LIG1       -0.5012
      8 H           3.2633    1.1184    0.0001 H       1  LIG1        0.2924
      9 O           3.1998    3.6567    0.0000 O.3     1  LIG1       -0.5008
     10 H           3.2081    4.6167    0.0000 H       1  LIG1        0.2924
     11 C           0.5416    5.2601   -0.0001 C.ar    1  LIG1        0.1031
     12 C           0.3546    6.1220   -1.0346 C.ar    1  LIG1        0.0691
     13 C           0.0774    7.4100   -0.4734 C.ar    1  LIG1        0.0674
     14 C           0.1054    7.2781    0.8794 C.ar    1  LIG1        0.0806
     15 N           0.3898    5.9636    1.1734 N.ar    1  LIG1       -0.3485
     16 H           0.4718    5.5828    2.0879 H       1  LIG1        0.1661
     17 C           0.4181    5.8278   -2.2992 C.1     1  LIG1       -0.0662
     18 C           0.4768    5.5560   -3.4678 C.1     1  LIG1       -0.1138
     19 H           0.5291    5.3138   -4.5087 H       1  LIG1        0.1232
     20 C          -0.1586    8.5053   -1.1325 C.1     1  LIG1       -0.0662
     21 C          -0.3766    9.5175   -1.7415 C.1     1  LIG1       -0.1138
     22 H          -0.5708   10.4191   -2.2840 H       1  LIG1        0.1232
     23 C          -0.0843    8.1585    1.8169 C.ar    1  LIG1        0.0711
     24 C          -0.9171    8.1374    2.8911 C.ar    1  LIG1        0.0184
     25 C          -0.7283    9.3656    3.6028 C.ar    1  LIG1        0.1471
     26 C           0.2129   10.0825    2.9331 C.ar    1  LIG1        0.1093
     27 N           0.6095    9.3473    1.8388 N.ar    1  LIG1       -0.3486
     28 H           1.2894    9.6298    1.1710 H       1  LIG1        0.1661
     29 C          -1.7345    7.1776    3.2096 C.3     1  LIG1       -0.0342
     30 H          -1.2134    6.4420    3.7860 H       1  LIG1        0.0279
     31 H          -2.1188    6.7261    2.3188 H       1  LIG1        0.0279
     32 H          -2.5437    7.5748    3.7859 H       1  LIG1        0.0279
     33 O          -1.3414    9.7311    4.6894 O.3     1  LIG1       -0.5043
     34 H          -1.9558    9.0438    4.9571 H       1  LIG1        0.2922
     35 C           0.7193   11.2529    3.1854 C.ar    1  LIG1        0.1125
     36 C           2.0109   11.6334    3.3724 C.ar    1  LIG1        0.1884
     37 C           2.0097   13.0437    3.6205 C.ar    1  LIG1        0.1795
     38 C           0.7175   13.4634    3.5724 C.ar    1  LIG1        0.0482
     39 N          -0.0758   12.3702    3.3067 N.ar    1  LIG1       -0.3534
     40 H          -1.0656   12.3852    3.2162 H       1  LIG1        0.1656
     41 H           0.2092   14.6491    3.7329 H       1  LIG1        0.0845
     42 O           3.0527   10.8566    3.3340 O.3     1  LIG1       -0.4895
     43 C           2.6293    9.4908    3.3199 C.3     1  LIG1        0.0791
     44 H           3.4870    8.8518    3.2881 H       1  LIG1        0.0660
     45 H           2.0629    9.2837    4.2038 H       1  LIG1        0.0660
     46 H           2.0213    9.3147    2.4572 H       1  LIG1        0.0660
     47 O           3.0501   13.7888    3.8494 O.3     1  LIG1       -0.4900
     48 C           4.2170   12.9664    3.9333 C.3     1  LIG1        0.0790
     49 H           5.0731   13.5800    4.1215 H       1  LIG1        0.0660
     50 H           4.1005   12.2624    4.7307 H       1  LIG1        0.0660
     51 H           4.3504   12.4413    3.0106 H       1  LIG1        0.0660
@<TRIPOS>BOND
     1    19    18    1
     2    18    17    3
     3    17    12    1
     4    22    21    1
     5    21    20    3
     6    20    13    1
     7    12    13   ar
     8    12    11   ar
     9    13    14   ar
    10     5     4   ar
    11     5     1   ar
    12    11     4    1
    13    11    15   ar
    14     4     3   ar
    15    10     9    1
    16     9     3    1
    17     1     6    1
    18     1     2   ar
    19     3     2   ar
    20     2     7    1
    21     7     8    1
    22    14    15   ar
    23    14    23    1
    24    28    27    1
    25    15    16    1
    26    23    27   ar
    27    23    24   ar
    28    27    26   ar
    29    31    29    1
    30    46    43    1
    31    24    29    1
    32    24    25   ar
    33    26    35    1
    34    26    25   ar
    35    51    48    1
    36    35    39   ar
    37    35    36   ar
    38    29    32    1
    39    29    30    1
    40    40    39    1
    41    44    43    1
    42    39    38   ar
    43    43    42    1
    44    43    45    1
    45    42    36    1
    46    36    37   ar
    47    38    37   ar
    48    38    41    1
    49    25    33    1
    50    37    47    1
    51    47    48    1
    52    48    49    1
    53    48    50    1
    54    33    34    1
