@<TRIPOS>MOLECULE
mol_data/noopt/geoms/mol2/12ff6li(60)13dd(220)13ea(170).out
 47 50 0 0 0
SMALL
GASTEIGER

@<TRIPOS>ATOM
      1 C           0.1763    1.8460    0.0000 C.ar    1  LIG1        0.1377
      2 C           1.5558    1.8460    0.0000 C.ar    1  LIG1        0.1976
      3 C           1.9706    3.2334    0.0000 C.ar    1  LIG1        0.2053
      4 C           0.8165    3.9895   -0.0001 C.ar    1  LIG1        0.1849
      5 O          -0.3030    3.1567   -0.0002 O.2     1  LIG1       -0.4552
      6 H          -0.7504    0.9343    0.0000 H       1  LIG1        0.1069
      7 O           2.3515    0.8179    0.0001 O.3     1  LIG1       -0.5012
      8 H           3.2633    1.1184    0.0001 H       1  LIG1        0.2924
      9 O           3.1998    3.6567    0.0000 O.3     1  LIG1       -0.5008
     10 H           3.2081    4.6167    0.0000 H       1  LIG1        0.2924
     11 C          -0.2026    5.8267   -1.0511 C.ar    1  LIG1        0.2261
     12 C           0.5416    5.2601   -0.0001 C.ar    1  LIG1        0.0827
     13 C           0.9734    6.0916    1.0349 C.ar    1  LIG1       -0.0408
     14 C           0.6506    7.4488    0.9857 C.ar    1  LIG1       -0.0221
     15 C          -0.0981    7.9217   -0.1077 C.ar    1  LIG1        0.0951
     16 N          -0.5230    7.1336   -1.1145 N.ar    1  LIG1       -0.2105
     17 H           1.5579    5.6850    1.8723 H       1  LIG1        0.0630
     18 O          -0.6268    5.0933   -2.0371 O.3     1  LIG1       -0.4792
     19 C          -1.9494    5.4990   -2.3991 C.3     1  LIG1        0.0804
     20 H          -2.2981    4.8953   -3.2108 H       1  LIG1        0.0660
     21 H          -2.6017    5.3791   -1.5594 H       1  LIG1        0.0660
     22 H          -1.9381    6.5263   -2.6980 H       1  LIG1        0.0660
     23 C           1.0295    8.2644    1.9248 C.3     1  LIG1       -0.0376
     24 H           0.1876    8.5257    2.5313 H       1  LIG1        0.0278
     25 H           1.4403    9.1490    1.4847 H       1  LIG1        0.0278
     26 H           1.7723    7.7896    2.5312 H       1  LIG1        0.0278
     27 C          -0.4235    9.1771   -0.1982 C.ar    1  LIG1        0.0847
     28 C          -1.4262    9.7806   -0.8898 C.ar    1  LIG1        0.0965
     29 C          -1.3311   11.1875   -0.6406 C.ar    1  LIG1        0.0964
     30 C          -0.2755   11.3817    0.1937 C.ar    1  LIG1        0.0834
     31 N           0.2833   10.1535    0.4667 N.ar    1  LIG1       -0.3497
     32 H           1.0715    9.9966    1.0516 H       1  LIG1        0.1661
     33 N          -3.0829    8.6628   -2.3011 N.1     1  LIG1       -0.1908
     34 C          -2.3065    9.1867   -1.6397 C.1     1  LIG1        0.1026
     35 N          -2.7950   12.9266   -1.5452 N.1     1  LIG1       -0.1908
     36 C          -2.1089   12.1116   -1.1213 C.1     1  LIG1        0.1026
     37 C           0.2078   12.4763    0.7019 C.ar    1  LIG1        0.0798
     38 C          -0.4245   13.5719    1.1996 C.ar    1  LIG1        0.0513
     39 C           0.5862   14.4902    1.6306 C.ar    1  LIG1       -0.0283
     40 C           1.7918   13.9146    1.3790 C.ar    1  LIG1        0.0034
     41 N           1.5648   12.6817    0.8100 N.ar    1  LIG1       -0.3585
     42 H           2.2688   12.0413    0.5233 H       1  LIG1        0.1654
     43 H           2.9969   14.3531    1.5923 H       1  LIG1        0.0807
     44 C          -1.7104   13.7503    1.2684 C.1     1  LIG1       -0.0675
     45 C          -2.8985   13.9151    1.3320 C.1     1  LIG1       -0.1138
     46 H          -3.9569   14.0620    1.3887 H       1  LIG1        0.1232
     47 H           0.3910   15.6592    2.1649 H       1  LIG1        0.0645
@<TRIPOS>BOND
     1    20    19    1
     2    22    19    1
     3    19    18    1
     4    19    21    1
     5    33    34    3
     6    18    11    1
     7    34    28    1
     8    35    36    3
     9    36    29    1
    10    16    11   ar
    11    16    15   ar
    12    11    12   ar
    13    28    29   ar
    14    28    27   ar
    15    29    30   ar
    16    27    15    1
    17    27    31   ar
    18    15    14   ar
    19     5     4   ar
    20     5     1   ar
    21    12     4    1
    22    12    13   ar
    23     4     3   ar
    24    10     9    1
    25     9     3    1
    26     6     1    1
    27     1     2   ar
    28     3     2   ar
    29     2     7    1
    30     7     8    1
    31    30    31   ar
    32    30    37    1
    33    31    32    1
    34    42    41    1
    35    37    41   ar
    36    37    38   ar
    37    41    40   ar
    38    14    13   ar
    39    14    23    1
    40    13    17    1
    41    38    44    1
    42    38    39   ar
    43    44    45    3
    44    45    46    1
    45    40    43    1
    46    40    39   ar
    47    25    23    1
    48    39    47    1
    49    23    26    1
    50    23    24    1
