@<TRIPOS>MOLECULE
mol_data/noopt/geoms/mol2/12ff12ff-12ff.out
 29 31 0 0 0
SMALL
GASTEIGER

@<TRIPOS>ATOM
      1 C           0.1763    1.8460    0.0000 C.ar    1  LIG1        0.1379
      2 C           1.5558    1.8460    0.0000 C.ar    1  LIG1        0.1977
      3 C           1.9706    3.2334    0.0000 C.ar    1  LIG1        0.2084
      4 C           0.8165    3.9895   -0.0001 C.ar    1  LIG1        0.2184
      5 O          -0.3030    3.1567   -0.0002 O.2     1  LIG1       -0.4521
      6 H          -0.7504    0.9343    0.0000 H       1  LIG1        0.1069
      7 O           2.3515    0.8179    0.0001 O.3     1  LIG1       -0.5012
      8 H           3.2633    1.1184    0.0001 H       1  LIG1        0.2924
      9 O           3.1998    3.6567    0.0000 O.3     1  LIG1       -0.5007
     10 H           3.2081    4.6167    0.0000 H       1  LIG1        0.2924
     11 C           0.5416    5.2601   -0.0001 C.ar    1  LIG1        0.2194
     12 C          -0.6119    6.0167   -0.0001 C.ar    1  LIG1        0.2092
     13 C          -0.1979    7.4043   -0.0001 C.ar    1  LIG1        0.2092
     14 C           1.1818    7.4036   -0.0002 C.ar    1  LIG1        0.2194
     15 O           1.6612    6.0932   -0.0003 O.2     1  LIG1       -0.4407
     16 O          -1.8411    5.5933   -0.0000 O.3     1  LIG1       -0.5007
     17 H          -1.8494    4.6334   -0.0000 H       1  LIG1        0.2924
     18 O          -0.9936    8.4324   -0.0001 O.3     1  LIG1       -0.5007
     19 H          -1.9053    8.1319   -0.0001 H       1  LIG1        0.2924
     20 C           2.1085    8.3153   -0.0002 C.ar    1  LIG1        0.2184
     21 C           3.4880    8.3153   -0.0001 C.ar    1  LIG1        0.2084
     22 C           3.9028    9.7027   -0.0001 C.ar    1  LIG1        0.1977
     23 C           2.7487   10.4588   -0.0002 C.ar    1  LIG1        0.1379
     24 O           1.6292    9.6260   -0.0003 O.2     1  LIG1       -0.4521
     25 H           2.4738   11.7294   -0.0002 H       1  LIG1        0.1069
     26 O           4.2837    7.2872   -0.0000 O.3     1  LIG1       -0.5007
     27 H           5.1955    7.5877   -0.0000 H       1  LIG1        0.2924
     28 O           5.1320   10.1260   -0.0001 O.3     1  LIG1       -0.5012
     29 H           5.1403   11.0859   -0.0001 H       1  LIG1        0.2924
@<TRIPOS>BOND
     1    24    23   ar
     2    24    20   ar
     3    15    14   ar
     4    15    11   ar
     5    23    25    1
     6    23    22   ar
     7     5     4   ar
     8     5     1   ar
     9    14    20    1
    10    14    13   ar
    11    20    21   ar
    12    21    22   ar
    13    21    26    1
    14    19    18    1
    15    12    13   ar
    16    12    11   ar
    17    12    16    1
    18    18    13    1
    19    22    28    1
    20    11     4    1
    21     4     3   ar
    22    28    29    1
    23    16    17    1
    24    26    27    1
    25    10     9    1
    26     9     3    1
    27     6     1    1
    28     3     2   ar
    29     2     1   ar
    30     2     7    1
    31     7     8    1
