@<TRIPOS>MOLECULE
mol_data/noopt/geoms/mol2/12ff12ff-.out
 20 21 0 0 0
SMALL
GASTEIGER

@<TRIPOS>ATOM
      1 C           0.1763    1.8460    0.0000 C.ar    1  LIG1        0.1379
      2 C           1.5558    1.8460    0.0000 C.ar    1  LIG1        0.1977
      3 C           1.9706    3.2334    0.0000 C.ar    1  LIG1        0.2084
      4 C           0.8165    3.9895   -0.0001 C.ar    1  LIG1        0.2184
      5 O          -0.3030    3.1567   -0.0002 O.2     1  LIG1       -0.4521
      6 H          -0.7504    0.9343    0.0000 H       1  LIG1        0.1069
      7 O           2.3515    0.8179    0.0001 O.3     1  LIG1       -0.5012
      8 H           3.2633    1.1184    0.0001 H       1  LIG1        0.2924
      9 O           3.1998    3.6567    0.0000 O.3     1  LIG1       -0.5007
     10 H           3.2081    4.6167    0.0000 H       1  LIG1        0.2924
     11 C           0.5416    5.2601   -0.0001 C.ar    1  LIG1        0.2184
     12 C          -0.6119    6.0167   -0.0001 C.ar    1  LIG1        0.2084
     13 C          -0.1979    7.4043   -0.0001 C.ar    1  LIG1        0.1977
     14 C           1.1818    7.4036   -0.0002 C.ar    1  LIG1        0.1379
     15 O           1.6612    6.0932   -0.0003 O.2     1  LIG1       -0.4521
     16 H           2.1085    8.3153   -0.0002 H       1  LIG1        0.1069
     17 O          -1.8411    5.5933   -0.0000 O.3     1  LIG1       -0.5007
     18 H          -1.8494    4.6334   -0.0000 H       1  LIG1        0.2924
     19 O          -0.9936    8.4324   -0.0001 O.3     1  LIG1       -0.5012
     20 H          -1.9053    8.1319   -0.0001 H       1  LIG1        0.2924
@<TRIPOS>BOND
     1    15    14   ar
     2    15    11   ar
     3     5     4   ar
     4     5     1   ar
     5    14    16    1
     6    14    13   ar
     7    20    19    1
     8    12    13   ar
     9    12    11   ar
    10    12    17    1
    11    19    13    1
    12    11     4    1
    13     4     3   ar
    14    17    18    1
    15    10     9    1
    16     1     6    1
    17     1     2   ar
    18     9     3    1
    19     3     2   ar
    20     2     7    1
    21     7     8    1
