@<TRIPOS>MOLECULE
mol_data/noopt/geoms/mol2/12ff12ff12ff-12ff.out
 38 41 0 0 0
SMALL
GASTEIGER

@<TRIPOS>ATOM
      1 C           0.1763    1.8460    0.0000 C.ar    1  LIG1        0.1379
      2 C           1.5558    1.8460    0.0000 C.ar    1  LIG1        0.1977
      3 C           1.9706    3.2334    0.0000 C.ar    1  LIG1        0.2084
      4 C           0.8165    3.9895   -0.0001 C.ar    1  LIG1        0.2184
      5 O          -0.3030    3.1567   -0.0002 O.2     1  LIG1       -0.4521
      6 H          -0.7504    0.9343    0.0000 H       1  LIG1        0.1069
      7 O           2.3515    0.8179    0.0001 O.3     1  LIG1       -0.5012
      8 H           3.2633    1.1184    0.0001 H       1  LIG1        0.2924
      9 O           3.1998    3.6567    0.0000 O.3     1  LIG1       -0.5007
     10 H           3.2081    4.6167    0.0000 H       1  LIG1        0.2924
     11 C           0.5416    5.2601   -0.0001 C.ar    1  LIG1        0.2194
     12 C           1.2792    6.4258   -0.0001 C.ar    1  LIG1        0.2092
     13 C           0.3286    7.5182   -0.0001 C.ar    1  LIG1        0.2092
     14 C          -0.9274    6.9472   -0.0002 C.ar    1  LIG1        0.2195
     15 O          -0.8223    5.5559   -0.0003 O.2     1  LIG1       -0.4407
     16 O           2.5735    6.5485   -0.0000 O.3     1  LIG1       -0.5007
     17 H           2.8071    7.4796    0.0000 H       1  LIG1        0.2924
     18 O           0.6282    8.7833   -0.0001 O.3     1  LIG1       -0.5007
     19 H          -0.1786    9.3036   -0.0001 H       1  LIG1        0.2924
     20 C          -2.1481    7.3943   -0.0002 C.ar    1  LIG1        0.2195
     21 C          -3.4042    6.8241   -0.0002 C.ar    1  LIG1        0.2092
     22 C          -4.3554    7.9160   -0.0002 C.ar    1  LIG1        0.2092
     23 C          -3.6171    9.0815   -0.0003 C.ar    1  LIG1        0.2194
     24 O          -2.2534    8.7859   -0.0004 O.2     1  LIG1       -0.4407
     25 O          -3.7038    5.5591   -0.0001 O.3     1  LIG1       -0.5007
     26 H          -2.8970    5.0387   -0.0001 H       1  LIG1        0.2924
     27 O          -5.6497    7.7933   -0.0002 O.3     1  LIG1       -0.5007
     28 H          -5.8833    6.8622   -0.0002 H       1  LIG1        0.2924
     29 C          -3.8920   10.3521   -0.0003 C.ar    1  LIG1        0.2184
     30 C          -3.1543   11.5178   -0.0002 C.ar    1  LIG1        0.2084
     31 C          -4.1049   12.6102   -0.0002 C.ar    1  LIG1        0.1977
     32 C          -5.3610   12.0393   -0.0003 C.ar    1  LIG1        0.1379
     33 O          -5.2558   10.6479   -0.0004 O.2     1  LIG1       -0.4521
     34 H          -6.5817   12.4864   -0.0003 H       1  LIG1        0.1069
     35 O          -1.8601   11.6405   -0.0001 O.3     1  LIG1       -0.5007
     36 H          -1.6265   12.5716   -0.0001 H       1  LIG1        0.2924
     37 O          -3.8054   13.8753   -0.0002 O.3     1  LIG1       -0.5012
     38 H          -4.6121   14.3956   -0.0002 H       1  LIG1        0.2924
@<TRIPOS>BOND
     1    33    32   ar
     2    33    29   ar
     3    24    23   ar
     4    24    20   ar
     5    32    34    1
     6    32    31   ar
     7    15    14   ar
     8    15    11   ar
     9    23    29    1
    10    23    22   ar
    11    29    30   ar
    12    30    31   ar
    13    30    35    1
    14    21    22   ar
    15    21    20   ar
    16    21    25    1
    17    28    27    1
    18    27    22    1
    19    31    37    1
    20    20    14    1
    21    14    13   ar
    22     5     4   ar
    23     5     1   ar
    24    37    38    1
    25    25    26    1
    26    35    36    1
    27    18    19    1
    28    18    13    1
    29    13    12   ar
    30    12    11   ar
    31    12    16    1
    32    11     4    1
    33     4     3   ar
    34     1     2   ar
    35     1     6    1
    36     2     3   ar
    37     2     7    1
    38     3     9    1
    39     9    10    1
    40    16    17    1
    41     7     8    1
