@<TRIPOS>MOLECULE
mol_data/noopt/geoms/mol2/12ff12ff-12ff12ff.out
 38 41 0 0 0
SMALL
GASTEIGER

@<TRIPOS>ATOM
      1 C           0.1763    1.8460    0.0000 C.ar    1  LIG1        0.1379
      2 C           1.5558    1.8460    0.0000 C.ar    1  LIG1        0.1977
      3 C           1.9706    3.2334    0.0000 C.ar    1  LIG1        0.2084
      4 C           0.8165    3.9895   -0.0001 C.ar    1  LIG1        0.2184
      5 O          -0.3030    3.1567   -0.0002 O.2     1  LIG1       -0.4521
      6 H          -0.7504    0.9343    0.0000 H       1  LIG1        0.1069
      7 O           2.3515    0.8179    0.0001 O.3     1  LIG1       -0.5012
      8 H           3.2633    1.1184    0.0001 H       1  LIG1        0.2924
      9 O           3.1998    3.6567    0.0000 O.3     1  LIG1       -0.5007
     10 H           3.2081    4.6167    0.0000 H       1  LIG1        0.2924
     11 C           0.5416    5.2601   -0.0001 C.ar    1  LIG1        0.2194
     12 C          -0.6119    6.0167   -0.0001 C.ar    1  LIG1        0.2092
     13 C          -0.1979    7.4043   -0.0001 C.ar    1  LIG1        0.2092
     14 C           1.1818    7.4036   -0.0002 C.ar    1  LIG1        0.2195
     15 O           1.6612    6.0932   -0.0003 O.2     1  LIG1       -0.4407
     16 O          -1.8411    5.5933   -0.0000 O.3     1  LIG1       -0.5007
     17 H          -1.8494    4.6334   -0.0000 H       1  LIG1        0.2924
     18 O          -0.9936    8.4324   -0.0001 O.3     1  LIG1       -0.5007
     19 H          -1.9053    8.1319   -0.0001 H       1  LIG1        0.2924
     20 C           2.1085    8.3153   -0.0002 C.ar    1  LIG1        0.2195
     21 C           3.4880    8.3153   -0.0001 C.ar    1  LIG1        0.2092
     22 C           3.9028    9.7027   -0.0001 C.ar    1  LIG1        0.2092
     23 C           2.7487   10.4588   -0.0002 C.ar    1  LIG1        0.2194
     24 O           1.6292    9.6260   -0.0003 O.2     1  LIG1       -0.4407
     25 O           4.2837    7.2872   -0.0000 O.3     1  LIG1       -0.5007
     26 H           5.1955    7.5877   -0.0000 H       1  LIG1        0.2924
     27 O           5.1320   10.1260   -0.0001 O.3     1  LIG1       -0.5007
     28 H           5.1403   11.0859   -0.0001 H       1  LIG1        0.2924
     29 C           2.4738   11.7294   -0.0002 C.ar    1  LIG1        0.2184
     30 C           3.2115   12.8951   -0.0002 C.ar    1  LIG1        0.2084
     31 C           2.2609   13.9875   -0.0002 C.ar    1  LIG1        0.1977
     32 C           1.0048   13.4165   -0.0003 C.ar    1  LIG1        0.1379
     33 O           1.1100   12.0252   -0.0004 O.2     1  LIG1       -0.4521
     34 H          -0.2159   13.8636   -0.0003 H       1  LIG1        0.1069
     35 O           4.5057   13.0177   -0.0001 O.3     1  LIG1       -0.5007
     36 H           4.7393   13.9489   -0.0001 H       1  LIG1        0.2924
     37 O           2.5604   15.2525   -0.0002 O.3     1  LIG1       -0.5012
     38 H           1.7537   15.7729   -0.0002 H       1  LIG1        0.2924
@<TRIPOS>BOND
     1    33    32   ar
     2    33    29   ar
     3    24    23   ar
     4    24    20   ar
     5    32    34    1
     6    32    31   ar
     7    15    14   ar
     8    15    11   ar
     9    23    29    1
    10    23    22   ar
    11    29    30   ar
    12     5     4   ar
    13     5     1   ar
    14    30    31   ar
    15    30    35    1
    16    31    37    1
    17    14    20    1
    18    14    13   ar
    19    37    38    1
    20    20    21   ar
    21    21    22   ar
    22    21    25    1
    23    19    18    1
    24    12    13   ar
    25    12    11   ar
    26    12    16    1
    27    18    13    1
    28    22    27    1
    29     4    11    1
    30     4     3   ar
    31    35    36    1
    32    27    28    1
    33    16    17    1
    34    25    26    1
    35     1     6    1
    36     1     2   ar
    37    10     9    1
    38     9     3    1
    39     3     2   ar
    40     2     7    1
    41     7     8    1
