@<TRIPOS>MOLECULE
mol_data/noopt/geoms/mol2/12ff6dh6lf-4hd-.out
 50 51 0 0 0
SMALL
GASTEIGER

@<TRIPOS>ATOM
      1 C           0.1763    1.8460    0.0000 C.ar    1  LIG1        0.1377
      2 C           1.5558    1.8460    0.0000 C.ar    1  LIG1        0.1976
      3 C           1.9706    3.2334    0.0000 C.ar    1  LIG1        0.2052
      4 C           0.8165    3.9895   -0.0001 C.ar    1  LIG1        0.1826
      5 O          -0.3030    3.1567   -0.0002 O.2     1  LIG1       -0.4553
      6 H          -0.7504    0.9343    0.0000 H       1  LIG1        0.1069
      7 O           2.3515    0.8179    0.0001 O.3     1  LIG1       -0.5012
      8 H           3.2633    1.1184    0.0001 H       1  LIG1        0.2924
      9 O           3.1998    3.6567    0.0000 O.3     1  LIG1       -0.5008
     10 H           3.2081    4.6167    0.0000 H       1  LIG1        0.2924
     11 C          -0.7953    5.6985    0.0001 C.ar    1  LIG1        0.1516
     12 C           0.5416    5.2601   -0.0001 C.ar    1  LIG1        0.0586
     13 C           1.5573    6.2179    0.0001 C.ar    1  LIG1       -0.0254
     14 C           1.2067    7.5691    0.0002 C.ar    1  LIG1        0.0518
     15 C          -0.1587    7.9086    0.0001 C.ar    1  LIG1        0.0981
     16 N          -1.1514    6.9977    0.0002 N.ar    1  LIG1       -0.2336
     17 H           2.6135    5.9134   -0.0011 H       1  LIG1        0.0644
     18 N          -2.6404    4.0918   -0.0000 N.1     1  LIG1       -0.1893
     19 C          -1.7757    4.8447    0.0000 C.1     1  LIG1        0.1198
     20 N           2.1151    8.4991    0.0002 N.pl3   1  LIG1       -0.3563
     21 H           2.9321    8.1670   -0.4713 H       1  LIG1        0.1424
     22 H           1.7640    9.3080   -0.4713 H       1  LIG1        0.1424
     23 C          -1.9027    9.4822   -0.0206 C.ar    1  LIG1        0.2245
     24 C          -0.5350    9.1529    0.0003 C.ar    1  LIG1        0.0643
     25 C           0.4001   10.1894    0.0214 C.ar    1  LIG1       -0.0376
     26 C          -0.0582   11.5080    0.0208 C.ar    1  LIG1        0.0111
     27 C          -1.4463   11.7365   -0.0012 C.ar    1  LIG1        0.0844
     28 N          -2.3623   10.7486   -0.0215 N.ar    1  LIG1       -0.2117
     29 H           1.4772    9.9709    0.0371 H       1  LIG1        0.0632
     30 O          -2.8110    8.5523   -0.0406 O.3     1  LIG1       -0.4792
     31 C          -4.1087    9.1529   -0.0480 C.3     1  LIG1        0.0804
     32 H          -4.8560    8.3872   -0.0646 H       1  LIG1        0.0660
     33 H          -4.2302    9.7507    0.8312 H       1  LIG1        0.0660
     34 H          -4.2112    9.7701   -0.9159 H       1  LIG1        0.0660
     35 O           0.7722   12.5081    0.0398 O.3     2  HOH2       -0.2528
     36 H           0.2806   13.3326    0.0445 H       3  UNK3        0.0000
     37 C          -1.0409   14.0471    0.0187 C.ar    1  LIG1        0.0536
     38 C          -1.6054   15.3373    0.0177 C.ar    1  LIG1       -0.0375
     39 C          -1.9216   12.9464   -0.0026 C.ar    1  LIG1        0.0246
     40 C          -2.9855   15.5256   -0.0041 C.ar    1  LIG1       -0.0425
     41 H          -0.9440   16.2007    0.0342 H       1  LIG1        0.0637
     42 C          -3.2995   13.1338   -0.0244 C.ar    1  LIG1       -0.0333
     43 C          -3.8411   14.4234   -0.0254 C.ar    1  LIG1        0.0525
     44 H          -3.9578   12.2689   -0.0405 H       1  LIG1        0.0637
     45 H          -3.4726   16.7309   -0.0044 H       1  LIG1        0.0631
     46 N           0.2541   13.9351    0.0393 N.pl3   1  LIG1       -0.2659
     47 H           0.5232   13.0923   -0.4267 H       0  HOH0        0.2528
     48 H           0.6640   14.7191   -0.4268 H       1  LIG1        0.1699
     49 N          -6.2666   14.7415   -0.0636 N.1     1  LIG1       -0.1909
     50 C          -5.1299   14.5925   -0.0457 C.1     1  LIG1        0.0992
@<TRIPOS>BOND
     1    34    31    1
     2    22    20    1
     3    21    20    1
     4    48    46    1
     5    47    35    1
     6    32    31    1
     7    49    50    3
     8    31    30    1
     9    31    33    1
    10    50    43    1
    11    30    23    1
    12    44    42    1
    13    43    42   ar
    14    43    40   ar
    15    42    39   ar
    16    28    23   ar
    17    28    27   ar
    18    23    24   ar
    19    45    40    1
    20    40    38   ar
    21    39    27    1
    22    39    37   ar
    23    27    26   ar
    24    17    13    1
    25     5     4   ar
    26     5     1   ar
    27    12     4    1
    28    12    11   ar
    29    12    13   ar
    30     4     3   ar
    31    18    19    3
    32     1     2   ar
    33     1     6    1
    34     2     3   ar
    35     2     7    1
    36     3     9    1
    37     9    10    1
    38    19    11    1
    39    11    16   ar
    40    13    14   ar
    41     7     8    1
    42    15    16   ar
    43    15    14   ar
    44    15    24    1
    45    20    14    1
    46    24    25   ar
    47    38    37   ar
    48    38    41    1
    49    37    46    1
    50    26    25   ar
    51    25    29    1
