@<TRIPOS>MOLECULE
mol_data/noopt/geoms/mol2/12fg12fg-.out
 20 21 0 0 0
SMALL
GASTEIGER

@<TRIPOS>ATOM
      1 C           0.1763    1.8460    0.0000 C.ar    1  LIG1        0.1352
      2 C           1.5558    1.8460    0.0000 C.ar    1  LIG1        0.1686
      3 C           1.9706    3.2334    0.0000 C.ar    1  LIG1        0.0954
      4 C           0.8165    3.9895   -0.0001 C.ar    1  LIG1        0.1901
      5 O          -0.3030    3.1567   -0.0002 O.2     1  LIG1       -0.4548
      6 H          -0.7504    0.9343    0.0000 H       1  LIG1        0.1068
      7 O           2.3515    0.8179    0.0001 O.3     1  LIG1       -0.5029
      8 H           3.2633    1.1184    0.0001 H       1  LIG1        0.2923
      9 S           3.1997    3.6567    0.0000 S.3     1  LIG1       -0.1354
     10 H           3.2111    4.9666    0.0000 H       1  LIG1        0.1073
     11 C           0.5416    5.2601   -0.0001 C.ar    1  LIG1        0.2131
     12 C           1.2792    6.4258   -0.0001 C.ar    1  LIG1        0.1792
     13 C           0.3286    7.5182   -0.0001 C.ar    1  LIG1        0.0849
     14 C          -0.9274    6.9472   -0.0002 C.ar    1  LIG1        0.1096
     15 O          -0.8223    5.5559   -0.0003 O.2     1  LIG1       -0.4549
     16 H          -2.1481    7.3943   -0.0002 H       1  LIG1        0.1042
     17 O           2.5735    6.5485   -0.0000 O.3     1  LIG1       -0.5024
     18 H           2.8071    7.4796    0.0000 H       1  LIG1        0.2923
     19 S           0.6282    8.7832   -0.0001 S.3     1  LIG1       -0.1361
     20 H          -0.4727    9.4932   -0.0001 H       1  LIG1        0.1073
@<TRIPOS>BOND
     1    15    14   ar
     2    15    11   ar
     3    16    14    1
     4     5     4   ar
     5     5     1   ar
     6    14    13   ar
     7    11    12   ar
     8    11     4    1
     9    20    19    1
    10    19    13    1
    11    13    12   ar
    12    12    17    1
    13     4     3   ar
    14    10     9    1
    15     1     6    1
    16     1     2   ar
    17     9     3    1
    18    17    18    1
    19     3     2   ar
    20     2     7    1
    21     7     8    1
