@<TRIPOS>MOLECULE
mol_data/noopt/geoms/mol2/12fg12fg12fg-12fg.out
 38 41 0 0 0
SMALL
GASTEIGER

@<TRIPOS>ATOM
      1 C           0.1763    1.8460    0.0000 C.ar    1  LIG1        0.1352
      2 C           1.5558    1.8460    0.0000 C.ar    1  LIG1        0.1686
      3 C           1.9706    3.2334    0.0000 C.ar    1  LIG1        0.0954
      4 C           0.8165    3.9895   -0.0001 C.ar    1  LIG1        0.1901
      5 O          -0.3030    3.1567   -0.0002 O.2     1  LIG1       -0.4548
      6 H          -0.7504    0.9343    0.0000 H       1  LIG1        0.1068
      7 O           2.3515    0.8179    0.0001 O.3     1  LIG1       -0.5029
      8 H           3.2633    1.1184    0.0001 H       1  LIG1        0.2923
      9 S           3.1997    3.6567    0.0000 S.3     1  LIG1       -0.1354
     10 H           3.2111    4.9666    0.0000 H       1  LIG1        0.1073
     11 C           0.5416    5.2601   -0.0001 C.ar    1  LIG1        0.2141
     12 C           1.2791    6.4258    0.0147 C.ar    1  LIG1        0.1800
     13 C           0.3286    7.5182    0.0040 C.ar    1  LIG1        0.0962
     14 C          -0.9273    6.9473   -0.0167 C.ar    1  LIG1        0.1912
     15 O          -0.8221    5.5559   -0.0197 O.2     1  LIG1       -0.4435
     16 O           2.5732    6.5484    0.0345 O.3     1  LIG1       -0.5024
     17 H           2.8068    7.4795    0.0394 H       1  LIG1        0.2923
     18 S           0.6281    8.7831    0.0126 S.3     1  LIG1       -0.1353
     19 H          -0.4728    9.4931    0.0155 H       1  LIG1        0.1073
     20 C          -2.1478    7.3944   -0.0335 C.ar    1  LIG1        0.2142
     21 C          -2.7386    8.6410   -0.0314 C.ar    1  LIG1        0.1800
     22 C          -4.1697    8.4219   -0.0585 C.ar    1  LIG1        0.0962
     23 C          -4.3586    7.0553   -0.0754 C.ar    1  LIG1        0.1912
     24 O          -3.1268    6.4002   -0.0606 O.2     1  LIG1       -0.4435
     25 O          -2.1504    9.8002   -0.0096 O.3     1  LIG1       -0.5024
     26 H          -2.8125   10.4954   -0.0042 H       1  LIG1        0.2923
     27 S          -5.0785    9.3514   -0.0651 S.3     1  LIG1       -0.1353
     28 H          -6.2671    8.8008   -0.0673 H       1  LIG1        0.1073
     29 C          -5.3889    6.2629   -0.1012 C.ar    1  LIG1        0.2131
     30 C          -6.7582    6.4302   -0.1059 C.ar    1  LIG1        0.1792
     31 C          -7.3380    5.1037   -0.1417 C.ar    1  LIG1        0.0849
     32 C          -6.2840    4.2135   -0.1566 C.ar    1  LIG1        0.1096
     33 O          -5.0719    4.9042   -0.1322 O.2     1  LIG1       -0.4549
     34 H          -6.1650    2.9193   -0.1872 H       1  LIG1        0.1042
     35 O          -7.4236    7.5468   -0.0830 O.3     1  LIG1       -0.5024
     36 H          -8.3650    7.3588   -0.0774 H       1  LIG1        0.2923
     37 S          -8.6093    4.8327   -0.1564 S.3     1  LIG1       -0.1361
     38 H          -8.7795    3.5338   -0.1613 H       1  LIG1        0.1073
@<TRIPOS>BOND
     1    34    32    1
     2    38    37    1
     3    32    31   ar
     4    32    33   ar
     5    37    31    1
     6    31    30   ar
     7    33    29   ar
     8    30    29   ar
     9    30    35    1
    10    29    23    1
    11    35    36    1
    12    23    24   ar
    13    23    22   ar
    14    28    27    1
    15    27    22    1
    16    24    20   ar
    17    22    21   ar
    18    20    21   ar
    19    20    14    1
    20    21    25    1
    21    15    14   ar
    22    15    11   ar
    23    14    13   ar
    24    25    26    1
    25     5     4   ar
    26     5     1   ar
    27     4    11    1
    28     4     3   ar
    29    11    12   ar
    30     3     2   ar
    31     3     9    1
    32     1     2   ar
    33     1     6    1
    34     2     7    1
    35    10     9    1
    36     7     8    1
    37    13    18    1
    38    13    12   ar
    39    18    19    1
    40    12    16    1
    41    16    17    1
