@<TRIPOS>MOLECULE
mol_data/noopt/geoms/mol2/12fg12fg-12fg-.out
 29 31 0 0 0
SMALL
GASTEIGER

@<TRIPOS>ATOM
      1 C           0.1763    1.8460    0.0000 C.ar    1  LIG1        0.1352
      2 C           1.5558    1.8460    0.0000 C.ar    1  LIG1        0.1686
      3 C           1.9706    3.2334    0.0000 C.ar    1  LIG1        0.0954
      4 C           0.8165    3.9895   -0.0001 C.ar    1  LIG1        0.1901
      5 O          -0.3030    3.1567   -0.0002 O.2     1  LIG1       -0.4548
      6 H          -0.7504    0.9343    0.0000 H       1  LIG1        0.1068
      7 O           2.3515    0.8179    0.0001 O.3     1  LIG1       -0.5029
      8 H           3.2633    1.1184    0.0001 H       1  LIG1        0.2923
      9 S           3.1997    3.6567    0.0000 S.3     1  LIG1       -0.1354
     10 H           3.2111    4.9666    0.0000 H       1  LIG1        0.1073
     11 C           0.5416    5.2601   -0.0001 C.ar    1  LIG1        0.2141
     12 C           1.2792    6.4258   -0.0001 C.ar    1  LIG1        0.1800
     13 C           0.3286    7.5182   -0.0001 C.ar    1  LIG1        0.0962
     14 C          -0.9274    6.9472   -0.0002 C.ar    1  LIG1        0.1912
     15 O          -0.8223    5.5559   -0.0003 O.2     1  LIG1       -0.4435
     16 O           2.5735    6.5485   -0.0000 O.3     1  LIG1       -0.5024
     17 H           2.8071    7.4796    0.0000 H       1  LIG1        0.2923
     18 S           0.6282    8.7832   -0.0001 S.3     1  LIG1       -0.1353
     19 H          -0.4727    9.4932   -0.0001 H       1  LIG1        0.1073
     20 C          -2.1481    7.3943   -0.0002 C.ar    1  LIG1        0.2131
     21 C          -2.7388    8.6409    0.0146 C.ar    1  LIG1        0.1792
     22 C          -4.1701    8.4218    0.0039 C.ar    1  LIG1        0.0849
     23 C          -4.3592    7.0552   -0.0168 C.ar    1  LIG1        0.1096
     24 O          -3.1273    6.4001   -0.0198 O.2     1  LIG1       -0.4549
     25 H          -5.3897    6.2629   -0.0336 H       1  LIG1        0.1042
     26 O          -2.1504    9.8000    0.0344 O.3     1  LIG1       -0.5024
     27 H          -2.8124   10.4953    0.0393 H       1  LIG1        0.2923
     28 S          -5.0789    9.3513    0.0125 S.3     1  LIG1       -0.1361
     29 H          -6.2676    8.8006    0.0154 H       1  LIG1        0.1073
@<TRIPOS>BOND
     1    25    23    1
     2    24    23   ar
     3    24    20   ar
     4    23    22   ar
     5    15    14   ar
     6    15    11   ar
     7     5     4   ar
     8     5     1   ar
     9    20    14    1
    10    20    21   ar
    11    14    13   ar
    12     4    11    1
    13     4     3   ar
    14    19    18    1
    15    18    13    1
    16    11    12   ar
    17    12    13   ar
    18    12    16    1
    19     1     6    1
    20     1     2   ar
    21    16    17    1
    22    10     9    1
    23     9     3    1
    24     3     2   ar
    25     2     7    1
    26     7     8    1
    27    22    28    1
    28    22    21   ar
    29    28    29    1
    30    21    26    1
    31    26    27    1
