@<TRIPOS>MOLECULE
mol_data/noopt/geoms/mol2/12fg12fg.out
 20 21 0 0 0
SMALL
GASTEIGER

@<TRIPOS>ATOM
      1 C           0.1763    1.8460    0.0000 C.ar    1  LIG1        0.1352
      2 C           1.5558    1.8460    0.0000 C.ar    1  LIG1        0.1686
      3 C           1.9706    3.2334    0.0000 C.ar    1  LIG1        0.0954
      4 C           0.8165    3.9895   -0.0001 C.ar    1  LIG1        0.1901
      5 O          -0.3030    3.1567   -0.0002 O.2     1  LIG1       -0.4548
      6 H          -0.7504    0.9343    0.0000 H       1  LIG1        0.1068
      7 O           2.3515    0.8179    0.0001 O.3     1  LIG1       -0.5029
      8 H           3.2633    1.1184    0.0001 H       1  LIG1        0.2923
      9 S           3.1997    3.6567    0.0000 S.3     1  LIG1       -0.1354
     10 H           3.2111    4.9666    0.0000 H       1  LIG1        0.1073
     11 C           0.5416    5.2601   -0.0001 C.ar    1  LIG1        0.2131
     12 C           1.2791    6.4258    0.0147 C.ar    1  LIG1        0.1792
     13 C           0.3286    7.5182    0.0040 C.ar    1  LIG1        0.0849
     14 C          -0.9273    6.9473   -0.0167 C.ar    1  LIG1        0.1096
     15 O          -0.8221    5.5559   -0.0197 O.2     1  LIG1       -0.4549
     16 H          -2.1478    7.3944   -0.0335 H       1  LIG1        0.1042
     17 O           2.5732    6.5484    0.0345 O.3     1  LIG1       -0.5024
     18 H           2.8068    7.4795    0.0394 H       1  LIG1        0.2923
     19 S           0.6281    8.7831    0.0126 S.3     1  LIG1       -0.1361
     20 H          -0.4728    9.4931    0.0155 H       1  LIG1        0.1073
@<TRIPOS>BOND
     1    16    14    1
     2    15    14   ar
     3    15    11   ar
     4    14    13   ar
     5     5     4   ar
     6     5     1   ar
     7     4    11    1
     8     4     3   ar
     9    11    12   ar
    10     1     6    1
    11     1     2   ar
    12    10     9    1
    13     9     3    1
    14     3     2   ar
    15     2     7    1
    16     7     8    1
    17    13    19    1
    18    13    12   ar
    19    19    20    1
    20    12    17    1
    21    17    18    1
