@<TRIPOS>MOLECULE
mol_data/noopt/geoms/mol2/12fg12fg12fg.out
 29 31 0 0 0
SMALL
GASTEIGER

@<TRIPOS>ATOM
      1 C           0.1763    1.8460    0.0000 C.ar    1  LIG1        0.1352
      2 C           1.5558    1.8460    0.0000 C.ar    1  LIG1        0.1686
      3 C           1.9706    3.2334    0.0000 C.ar    1  LIG1        0.0954
      4 C           0.8165    3.9895   -0.0001 C.ar    1  LIG1        0.1901
      5 O          -0.3030    3.1567   -0.0002 O.2     1  LIG1       -0.4548
      6 H          -0.7504    0.9343    0.0000 H       1  LIG1        0.1068
      7 O           2.3515    0.8179    0.0001 O.3     1  LIG1       -0.5029
      8 H           3.2633    1.1184    0.0001 H       1  LIG1        0.2923
      9 S           3.1997    3.6567    0.0000 S.3     1  LIG1       -0.1354
     10 H           3.2111    4.9666    0.0000 H       1  LIG1        0.1073
     11 C           0.5416    5.2601   -0.0001 C.ar    1  LIG1        0.2141
     12 C           1.2791    6.4258    0.0147 C.ar    1  LIG1        0.1800
     13 C           0.3286    7.5182    0.0040 C.ar    1  LIG1        0.0962
     14 C          -0.9273    6.9473   -0.0167 C.ar    1  LIG1        0.1912
     15 O          -0.8221    5.5559   -0.0197 O.2     1  LIG1       -0.4435
     16 O           2.5732    6.5484    0.0345 O.3     1  LIG1       -0.5024
     17 H           2.8068    7.4795    0.0394 H       1  LIG1        0.2923
     18 S           0.6281    8.7831    0.0126 S.3     1  LIG1       -0.1353
     19 H          -0.4728    9.4931    0.0155 H       1  LIG1        0.1073
     20 C          -2.1478    7.3944   -0.0335 C.ar    1  LIG1        0.2131
     21 C          -2.7383    8.6411   -0.0462 C.ar    1  LIG1        0.1792
     22 C          -4.1697    8.4219   -0.0626 C.ar    1  LIG1        0.0849
     23 C          -4.3589    7.0552   -0.0589 C.ar    1  LIG1        0.1096
     24 O          -3.1271    6.4001   -0.0412 O.2     1  LIG1       -0.4549
     25 H          -5.3894    6.2628   -0.0679 H       1  LIG1        0.1042
     26 O          -2.1499    9.8003   -0.0441 O.3     1  LIG1       -0.5024
     27 H          -2.8118   10.4956   -0.0436 H       1  LIG1        0.2923
     28 S          -5.0783    9.3515   -0.0777 S.3     1  LIG1       -0.1361
     29 H          -6.2670    8.8009   -0.0828 H       1  LIG1        0.1073
@<TRIPOS>BOND
     1    29    28    1
     2    28    22    1
     3    25    23    1
     4    22    23   ar
     5    22    21   ar
     6    23    24   ar
     7    21    26    1
     8    21    20   ar
     9    26    27    1
    10    24    20   ar
    11    20    14    1
    12    15    14   ar
    13    15    11   ar
    14    14    13   ar
    15     5     4   ar
    16     5     1   ar
    17     4    11    1
    18     4     3   ar
    19    11    12   ar
    20    10     9    1
    21     2     3   ar
    22     2     1   ar
    23     2     7    1
    24     3     9    1
    25     6     1    1
    26     7     8    1
    27    13    18    1
    28    13    12   ar
    29    18    19    1
    30    12    16    1
    31    16    17    1
