@<TRIPOS>MOLECULE
mol_data/noopt/geoms/mol2/12fh6fh4ef-12ie.out
 49 52 0 0 0
SMALL
GASTEIGER

@<TRIPOS>ATOM
      1 C           0.1763    1.8460    0.0000 C.2     1  LIG1       -0.0147
      2 C           1.5558    1.8460    0.0000 C.2     1  LIG1        0.1413
      3 C           1.9706    3.2334    0.0000 C.2     1  LIG1        0.1146
      4 C           0.8165    3.9895   -0.0001 C.2     1  LIG1        0.2152
      5 O          -0.3030    3.1567   -0.0002 O.2     1  LIG1       -0.2850
      6 H          -0.7504    0.9343    0.0000 H       1  LIG1        0.0656
      7 O           2.3515    0.8179    0.0001 O.2     1  LIG1       -0.5048
      8 H           3.2633    1.1184    0.0001 H       1  LIG1        0.2922
      9 N           3.1998    3.6567   -0.0000 N.pl3   1  LIG1       -0.3522
     10 H           3.7808    2.9932   -0.4714 H       1  LIG1        0.1425
     11 H           3.2491    4.5372   -0.4714 H       1  LIG1        0.1425
     12 C          -0.7953    5.6985    0.0001 C.ar    1  LIG1        0.2241
     13 C           0.5416    5.2601   -0.0001 C.ar    1  LIG1        0.0867
     14 C           1.5573    6.2179    0.0001 C.ar    1  LIG1       -0.0227
     15 C           1.2067    7.5691    0.0002 C.ar    1  LIG1        0.0547
     16 C          -0.1587    7.9086    0.0001 C.ar    1  LIG1        0.0960
     17 N          -1.1514    6.9977    0.0002 N.ar    1  LIG1       -0.2106
     18 H           2.6135    5.9134   -0.0011 H       1  LIG1        0.0645
     19 O          -1.7757    4.8447    0.0000 O.3     1  LIG1       -0.4919
     20 H          -1.4230    3.9518    0.0000 H       1  LIG1        0.2938
     21 N           2.1151    8.4991    0.0002 N.pl3   1  LIG1       -0.3369
     22 H           2.9321    8.1670   -0.4713 H       1  LIG1        0.1465
     23 H           1.7640    9.3080   -0.4713 H       1  LIG1        0.0374
     24 C           0.4315   10.1791    0.0225 C.ar    1  LIG1       -0.0317
     25 C          -0.0272   11.5106    0.0233 C.ar    1  LIG1       -0.0434
     26 C          -0.5350    9.1529    0.0003 C.ar    1  LIG1        0.0093
     27 C          -1.3877   11.8094    0.0023 C.ar    1  LIG1        0.0592
     28 H           0.7016   12.3178    0.0405 H       1  LIG1        0.0629
     29 C          -1.8933    9.4507   -0.0206 C.ar    1  LIG1       -0.0100
     30 C          -2.3292   10.7798   -0.0199 C.ar    1  LIG1        0.1281
     31 H          -2.6191    8.6416   -0.0374 H       1  LIG1        0.0661
     32 C           1.7133    9.9631    0.0424 C.3     1  LIG1        0.0134
     33 C           2.8977    9.7635    0.0608 C.3     1  LIG1        0.0469
     34 H           3.9527    9.5858    0.0772 H       1  LIG1        0.0522
     35 O          -3.6003   11.0521   -0.0394 O.3     1  LIG1       -0.5060
     36 H          -4.1031   10.2343   -0.0442 H       1  LIG1        0.2922
     37 C          -1.7761   13.0500    0.0036 C.ar    1  LIG1        0.1424
     38 C          -1.1468   14.2775    0.0194 C.ar    1  LIG1        0.0108
     39 C          -2.1920   15.2797    0.0100 C.ar    1  LIG1        0.0658
     40 C          -3.3912   14.5978   -0.0111 C.ar    1  LIG1        0.1082
     41 O          -3.1610   13.2216   -0.0154 O.2     1  LIG1       -0.4613
     42 H          -4.6472   14.9330   -0.0272 H       1  LIG1        0.1042
     43 C           0.1313   14.5164    0.0391 C.3     1  LIG1       -0.0349
     44 H           0.3138   15.4393    0.5488 H       1  LIG1        0.0279
     45 H           0.4969   14.5848   -0.9643 H       1  LIG1        0.0279
     46 H           0.6348   13.7217    0.5488 H       1  LIG1        0.0279
     47 C          -2.0078   16.5666    0.0197 C.1     1  LIG1       -0.0662
     48 C          -1.8377   17.7556    0.0287 C.1     1  LIG1       -0.1138
     49 H          -1.6861   18.8148    0.0367 H       1  LIG1        0.1232
@<TRIPOS>BOND
     1    45    43    1
     2    11     9    1
     3    10     9    1
     4    23    32    1
     5    22    21    1
     6    36    35    1
     7    35    30    1
     8    31    29    1
     9    42    40    1
    10    29    30   ar
    11    29    26   ar
    12    30    27   ar
    13    41    40   ar
    14    41    37   ar
    15    40    39   ar
    16    18    14    1
    17     5     4    1
    18    13     4    1
    19    13    12   ar
    20    13    14   ar
    21     4     3    2
    22     9     3    1
    23     6     1    1
    24     1     2    2
    25     3     2    1
    26     2     7    1
    27    20    19    1
    28    19    12    1
    29    12    17   ar
    30    14    15   ar
    31     7     8    1
    32    16    17   ar
    33    16    15   ar
    34    16    26    1
    35    21    15    1
    36    21    33    1
    37    26    24   ar
    38    27    37    1
    39    27    25   ar
    40    37    38   ar
    41    39    38   ar
    42    39    47    1
    43    38    43    1
    44    47    48    3
    45    24    25   ar
    46    24    32    1
    47    25    28    1
    48    48    49    1
    49    43    46    1
    50    43    44    1
    51    32    33    1
    52    33    34    1
