@<TRIPOS>MOLECULE
mol_data/noopt/geoms/mol2/12fh4ef13if6da-.out
 47 50 0 0 0
SMALL
GASTEIGER

@<TRIPOS>ATOM
      1 C           0.1763    1.8460    0.0000 C.ar    1  LIG1        0.1358
      2 C           1.5558    1.8460    0.0000 C.ar    1  LIG1        0.1763
      3 C           1.9706    3.2334    0.0000 C.ar    1  LIG1        0.1131
      4 C           0.8165    3.9895   -0.0001 C.ar    1  LIG1        0.1603
      5 O          -0.3030    3.1567   -0.0002 O.2     1  LIG1       -0.4572
      6 H          -0.7504    0.9343    0.0000 H       1  LIG1        0.1068
      7 O           2.3515    0.8179    0.0001 O.3     1  LIG1       -0.5024
      8 H           3.2633    1.1184    0.0001 H       1  LIG1        0.2923
      9 N           3.1998    3.6567   -0.0000 N.pl3   1  LIG1       -0.3522
     10 H           3.7808    2.9932   -0.4714 H       1  LIG1        0.1425
     11 H           3.2491    4.5372   -0.4714 H       1  LIG1        0.1425
     12 C           1.5879    6.2051    0.0007 C.ar    1  LIG1        0.0362
     13 C           1.2379    7.5692    0.0022 C.ar    1  LIG1       -0.0330
     14 C           0.5416    5.2600   -0.0001 C.ar    1  LIG1        0.0380
     15 C          -0.0943    7.9766    0.0023 C.ar    1  LIG1        0.0413
     16 H           2.0295    8.3152    0.0030 H       1  LIG1        0.0638
     17 C          -0.7885    5.6662    0.0000 C.ar    1  LIG1       -0.0076
     18 C          -1.1159    7.0261    0.0011 C.ar    1  LIG1        0.1267
     19 H          -1.5772    4.9182   -0.0005 H       1  LIG1        0.0662
     20 C           2.8482    5.8866    0.0003 C.1     1  LIG1       -0.0689
     21 C           4.0128    5.5923    0.0000 C.1     1  LIG1       -0.1139
     22 H           5.0502    5.3302   -0.0002 H       1  LIG1        0.1232
     23 O          -2.3611    7.3999    0.0014 O.3     1  LIG1       -0.5061
     24 H          -2.9281    6.6253    0.0015 H       1  LIG1        0.2922
     25 C          -0.3815    9.2445    0.0036 C.ar    1  LIG1        0.0570
     26 C           0.4324   10.3332    0.0207 C.ar    1  LIG1        0.0170
     27 C          -0.4059   11.4941    0.0143 C.ar    1  LIG1        0.1456
     28 C          -1.6953   11.0638   -0.0082 C.ar    1  LIG1        0.0919
     29 N          -1.6849    9.6872   -0.0143 N.ar    1  LIG1       -0.3509
     30 H          -2.4906    9.1053   -0.0300 H       1  LIG1        0.1660
     31 C           1.7325   10.3190    0.0408 C.3     1  LIG1       -0.0342
     32 H           2.0909   11.1888    0.5507 H       1  LIG1        0.0279
     33 H           2.1047   10.3150   -0.9624 H       1  LIG1        0.0279
     34 H           2.0718    9.4415    0.5506 H       1  LIG1        0.0279
     35 O          -0.0107   12.7326    0.0272 O.3     1  LIG1       -0.5044
     36 H          -0.7754   13.3129    0.0303 H       1  LIG1        0.2922
     37 C          -4.0440   11.0628   -0.0502 C.ar    1  LIG1        0.1492
     38 C          -2.8085   11.7351   -0.0218 C.ar    1  LIG1        0.0377
     39 C          -2.8092   13.1311   -0.0083 C.ar    1  LIG1       -0.0484
     40 C          -4.0329   13.8026   -0.0238 C.ar    1  LIG1       -0.0429
     41 C          -5.2161   13.0418   -0.0523 C.ar    1  LIG1        0.0291
     42 N          -5.2337   11.6947   -0.0655 N.ar    1  LIG1       -0.2440
     43 H          -1.8635   13.6909    0.0129 H       1  LIG1        0.0625
     44 H          -6.3797   13.6212   -0.0675 H       1  LIG1        0.0830
     45 N          -4.1396    8.6182   -0.0753 N.1     1  LIG1       -0.1893
     46 C          -4.0948    9.7639   -0.0635 C.1     1  LIG1        0.1198
     47 H          -4.0870   15.1015   -0.0124 H       1  LIG1        0.0633
@<TRIPOS>BOND
     1    33    31    1
     2    11     9    1
     3    10     9    1
     4    45    46    3
     5    44    41    1
     6    42    41   ar
     7    42    37   ar
     8    46    37    1
     9    41    40   ar
    10    37    38   ar
    11    30    29    1
    12    40    47    1
    13    40    39   ar
    14    38    39   ar
    15    38    28    1
    16    29    28   ar
    17    29    25   ar
    18    39    43    1
    19    28    27   ar
    20    19    17    1
    21    22    21    1
    22     5     4   ar
    23     5     1   ar
    24    14     4    1
    25    14    17   ar
    26    14    12   ar
    27     4     3   ar
    28     1     2   ar
    29     1     6    1
    30     2     3   ar
    31     2     7    1
    32     3     9    1
    33    17    18   ar
    34    21    20    3
    35     7     8    1
    36    20    12    1
    37    12    13   ar
    38    18    23    1
    39    18    15   ar
    40    23    24    1
    41    13    15   ar
    42    13    16    1
    43    15    25    1
    44    25    26   ar
    45    27    26   ar
    46    27    35    1
    47    26    31    1
    48    35    36    1
    49    31    34    1
    50    31    32    1
