@<TRIPOS>MOLECULE
mol_data/noopt/geoms/mol2/12fh6fh(150)4fd(210)12ad(110).out
 44 47 0 0 0
SMALL
GASTEIGER

@<TRIPOS>ATOM
      1 C           0.1763    1.8460    0.0000 C.ar    1  LIG1        0.1358
      2 C           1.5558    1.8460    0.0000 C.ar    1  LIG1        0.1763
      3 C           1.9706    3.2334    0.0000 C.ar    1  LIG1        0.1132
      4 C           0.8165    3.9895   -0.0001 C.ar    1  LIG1        0.1642
      5 O          -0.3030    3.1567   -0.0002 O.2     1  LIG1       -0.4571
      6 H          -0.7504    0.9343    0.0000 H       1  LIG1        0.1068
      7 O           2.3515    0.8179    0.0001 O.3     1  LIG1       -0.5024
      8 H           3.2633    1.1184    0.0001 H       1  LIG1        0.2923
      9 N           3.1998    3.6567   -0.0000 N.pl3   1  LIG1       -0.3522
     10 H           3.7808    2.9932   -0.4714 H       1  LIG1        0.1425
     11 H           3.2491    4.5372   -0.4714 H       1  LIG1        0.1425
     12 C           1.4189    6.1775   -0.6068 C.ar    1  LIG1        0.2240
     13 C           0.5416    5.2601   -0.0001 C.ar    1  LIG1        0.0822
     14 C          -0.6230    5.7462    0.5970 C.ar    1  LIG1       -0.0231
     15 C          -0.8698    7.1198    0.5684 C.ar    1  LIG1        0.0519
     16 C           0.0681    7.9577   -0.0624 C.ar    1  LIG1        0.0989
     17 N           1.1965    7.5057   -0.6435 N.ar    1  LIG1       -0.2104
     18 H          -1.3317    5.0598    1.0816 H       1  LIG1        0.0645
     19 O           2.5157    5.7732   -1.1758 O.3     1  LIG1       -0.4919
     20 H           3.0990    6.5226   -1.3160 H       1  LIG1        0.2938
     21 N          -1.9395    7.6218    1.1104 N.pl3   1  LIG1       -0.3563
     22 H          -2.0448    8.5732    0.8208 H       1  LIG1        0.1424
     23 H          -2.7386    7.0949    0.8208 H       1  LIG1        0.1424
     24 C          -1.2615    9.7624   -0.7546 C.ar    1  LIG1        0.1268
     25 C          -1.4157   11.1619   -0.7860 C.ar    1  LIG1       -0.0076
     26 C          -0.1174    9.2432   -0.1149 C.ar    1  LIG1        0.0449
     27 C          -0.4739   12.0089   -0.2061 C.ar    1  LIG1        0.0381
     28 H          -2.2912   11.5836   -1.2747 H       1  LIG1        0.0662
     29 C           0.8231   10.0884    0.4641 C.ar    1  LIG1       -0.0309
     30 C           0.6519   11.4760    0.4229 C.ar    1  LIG1        0.0633
     31 H           1.6971    9.6638    0.9515 H       1  LIG1        0.0638
     32 O          -2.1741    9.0237   -1.3128 O.3     1  LIG1       -0.5061
     33 H          -1.8297    8.1382   -1.4504 H       1  LIG1        0.2922
     34 N           2.3130   12.9536    1.4445 N.1     1  LIG1       -0.1908
     35 C           1.5345   12.2611    0.9657 C.1     1  LIG1        0.0999
     36 C          -0.6479   13.2963   -0.2535 C.ar    1  LIG1        0.1374
     37 C          -1.1518   14.2527    0.6036 C.ar    1  LIG1        0.0016
     38 C          -1.0530   15.5217   -0.0869 C.ar    1  LIG1        0.0900
     39 C          -0.4950   15.2565   -1.3205 C.ar    1  LIG1        0.1099
     40 O          -0.2363   13.8913   -1.4469 O.2     1  LIG1       -0.4616
     41 H          -0.1654   15.9648   -2.3596 H       1  LIG1        0.1043
     42 H          -1.6279   14.0770    1.8004 H       1  LIG1        0.0668
     43 N          -1.7542   17.6890    0.8059 N.1     1  LIG1       -0.1908
     44 C          -1.4256   16.6733    0.3875 C.1     1  LIG1        0.1023
@<TRIPOS>BOND
     1    41    39    1
     2    33    32    1
     3    40    39   ar
     4    40    36   ar
     5    39    38   ar
     6    20    19    1
     7    32    24    1
     8    28    25    1
     9    19    12    1
    10    25    24   ar
    11    25    27   ar
    12    24    26   ar
    13    17    12   ar
    14    17    16   ar
    15    12    13   ar
    16    11     9    1
    17    10     9    1
    18    36    27    1
    19    36    37   ar
    20    27    30   ar
    21    26    16    1
    22    26    29   ar
    23    38    44    1
    24    38    37   ar
    25    16    15   ar
    26     5     4   ar
    27     5     1   ar
    28    13     4    1
    29    13    14   ar
    30     4     3   ar
    31     1     6    1
    32     1     2   ar
    33     9     3    1
    34     3     2   ar
    35     2     7    1
    36     7     8    1
    37    44    43    3
    38    30    29   ar
    39    30    35    1
    40    29    31    1
    41    15    14   ar
    42    15    21    1
    43    14    18    1
    44    37    42    1
    45    23    21    1
    46    22    21    1
    47    35    34    3
