@<TRIPOS>MOLECULE
mol_data/noopt/geoms/mol2/12fh12dh(260)6fa(190)6ed(190).out
 44 47 0 0 0
SMALL
GASTEIGER

@<TRIPOS>ATOM
      1 C           0.1763    1.8460    0.0000 C.ar    1  LIG1        0.1359
      2 C           1.5558    1.8460    0.0000 C.ar    1  LIG1        0.1764
      3 C           1.9706    3.2334    0.0000 C.ar    1  LIG1        0.1162
      4 C           0.8165    3.9895   -0.0001 C.ar    1  LIG1        0.1953
      5 O          -0.3030    3.1567   -0.0002 O.2     1  LIG1       -0.4541
      6 H          -0.7504    0.9343    0.0000 H       1  LIG1        0.1068
      7 O           2.3515    0.8179    0.0001 O.3     1  LIG1       -0.5024
      8 H           3.2633    1.1184    0.0001 H       1  LIG1        0.2923
      9 N           3.1998    3.6567   -0.0000 N.pl3   1  LIG1       -0.3521
     10 H           3.7808    2.9932   -0.4714 H       1  LIG1        0.1425
     11 H           3.2491    4.5372   -0.4714 H       1  LIG1        0.1425
     12 C           0.5416    5.2601   -0.0001 C.ar    1  LIG1        0.1917
     13 C           0.1471    6.1809   -0.9485 C.ar    1  LIG1        0.1218
     14 C           0.0134    7.4500   -0.2642 C.ar    1  LIG1        0.0895
     15 C           0.3352    7.2204    1.0577 C.ar    1  LIG1        0.1628
     16 O           0.6643    5.8775    1.2454 O.2     1  LIG1       -0.4482
     17 N          -0.2601    5.7966   -3.3302 N.1     1  LIG1       -0.1907
     18 C          -0.0693    5.9767   -2.2140 C.1     1  LIG1        0.1050
     19 N          -0.3427    8.5732   -0.8134 N.pl3   1  LIG1       -0.3540
     20 H           0.4045    8.9181   -1.3815 H       1  LIG1        0.1425
     21 H          -1.1521    8.4245   -1.3816 H       1  LIG1        0.1425
     22 C           1.6109    8.0622    2.8416 C.ar    1  LIG1        0.2239
     23 C           0.4001    7.9457    2.1347 C.ar    1  LIG1        0.0805
     24 C          -0.7210    8.6242    2.6160 C.ar    1  LIG1       -0.0439
     25 C          -0.5963    9.3893    3.7769 C.ar    1  LIG1       -0.0347
     26 C           0.6572    9.4439    4.4137 C.ar    1  LIG1        0.0775
     27 N           1.7490    8.7958    3.9631 N.ar    1  LIG1       -0.2123
     28 H          -1.6843    8.5562    2.0910 H       1  LIG1        0.0627
     29 O           2.6820    7.4494    2.4328 O.3     1  LIG1       -0.4919
     30 H           3.3954    8.0838    2.3320 H       1  LIG1        0.2938
     31 H          -1.6104   10.0396    4.2654 H       1  LIG1        0.0639
     32 C           2.0367   10.0780    6.2062 C.ar    1  LIG1        0.1223
     33 C           0.8233   10.1428    5.4972 C.ar    1  LIG1        0.0355
     34 C          -0.1898   10.9710    5.9838 C.ar    1  LIG1       -0.0310
     35 C           0.0411   11.7000    7.1517 C.ar    1  LIG1        0.0705
     36 C           1.2880   11.5684    7.7900 C.ar    1  LIG1        0.0464
     37 N           2.2764   10.7742    7.3343 N.ar    1  LIG1       -0.2448
     38 H          -1.1518   11.0467    5.4574 H       1  LIG1        0.0638
     39 H           1.5505   12.2265    8.8799 H       1  LIG1        0.0843
     40 C           3.0096    9.3213    5.7928 C.1     1  LIG1       -0.0491
     41 C           3.9085    8.6222    5.4107 C.1     1  LIG1       -0.1124
     42 H           4.7093    7.9994    5.0704 H       1  LIG1        0.1232
     43 N          -1.6739   13.1771    8.0805 N.1     1  LIG1       -0.1908
     44 C          -0.8702   12.4848    7.6452 C.1     1  LIG1        0.1007
@<TRIPOS>BOND
     1    17    18    3
     2    18    13    1
     3    21    19    1
     4    20    19    1
     5    13    14   ar
     6    13    12   ar
     7    19    14    1
     8    11     9    1
     9    10     9    1
    10    14    15   ar
    11     5     4   ar
    12     5     1   ar
    13     4    12    1
    14     4     3   ar
    15    12    16   ar
    16     1     6    1
    17     1     2   ar
    18     9     3    1
    19     3     2   ar
    20     2     7    1
    21     7     8    1
    22    15    16   ar
    23    15    23    1
    24    28    24    1
    25    23    24   ar
    26    23    22   ar
    27    30    29    1
    28    29    22    1
    29    24    25   ar
    30    22    27   ar
    31    25    31    1
    32    25    26   ar
    33    27    26   ar
    34    26    33    1
    35    42    41    1
    36    41    40    3
    37    38    34    1
    38    33    34   ar
    39    33    32   ar
    40    40    32    1
    41    34    35   ar
    42    32    37   ar
    43    35    44    1
    44    35    36   ar
    45    37    36   ar
    46    44    43    3
    47    36    39    1
