@<TRIPOS>MOLECULE
mol_data/noopt/geoms/mol2/12fh12fe4id-4de.out
 49 52 0 0 0
SMALL
GASTEIGER

@<TRIPOS>ATOM
      1 C           0.1763    1.8460    0.0000 C.ar    1  LIG1        0.1359
      2 C           1.5558    1.8460    0.0000 C.ar    1  LIG1        0.1764
      3 C           1.9706    3.2334    0.0000 C.ar    1  LIG1        0.1163
      4 C           0.8165    3.9895   -0.0001 C.ar    1  LIG1        0.1976
      5 O          -0.3030    3.1567   -0.0002 O.2     1  LIG1       -0.4540
      6 H          -0.7504    0.9343    0.0000 H       1  LIG1        0.1068
      7 O           2.3515    0.8179    0.0001 O.3     1  LIG1       -0.5024
      8 H           3.2633    1.1184    0.0001 H       1  LIG1        0.2923
      9 N           3.1998    3.6567   -0.0000 N.pl3   1  LIG1       -0.3521
     10 H           3.7808    2.9932   -0.4714 H       1  LIG1        0.1425
     11 H           3.2491    4.5372   -0.4714 H       1  LIG1        0.1425
     12 C           0.5416    5.2601   -0.0001 C.ar    1  LIG1        0.2149
     13 C           1.2791    6.4258    0.0147 C.ar    1  LIG1        0.1822
     14 C           0.3286    7.5182    0.0040 C.ar    1  LIG1        0.1125
     15 C          -0.9273    6.9473   -0.0167 C.ar    1  LIG1        0.1551
     16 O          -0.8221    5.5559   -0.0197 O.2     1  LIG1       -0.4466
     17 O           2.5732    6.5484    0.0345 O.3     1  LIG1       -0.5023
     18 H           2.8068    7.4795    0.0394 H       1  LIG1        0.2923
     19 C           0.6281    8.7832    0.0126 C.1     1  LIG1       -0.0622
     20 C           0.9048    9.9521    0.0205 C.1     1  LIG1       -0.1137
     21 H           1.1513   10.9932    0.0276 H       1  LIG1        0.1232
     22 C          -2.3872    8.7837   -0.0205 C.ar    1  LIG1       -0.0391
     23 C          -3.7269    9.2174   -0.0381 C.ar    1  LIG1       -0.0492
     24 C          -2.1478    7.3944   -0.0335 C.ar    1  LIG1        0.0228
     25 C          -4.7832    8.3097   -0.0679 C.ar    1  LIG1        0.0010
     26 H          -3.9341   10.2852   -0.0283 H       1  LIG1        0.0627
     27 C          -3.2019    6.4877   -0.0633 C.ar    1  LIG1       -0.0328
     28 C          -4.5260    6.9382   -0.0808 C.ar    1  LIG1        0.0602
     29 H          -2.9914    5.4213   -0.0727 H       1  LIG1        0.0638
     30 C          -1.4442    9.6786    0.0070 C.3     1  LIG1       -0.0390
     31 H          -1.7946   10.5505    0.5188 H       1  LIG1        0.0278
     32 H          -1.1701    9.9388   -0.9941 H       1  LIG1        0.0278
     33 H          -0.5919    9.2830    0.5188 H       1  LIG1        0.0278
     34 N          -6.3729    5.3344   -0.1330 N.1     1  LIG1       -0.1908
     35 C          -5.5074    6.0860   -0.1085 C.1     1  LIG1        0.0998
     36 C          -6.2606   10.1320   -0.0914 C.ar    1  LIG1        0.0596
     37 C          -7.6045   10.5526   -0.1069 C.ar    1  LIG1       -0.0426
     38 C          -6.0080    8.7449   -0.0837 C.ar    1  LIG1        0.0019
     39 C          -8.6522    9.6346   -0.1150 C.ar    1  LIG1       -0.0451
     40 H          -7.8218   11.6184   -0.1129 H       1  LIG1        0.0631
     41 C          -7.0536    7.8280   -0.0917 C.ar    1  LIG1       -0.0373
     42 C          -8.3820    8.2656   -0.1075 C.ar    1  LIG1        0.0253
     43 H          -6.8330    6.7636   -0.0854 H       1  LIG1        0.0636
     44 H          -9.8813   10.0579   -0.1294 H       1  LIG1        0.0630
     45 N          -4.5021   11.8330   -0.0789 N.1     1  LIG1       -0.1909
     46 C          -5.3262   11.0358   -0.0847 C.1     1  LIG1        0.0998
     47 C          -9.3553    7.4038   -0.1149 C.1     1  LIG1       -0.0696
     48 C         -10.2547    6.6075   -0.1216 C.1     1  LIG1       -0.1139
     49 H         -11.0558    5.8982   -0.1276 H       1  LIG1        0.1232
@<TRIPOS>BOND
     1    32    30    1
     2    11     9    1
     3    10     9    1
     4    34    35    3
     5    44    39    1
     6    49    48    1
     7    48    47    3
     8    39    42   ar
     9    39    37   ar
    10    47    42    1
    11    40    37    1
    12    35    28    1
    13    42    41   ar
    14    37    36   ar
    15    41    43    1
    16    41    38   ar
    17    36    46    1
    18    36    38   ar
    19    46    45    3
    20    38    25    1
    21    28    25   ar
    22    28    27   ar
    23    29    27    1
    24    25    23   ar
    25    27    24   ar
    26    23    26    1
    27    23    22   ar
    28    24    22   ar
    29    24    15    1
    30    22    30    1
    31    16    15   ar
    32    16    12   ar
    33    15    14   ar
    34     5     4   ar
    35     5     1   ar
    36     4    12    1
    37     4     3   ar
    38    12    13   ar
    39     2     3   ar
    40     2     1   ar
    41     2     7    1
    42     3     9    1
    43     6     1    1
    44     7     8    1
    45    14    19    1
    46    14    13   ar
    47    30    33    1
    48    30    31    1
    49    19    20    3
    50    13    17    1
    51    20    21    1
    52    17    18    1
