@<TRIPOS>MOLECULE
mol_data/noopt/geoms/mol2/12fh12he4ha-12he.out
 46 49 0 0 0
SMALL
GASTEIGER

@<TRIPOS>ATOM
      1 C           0.1763    1.8460    0.0000 C.ar    1  LIG1        0.1359
      2 C           1.5558    1.8460    0.0000 C.ar    1  LIG1        0.1764
      3 C           1.9706    3.2334    0.0000 C.ar    1  LIG1        0.1162
      4 C           0.8165    3.9895   -0.0001 C.ar    1  LIG1        0.1958
      5 O          -0.3030    3.1567   -0.0002 O.2     1  LIG1       -0.4541
      6 H          -0.7504    0.9343    0.0000 H       1  LIG1        0.1068
      7 O           2.3515    0.8179    0.0001 O.3     1  LIG1       -0.5024
      8 H           3.2633    1.1184    0.0001 H       1  LIG1        0.2923
      9 N           3.1998    3.6567   -0.0000 N.pl3   1  LIG1       -0.3521
     10 H           3.7808    2.9932   -0.4714 H       1  LIG1        0.1425
     11 H           3.2491    4.5372   -0.4714 H       1  LIG1        0.1425
     12 C           0.5416    5.2601   -0.0001 C.ar    1  LIG1        0.1942
     13 C           1.2791    6.4258    0.0147 C.ar    1  LIG1        0.0904
     14 C           0.3286    7.5182    0.0040 C.ar    1  LIG1        0.0918
     15 C          -0.9273    6.9473   -0.0167 C.ar    1  LIG1        0.1548
     16 O          -0.8221    5.5559   -0.0197 O.2     1  LIG1       -0.4484
     17 N           2.5732    6.5484    0.0345 N.pl3   1  LIG1       -0.3540
     18 H           2.9892    5.7677   -0.4317 H       1  LIG1        0.1425
     19 H           2.8351    7.3933   -0.4318 H       1  LIG1        0.1425
     20 C           0.6281    8.7832    0.0126 C.1     1  LIG1       -0.0640
     21 C           0.9048    9.9521    0.0205 C.1     1  LIG1       -0.1137
     22 H           1.1513   10.9932    0.0276 H       1  LIG1        0.1232
     23 C          -2.3872    8.7837   -0.0205 C.ar    1  LIG1        0.0360
     24 C          -3.7269    9.2174   -0.0381 C.ar    1  LIG1       -0.0296
     25 C          -2.1478    7.3944   -0.0335 C.ar    1  LIG1        0.0392
     26 C          -4.7832    8.3097   -0.0679 C.ar    1  LIG1        0.0209
     27 H          -3.9341   10.2852   -0.0283 H       1  LIG1        0.0643
     28 C          -3.2019    6.4877   -0.0633 C.ar    1  LIG1       -0.0486
     29 C          -4.5260    6.9382   -0.0808 C.ar    1  LIG1       -0.0502
     30 H          -2.9914    5.4213   -0.0727 H       1  LIG1        0.0625
     31 N          -1.4444    9.6784    0.0070 N.pl3   1  LIG1       -0.3574
     32 H          -0.6334    9.3224   -0.4573 H       1  LIG1        0.1423
     33 H          -1.7574   10.5069   -0.4573 H       1  LIG1        0.1423
     34 H          -5.5074    6.0860   -0.1085 H       1  LIG1        0.0625
     35 C          -6.0081    8.7449   -0.0837 C.ar    1  LIG1        0.1566
     36 C          -6.6107    9.9858   -0.0956 C.ar    1  LIG1        0.0865
     37 C          -8.0398    9.7528   -0.1109 C.ar    1  LIG1        0.0836
     38 C          -8.2157    8.3843   -0.1075 C.ar    1  LIG1        0.1098
     39 O          -6.9776    7.7411   -0.0908 O.2     1  LIG1       -0.4598
     40 H          -9.2385    7.5819   -0.1159 H       1  LIG1        0.1043
     41 N          -6.0335   11.1507   -0.0936 N.pl3   1  LIG1       -0.3541
     42 H          -5.1536   11.0875   -0.5645 H       1  LIG1        0.1425
     43 H          -6.6168   11.8124   -0.5645 H       1  LIG1        0.1425
     44 C          -8.9574   10.6735   -0.1251 C.1     1  LIG1       -0.0646
     45 C          -9.8054   11.5242   -0.1382 C.1     1  LIG1       -0.1138
     46 H         -10.5607   12.2820   -0.1498 H       1  LIG1        0.1232
@<TRIPOS>BOND
     1    43    41    1
     2    42    41    1
     3    11     9    1
     4    10     9    1
     5    33    31    1
     6    32    31    1
     7    19    17    1
     8    18    17    1
     9    46    45    1
    10    45    44    3
    11    44    37    1
    12    40    38    1
    13    37    38   ar
    14    37    36   ar
    15    34    29    1
    16    38    39   ar
    17    36    41    1
    18    36    35   ar
    19    39    35   ar
    20    35    26    1
    21    29    26   ar
    22    29    28   ar
    23    30    28    1
    24    26    24   ar
    25    28    25   ar
    26    24    27    1
    27    24    23   ar
    28    25    23   ar
    29    25    15    1
    30    23    31    1
    31    16    15   ar
    32    16    12   ar
    33    15    14   ar
    34     5     4   ar
    35     5     1   ar
    36     4    12    1
    37     4     3   ar
    38    12    13   ar
    39     2     3   ar
    40     2     1   ar
    41     2     7    1
    42     3     9    1
    43     6     1    1
    44     7     8    1
    45    14    20    1
    46    14    13   ar
    47    20    21    3
    48    13    17    1
    49    21    22    1
