@<TRIPOS>MOLECULE
mol_data/noopt/geoms/mol2/12fi12fi12fi.out
 35 37 0 0 0
SMALL
GASTEIGER

@<TRIPOS>ATOM
      1 C           0.1763    1.8460    0.0000 C.ar    1  LIG1        0.1343
      2 C           1.5558    1.8460    0.0000 C.ar    1  LIG1        0.1581
      3 C           1.9706    3.2334    0.0000 C.ar    1  LIG1        0.0399
      4 C           0.8165    3.9895   -0.0001 C.ar    1  LIG1        0.1799
      5 O          -0.3030    3.1567   -0.0002 O.2     1  LIG1       -0.4557
      6 H          -0.7504    0.9343    0.0000 H       1  LIG1        0.1068
      7 O           2.3515    0.8179    0.0001 O.3     1  LIG1       -0.5034
      8 H           3.2633    1.1184    0.0001 H       1  LIG1        0.2923
      9 C           3.2001    3.6568    0.0000 C.3     1  LIG1       -0.0325
     10 H           3.2528    4.5990    0.5044 H       1  LIG1        0.0280
     11 H           3.5373    3.7730   -1.0088 H       1  LIG1        0.0280
     12 H           3.8217    2.9468    0.5044 H       1  LIG1        0.0280
     13 C           0.5416    5.2601   -0.0001 C.ar    1  LIG1        0.2124
     14 C           1.2792    6.4258   -0.0001 C.ar    1  LIG1        0.1694
     15 C           0.3286    7.5182   -0.0001 C.ar    1  LIG1        0.0407
     16 C          -0.9274    6.9472   -0.0002 C.ar    1  LIG1        0.1809
     17 O          -0.8223    5.5559   -0.0003 O.2     1  LIG1       -0.4444
     18 O           2.5735    6.5485   -0.0000 O.3     1  LIG1       -0.5029
     19 H           2.8071    7.4796    0.0000 H       1  LIG1        0.2923
     20 C           0.6283    8.7835   -0.0001 C.3     1  LIG1       -0.0325
     21 H          -0.1397    9.3319    0.5043 H       1  LIG1        0.0280
     22 H           0.7104    9.1306   -1.0089 H       1  LIG1        0.0280
     23 H           1.5606    8.9292    0.5043 H       1  LIG1        0.0280
     24 C          -2.1481    7.3943   -0.0002 C.ar    1  LIG1        0.2114
     25 C          -2.7387    8.6410   -0.0002 C.ar    1  LIG1        0.1687
     26 C          -4.1701    8.4218   -0.0002 C.ar    1  LIG1        0.0295
     27 C          -4.3593    7.0551   -0.0003 C.ar    1  LIG1        0.0993
     28 O          -3.1273    6.4000   -0.0004 O.2     1  LIG1       -0.4557
     29 H          -5.3898    6.2627   -0.0003 H       1  LIG1        0.1033
     30 O          -2.1503    9.8003   -0.0001 O.3     1  LIG1       -0.5030
     31 H          -2.8123   10.4956   -0.0001 H       1  LIG1        0.2923
     32 C          -5.0792    9.3516   -0.0002 C.3     1  LIG1       -0.0332
     33 H          -5.9532    8.9959    0.5042 H       1  LIG1        0.0280
     34 H          -5.3286    9.6066   -1.0090 H       1  LIG1        0.0280
     35 H          -4.7037   10.2174    0.5042 H       1  LIG1        0.0280
@<TRIPOS>BOND
     1    34    32    1
     2    22    20    1
     3    11     9    1
     4    28    27   ar
     5    28    24   ar
     6    29    27    1
     7    27    26   ar
     8    17    16   ar
     9    17    13   ar
    10     5     4   ar
    11     5     1   ar
    12    32    26    1
    13    32    35    1
    14    32    33    1
    15    24    25   ar
    16    24    16    1
    17    26    25   ar
    18    25    30    1
    19    16    15   ar
    20    13    14   ar
    21    13     4    1
    22    20    15    1
    23    20    23    1
    24    20    21    1
    25    15    14   ar
    26    14    18    1
    27     4     3   ar
    28    30    31    1
    29     1     6    1
    30     1     2   ar
    31    18    19    1
    32     9     3    1
    33     9    12    1
    34     9    10    1
    35     3     2   ar
    36     2     7    1
    37     7     8    1
