@<TRIPOS>MOLECULE
mol_data/noopt/geoms/mol2/12fi13ed(30)4ea(330)6hl(190).out
 51 54 0 0 0
SMALL
GASTEIGER

@<TRIPOS>ATOM
      1 C           0.1763    1.8460    0.0000 C.ar    1  LIG1        0.1342
      2 C           1.5558    1.8460    0.0000 C.ar    1  LIG1        0.1580
      3 C           1.9706    3.2334    0.0000 C.ar    1  LIG1        0.0382
      4 C           0.8165    3.9895   -0.0001 C.ar    1  LIG1        0.1586
      5 O          -0.3030    3.1567   -0.0002 O.2     1  LIG1       -0.4574
      6 H          -0.7504    0.9343    0.0000 H       1  LIG1        0.1068
      7 O           2.3515    0.8179    0.0001 O.3     1  LIG1       -0.5034
      8 H           3.2633    1.1184    0.0001 H       1  LIG1        0.2923
      9 C           3.2001    3.6568    0.0000 C.3     1  LIG1       -0.0326
     10 H           3.2528    4.5990    0.5044 H       1  LIG1        0.0280
     11 H           3.5373    3.7730   -1.0088 H       1  LIG1        0.0280
     12 H           3.8217    2.9468    0.5044 H       1  LIG1        0.0280
     13 C           0.5416    5.2601   -0.0001 C.ar    1  LIG1        0.0997
     14 C           1.2482    6.3153    0.4848 C.ar    1  LIG1        0.0709
     15 C           0.4846    7.4981    0.2227 C.ar    1  LIG1        0.0930
     16 C          -0.6543    7.1137   -0.4124 C.ar    1  LIG1        0.0670
     17 N          -0.6236    5.7443   -0.5504 N.ar    1  LIG1       -0.3497
     18 H          -1.3304    5.1929   -0.9799 H       1  LIG1        0.1661
     19 C           2.4035    6.2573    1.0781 C.1     1  LIG1       -0.0661
     20 C           3.4709    6.2038    1.6263 C.1     1  LIG1       -0.1138
     21 H           4.4218    6.1560    2.1147 H       1  LIG1        0.1232
     22 N           1.1084    9.7906    0.8065 N.1     1  LIG1       -0.1908
     23 C           0.8161    8.7162    0.5329 C.1     1  LIG1        0.1025
     24 C          -1.4155    8.9465   -1.6636 C.ar    1  LIG1        0.0344
     25 C          -2.5321    9.6779   -2.1126 C.ar    1  LIG1       -0.0379
     26 C          -1.6541    7.8188   -0.8516 C.ar    1  LIG1        0.0150
     27 C          -3.8297    9.3046   -1.7701 C.ar    1  LIG1       -0.0133
     28 H          -2.3705   10.5516   -2.7401 H       1  LIG1        0.0636
     29 C          -2.9494    7.4457   -0.5094 C.ar    1  LIG1       -0.0508
     30 C          -4.0457    8.1850   -0.9657 C.ar    1  LIG1       -0.0532
     31 H          -3.1074    6.5722    0.1181 H       1  LIG1        0.0625
     32 C          -0.2291    9.3437   -2.0166 C.1     1  LIG1       -0.0690
     33 C           0.8671    9.7107   -2.3428 C.1     1  LIG1       -0.1139
     34 H           1.8437   10.0377   -2.6334 H       1  LIG1        0.1232
     35 H          -5.2542    7.8316   -0.6424 H       1  LIG1        0.0624
     36 C          -4.7656   11.4073   -2.2403 C.ar    1  LIG1        0.1241
     37 C          -4.8376   10.0028   -2.2024 C.ar    1  LIG1        0.0251
     38 C          -6.0104    9.3833   -2.6379 C.ar    1  LIG1       -0.0075
     39 C          -7.0624   10.1802   -3.0925 C.ar    1  LIG1        0.1388
     40 C          -6.8953   11.5772   -3.0922 C.ar    1  LIG1        0.0713
     41 N          -5.7707   12.1915   -2.6757 N.ar    1  LIG1       -0.2365
     42 H          -6.1038    8.2881   -2.6220 H       1  LIG1        0.0662
     43 H          -7.8460   12.3613   -3.5061 H       1  LIG1        0.0868
     44 N          -3.6948   12.0299   -1.8455 N.pl3   1  LIG1       -0.3427
     45 H          -2.8861   11.5555   -2.1934 H       1  LIG1        0.1437
     46 H          -3.7068   12.9673   -2.1934 H       1  LIG1        0.1437
     47 O          -8.1750    9.6516   -3.5082 O.3     1  LIG1       -0.4936
     48 C          -9.1619   10.6751   -3.6610 C.3     1  LIG1        0.0789
     49 H         -10.0774   10.2396   -4.0033 H       1  LIG1        0.0660
     50 H          -9.3260   11.1558   -2.7191 H       1  LIG1        0.0660
     51 H          -8.8210   11.3958   -4.3746 H       1  LIG1        0.0660
@<TRIPOS>BOND
     1    51    48    1
     2    49    48    1
     3    48    47    1
     4    48    50    1
     5    47    39    1
     6    43    40    1
     7    39    40   ar
     8    39    38   ar
     9    40    41   ar
    10    28    25    1
    11    41    36   ar
    12    38    42    1
    13    38    37   ar
    14    34    33    1
    15    33    32    3
    16    36    37   ar
    17    36    44    1
    18    37    27    1
    19    46    44    1
    20    45    44    1
    21    25    27   ar
    22    25    24   ar
    23    32    24    1
    24    27    30   ar
    25    24    26   ar
    26    11     9    1
    27    18    17    1
    28    30    35    1
    29    30    29   ar
    30    26    29   ar
    31    26    16    1
    32    17    16   ar
    33    17    13   ar
    34    29    31    1
    35    16    15   ar
    36     5     4   ar
    37     5     1   ar
    38     4    13    1
    39     4     3   ar
    40    13    14   ar
    41     1     2   ar
    42     1     6    1
    43     2     3   ar
    44     2     7    1
    45     3     9    1
    46     9    12    1
    47     9    10    1
    48     7     8    1
    49    15    14   ar
    50    15    23    1
    51    14    19    1
    52    23    22    3
    53    19    20    3
    54    20    21    1
