@<TRIPOS>MOLECULE
mol_data/noopt/geoms/mol2/12fi12fi.out
 24 25 0 0 0
SMALL
GASTEIGER

@<TRIPOS>ATOM
      1 C           0.1763    1.8460    0.0000 C.ar    1  LIG1        0.1343
      2 C           1.5558    1.8460    0.0000 C.ar    1  LIG1        0.1581
      3 C           1.9706    3.2334    0.0000 C.ar    1  LIG1        0.0399
      4 C           0.8165    3.9895   -0.0001 C.ar    1  LIG1        0.1798
      5 O          -0.3030    3.1567   -0.0002 O.2     1  LIG1       -0.4557
      6 H          -0.7504    0.9343    0.0000 H       1  LIG1        0.1068
      7 O           2.3515    0.8179    0.0001 O.3     1  LIG1       -0.5034
      8 H           3.2633    1.1184    0.0001 H       1  LIG1        0.2923
      9 C           3.2001    3.6568    0.0000 C.3     1  LIG1       -0.0325
     10 H           3.2528    4.5990    0.5044 H       1  LIG1        0.0280
     11 H           3.5373    3.7730   -1.0088 H       1  LIG1        0.0280
     12 H           3.8217    2.9468    0.5044 H       1  LIG1        0.0280
     13 C           0.5416    5.2601   -0.0001 C.ar    1  LIG1        0.2114
     14 C           1.2792    6.4258   -0.0001 C.ar    1  LIG1        0.1687
     15 C           0.3286    7.5182   -0.0001 C.ar    1  LIG1        0.0295
     16 C          -0.9274    6.9472   -0.0002 C.ar    1  LIG1        0.0993
     17 O          -0.8223    5.5559   -0.0003 O.2     1  LIG1       -0.4557
     18 H          -2.1481    7.3943   -0.0002 H       1  LIG1        0.1033
     19 O           2.5735    6.5485   -0.0000 O.3     1  LIG1       -0.5030
     20 H           2.8071    7.4796    0.0000 H       1  LIG1        0.2923
     21 C           0.6283    8.7835   -0.0001 C.3     1  LIG1       -0.0332
     22 H          -0.1397    9.3319    0.5043 H       1  LIG1        0.0280
     23 H           0.7104    9.1306   -1.0089 H       1  LIG1        0.0280
     24 H           1.5606    8.9292    0.5043 H       1  LIG1        0.0280
@<TRIPOS>BOND
     1    23    21    1
     2    11     9    1
     3    17    16   ar
     4    17    13   ar
     5     5     4   ar
     6     5     1   ar
     7    18    16    1
     8    16    15   ar
     9    21    15    1
    10    21    24    1
    11    21    22    1
    12     4    13    1
    13     4     3   ar
    14    15    14   ar
    15    14    13   ar
    16    14    19    1
    17     1     6    1
    18     1     2   ar
    19    19    20    1
    20     9     3    1
    21     9    12    1
    22     9    10    1
    23     3     2   ar
    24     2     7    1
    25     7     8    1
