@<TRIPOS>MOLECULE
mol_data/noopt/geoms/mol2/12fi12fi12fi-12fi.out
 46 49 0 0 0
SMALL
GASTEIGER

@<TRIPOS>ATOM
      1 C           0.1763    1.8460    0.0000 C.ar    1  LIG1        0.1343
      2 C           1.5558    1.8460    0.0000 C.ar    1  LIG1        0.1581
      3 C           1.9706    3.2334    0.0000 C.ar    1  LIG1        0.0399
      4 C           0.8165    3.9895   -0.0001 C.ar    1  LIG1        0.1799
      5 O          -0.3030    3.1567   -0.0002 O.2     1  LIG1       -0.4557
      6 H          -0.7504    0.9343    0.0000 H       1  LIG1        0.1068
      7 O           2.3515    0.8179    0.0001 O.3     1  LIG1       -0.5034
      8 H           3.2633    1.1184    0.0001 H       1  LIG1        0.2923
      9 C           3.2001    3.6568    0.0000 C.3     1  LIG1       -0.0325
     10 H           3.2528    4.5990    0.5044 H       1  LIG1        0.0280
     11 H           3.5373    3.7730   -1.0088 H       1  LIG1        0.0280
     12 H           3.8217    2.9468    0.5044 H       1  LIG1        0.0280
     13 C           0.5416    5.2601   -0.0001 C.ar    1  LIG1        0.2124
     14 C           1.2792    6.4258   -0.0001 C.ar    1  LIG1        0.1694
     15 C           0.3286    7.5182   -0.0001 C.ar    1  LIG1        0.0407
     16 C          -0.9274    6.9472   -0.0002 C.ar    1  LIG1        0.1809
     17 O          -0.8223    5.5559   -0.0003 O.2     1  LIG1       -0.4444
     18 O           2.5735    6.5485   -0.0000 O.3     1  LIG1       -0.5029
     19 H           2.8071    7.4796    0.0000 H       1  LIG1        0.2923
     20 C           0.6283    8.7835   -0.0001 C.3     1  LIG1       -0.0325
     21 H          -0.1397    9.3319    0.5043 H       1  LIG1        0.0280
     22 H           0.7104    9.1306   -1.0089 H       1  LIG1        0.0280
     23 H           1.5606    8.9292    0.5043 H       1  LIG1        0.0280
     24 C          -2.1481    7.3943   -0.0002 C.ar    1  LIG1        0.2125
     25 C          -3.4042    6.8241   -0.0002 C.ar    1  LIG1        0.1694
     26 C          -4.3554    7.9160   -0.0002 C.ar    1  LIG1        0.0407
     27 C          -3.6171    9.0815   -0.0003 C.ar    1  LIG1        0.1809
     28 O          -2.2534    8.7859   -0.0004 O.2     1  LIG1       -0.4444
     29 O          -3.7038    5.5591   -0.0001 O.3     1  LIG1       -0.5029
     30 H          -2.8970    5.0387   -0.0001 H       1  LIG1        0.2923
     31 C          -5.6499    7.7933   -0.0002 C.3     1  LIG1       -0.0325
     32 H          -5.9226    6.8899    0.5042 H       1  LIG1        0.0280
     33 H          -6.0050    7.7596   -1.0091 H       1  LIG1        0.0280
     34 H          -6.0874    8.6294    0.5041 H       1  LIG1        0.0280
     35 C          -3.8920   10.3521   -0.0003 C.ar    1  LIG1        0.2114
     36 C          -3.1543   11.5178   -0.0002 C.ar    1  LIG1        0.1687
     37 C          -4.1049   12.6102   -0.0002 C.ar    1  LIG1        0.0295
     38 C          -5.3610   12.0393   -0.0003 C.ar    1  LIG1        0.0993
     39 O          -5.2558   10.6479   -0.0004 O.2     1  LIG1       -0.4557
     40 H          -6.5817   12.4864   -0.0003 H       1  LIG1        0.1033
     41 O          -1.8601   11.6405   -0.0001 O.3     1  LIG1       -0.5030
     42 H          -1.6265   12.5716   -0.0001 H       1  LIG1        0.2923
     43 C          -3.8053   13.8755   -0.0002 C.3     1  LIG1       -0.0332
     44 H          -4.5732   14.4239    0.5042 H       1  LIG1        0.0280
     45 H          -3.7232   14.2227   -1.0090 H       1  LIG1        0.0280
     46 H          -2.8729   14.0212    0.5042 H       1  LIG1        0.0280
@<TRIPOS>BOND
     1    33    31    1
     2    45    43    1
     3    22    20    1
     4    11     9    1
     5    39    38   ar
     6    39    35   ar
     7    28    27   ar
     8    28    24   ar
     9    38    40    1
    10    38    37   ar
    11    17    16   ar
    12    17    13   ar
    13    27    35    1
    14    27    26   ar
    15    35    36   ar
    16    36    37   ar
    17    36    41    1
    18    25    26   ar
    19    25    24   ar
    20    25    29    1
    21    31    26    1
    22    31    34    1
    23    31    32    1
    24    37    43    1
    25    16    24    1
    26    16    15   ar
    27     5     4   ar
    28     5     1   ar
    29    43    46    1
    30    43    44    1
    31    29    30    1
    32    41    42    1
    33    20    15    1
    34    20    23    1
    35    20    21    1
    36    15    14   ar
    37    14    13   ar
    38    14    18    1
    39    13     4    1
    40     4     3   ar
    41     1     6    1
    42     1     2   ar
    43    18    19    1
    44     9     3    1
    45     9    12    1
    46     9    10    1
    47     3     2   ar
    48     2     7    1
    49     7     8    1
