@<TRIPOS>MOLECULE
mol_data/noopt/geoms/mol2/12fi12fi-12fi-12fi-.out
 46 49 0 0 0
SMALL
GASTEIGER

@<TRIPOS>ATOM
      1 C           0.1763    1.8460    0.0000 C.ar    1  LIG1        0.1343
      2 C           1.5558    1.8460    0.0000 C.ar    1  LIG1        0.1581
      3 C           1.9706    3.2334    0.0000 C.ar    1  LIG1        0.0399
      4 C           0.8165    3.9895   -0.0001 C.ar    1  LIG1        0.1799
      5 O          -0.3030    3.1567   -0.0002 O.2     1  LIG1       -0.4557
      6 H          -0.7504    0.9343    0.0000 H       1  LIG1        0.1068
      7 O           2.3515    0.8179    0.0001 O.3     1  LIG1       -0.5034
      8 H           3.2633    1.1184    0.0001 H       1  LIG1        0.2923
      9 C           3.2001    3.6568    0.0000 C.3     1  LIG1       -0.0325
     10 H           3.2528    4.5990    0.5044 H       1  LIG1        0.0280
     11 H           3.5373    3.7730   -1.0088 H       1  LIG1        0.0280
     12 H           3.8217    2.9468    0.5044 H       1  LIG1        0.0280
     13 C           0.5416    5.2601   -0.0001 C.ar    1  LIG1        0.2124
     14 C          -0.6119    6.0167   -0.0001 C.ar    1  LIG1        0.1694
     15 C          -0.1979    7.4043   -0.0001 C.ar    1  LIG1        0.0407
     16 C           1.1818    7.4036   -0.0002 C.ar    1  LIG1        0.1809
     17 O           1.6612    6.0932   -0.0003 O.2     1  LIG1       -0.4444
     18 O          -1.8411    5.5933   -0.0000 O.3     1  LIG1       -0.5029
     19 H          -1.8494    4.6334   -0.0000 H       1  LIG1        0.2923
     20 C          -0.9938    8.4326   -0.0001 C.3     1  LIG1       -0.0325
     21 H          -1.9030    8.1799    0.5043 H       1  LIG1        0.0280
     22 H          -1.2121    8.7146   -1.0090 H       1  LIG1        0.0280
     23 H          -0.5211    9.2494    0.5042 H       1  LIG1        0.0280
     24 C           2.1085    8.3153   -0.0002 C.ar    1  LIG1        0.2125
     25 C           2.1310    9.6946   -0.0002 C.ar    1  LIG1        0.1694
     26 C           3.5250   10.0867   -0.0001 C.ar    1  LIG1        0.0407
     27 C           4.2622    8.9204   -0.0002 C.ar    1  LIG1        0.1809
     28 O           3.4112    7.8147   -0.0003 O.2     1  LIG1       -0.4444
     29 O           1.1161   10.5070   -0.0001 O.3     1  LIG1       -0.5029
     30 H           0.3004   10.0007   -0.0001 H       1  LIG1        0.2923
     31 C           3.9684   11.3091   -0.0001 C.3     1  LIG1       -0.0325
     32 H           3.2688   11.9423    0.5043 H       1  LIG1        0.0280
     33 H           4.0900   11.6444   -1.0090 H       1  LIG1        0.0280
     34 H           4.9114   11.3464    0.5043 H       1  LIG1        0.0280
     35 C           5.5281    8.6248   -0.0002 C.ar    1  LIG1        0.2114
     36 C           6.7057    9.3433   -0.0002 C.ar    1  LIG1        0.1687
     37 C           7.7825    8.3750   -0.0001 C.ar    1  LIG1        0.0295
     38 C           7.1911    7.1285   -0.0002 C.ar    1  LIG1        0.0993
     39 O           5.8017    7.2563   -0.0003 O.2     1  LIG1       -0.4557
     40 H           7.6182    5.9007   -0.0001 H       1  LIG1        0.1033
     41 O           6.8495   10.6354   -0.0001 O.3     1  LIG1       -0.5030
     42 H           5.9855   11.0539   -0.0001 H       1  LIG1        0.2923
     43 C           9.0525    8.6540   -0.0001 C.3     1  LIG1       -0.0332
     44 H           9.2135    9.5838    0.5044 H       1  LIG1        0.0280
     45 H           9.4009    8.7306   -1.0089 H       1  LIG1        0.0280
     46 H           9.5882    7.8771    0.5043 H       1  LIG1        0.0280
@<TRIPOS>BOND
     1    22    20    1
     2    33    31    1
     3    45    43    1
     4    11     9    1
     5    28    27   ar
     6    28    24   ar
     7    39    38   ar
     8    39    35   ar
     9    17    16   ar
    10    17    13   ar
    11     5     4   ar
    12     5     1   ar
    13    27    35    1
    14    27    26   ar
    15    38    40    1
    16    38    37   ar
    17    16    24    1
    18    16    15   ar
    19    35    36   ar
    20    25    24   ar
    21    25    26   ar
    22    25    29    1
    23    36    37   ar
    24    36    41    1
    25    14    15   ar
    26    14    13   ar
    27    14    18    1
    28    26    31    1
    29    20    15    1
    30    20    23    1
    31    20    21    1
    32    31    34    1
    33    31    32    1
    34    37    43    1
    35    13     4    1
    36     4     3   ar
    37    29    30    1
    38    41    42    1
    39    43    46    1
    40    43    44    1
    41    18    19    1
    42     1     6    1
    43     1     2   ar
    44     9     3    1
    45     9    12    1
    46     9    10    1
    47     3     2   ar
    48     2     7    1
    49     7     8    1
