@<TRIPOS>MOLECULE
mol_data/noopt/geoms/mol2/12fi13ll(240)12hd(340)13il(160).out
 54 57 0 0 0
SMALL
GASTEIGER

@<TRIPOS>ATOM
      1 C           0.1763    1.8460    0.0000 C.ar    1  LIG1        0.1342
      2 C           1.5558    1.8460    0.0000 C.ar    1  LIG1        0.1580
      3 C           1.9706    3.2334    0.0000 C.ar    1  LIG1        0.0383
      4 C           0.8165    3.9895   -0.0001 C.ar    1  LIG1        0.1611
      5 O          -0.3030    3.1567   -0.0002 O.2     1  LIG1       -0.4573
      6 H          -0.7504    0.9343    0.0000 H       1  LIG1        0.1068
      7 O           2.3515    0.8179    0.0001 O.3     1  LIG1       -0.5034
      8 H           3.2633    1.1184    0.0001 H       1  LIG1        0.2923
      9 C           3.2001    3.6568    0.0000 C.3     1  LIG1       -0.0326
     10 H           3.2528    4.5990    0.5044 H       1  LIG1        0.0280
     11 H           3.5373    3.7730   -1.0088 H       1  LIG1        0.0280
     12 H           3.8217    2.9468    0.5044 H       1  LIG1        0.0280
     13 C           0.5416    5.2601   -0.0001 C.ar    1  LIG1        0.1289
     14 C          -0.1828    6.0057   -0.8760 C.ar    1  LIG1        0.1907
     15 C          -0.1686    7.3567   -0.4014 C.ar    1  LIG1        0.1907
     16 C           0.5623    7.3769    0.7446 C.ar    1  LIG1        0.1304
     17 N           0.9994    6.0955    0.9937 N.ar    1  LIG1       -0.3434
     18 H           1.5566    5.8175    1.7685 H       1  LIG1        0.1663
     19 O          -0.7763    5.5694   -1.9472 O.3     1  LIG1       -0.4894
     20 C          -1.7926    6.4953   -2.3405 C.3     1  LIG1        0.0791
     21 H          -2.2808    6.1358   -3.2222 H       1  LIG1        0.0660
     22 H          -2.5089    6.5950   -1.5518 H       1  LIG1        0.0660
     23 H          -1.3488    7.4478   -2.5417 H       1  LIG1        0.0660
     24 O          -0.7472    8.3780   -0.9603 O.3     1  LIG1       -0.4894
     25 C           0.2133    9.4174   -1.1655 C.3     1  LIG1        0.0791
     26 H          -0.2633   10.2577   -1.6256 H       1  LIG1        0.0660
     27 H           0.6257    9.7130   -0.2234 H       1  LIG1        0.0660
     28 H           0.9961    9.0593   -1.8009 H       1  LIG1        0.0660
     29 C           0.8595    8.3627    1.5383 C.ar    1  LIG1        0.1774
     30 C           2.0186    9.0141    1.9059 C.ar    1  LIG1        0.0909
     31 C           1.6345   10.0442    2.8484 C.ar    1  LIG1        0.1201
     32 C           0.2654    9.9539    2.9942 C.ar    1  LIG1        0.1713
     33 O          -0.2354    8.9246    2.1964 O.2     1  LIG1       -0.4485
     34 N           3.2301    8.7716    1.5015 N.pl3   1  LIG1       -0.3540
     35 H           3.2367    7.9376    0.9498 H       1  LIG1        0.1425
     36 H           3.5572    9.5388    0.9498 H       1  LIG1        0.1425
     37 N           3.1575   11.6155    3.9426 N.1     1  LIG1       -0.1907
     38 C           2.4437   10.8791    3.4298 C.1     1  LIG1        0.1049
     39 C          -0.6366   10.5880    3.6829 C.ar    1  LIG1        0.0900
     40 C          -1.6700   10.1157    4.4291 C.ar    1  LIG1        0.0195
     41 C          -2.3561   11.2480    4.9748 C.ar    1  LIG1        0.1409
     42 C          -1.7107   12.3625    4.5394 C.ar    1  LIG1        0.0447
     43 N          -0.6576   11.9630    3.7478 N.ar    1  LIG1       -0.3549
     44 H          -0.0141   12.5708    3.2955 H       1  LIG1        0.1655
     45 H          -1.9537   13.6197    4.7635 H       1  LIG1        0.0844
     46 C          -1.9769    8.8652    4.6104 C.3     1  LIG1       -0.0341
     47 H          -1.1959    8.3822    5.1596 H       1  LIG1        0.0279
     48 H          -2.0945    8.3856    3.6611 H       1  LIG1        0.0279
     49 H          -2.8928    8.7987    5.1595 H       1  LIG1        0.0279
     50 O          -3.4030   11.2196    5.7451 O.3     1  LIG1       -0.4933
     51 C          -3.8239   12.5566    6.0278 C.3     1  LIG1        0.0789
     52 H          -4.6857   12.5328    6.6617 H       1  LIG1        0.0660
     53 H          -3.0332   13.0829    6.5206 H       1  LIG1        0.0660
     54 H          -4.0679   13.0548    5.1129 H       1  LIG1        0.0660
@<TRIPOS>BOND
     1    21    20    1
     2    23    20    1
     3    20    19    1
     4    20    22    1
     5    19    14    1
     6    28    25    1
     7    26    25    1
     8    25    24    1
     9    25    27    1
    10    11     9    1
    11    24    15    1
    12    14    15   ar
    13    14    13   ar
    14    15    16   ar
    15     5     4   ar
    16     5     1   ar
    17     4    13    1
    18     4     3   ar
    19    13    17   ar
    20     1     6    1
    21     1     2   ar
    22     9     3    1
    23     9    12    1
    24     9    10    1
    25     3     2   ar
    26     2     7    1
    27     7     8    1
    28    16    17   ar
    29    16    29    1
    30    36    34    1
    31    35    34    1
    32    17    18    1
    33    34    30    1
    34    29    30   ar
    35    29    33   ar
    36    30    31   ar
    37    33    32   ar
    38    31    32   ar
    39    31    38    1
    40    32    39    1
    41    44    43    1
    42    38    37    3
    43    48    46    1
    44    39    43   ar
    45    39    40   ar
    46    43    42   ar
    47    40    46    1
    48    40    41   ar
    49    42    45    1
    50    42    41   ar
    51    46    49    1
    52    46    47    1
    53    41    50    1
    54    54    51    1
    55    50    51    1
    56    51    53    1
    57    51    52    1
