@<TRIPOS>MOLECULE
mol_data/noopt/geoms/mol2/12fi12fi-12fi.out
 35 37 0 0 0
SMALL
GASTEIGER

@<TRIPOS>ATOM
      1 C           0.1763    1.8460    0.0000 C.ar    1  LIG1        0.1343
      2 C           1.5558    1.8460    0.0000 C.ar    1  LIG1        0.1581
      3 C           1.9706    3.2334    0.0000 C.ar    1  LIG1        0.0399
      4 C           0.8165    3.9895   -0.0001 C.ar    1  LIG1        0.1799
      5 O          -0.3030    3.1567   -0.0002 O.2     1  LIG1       -0.4557
      6 H          -0.7504    0.9343    0.0000 H       1  LIG1        0.1068
      7 O           2.3515    0.8179    0.0001 O.3     1  LIG1       -0.5034
      8 H           3.2633    1.1184    0.0001 H       1  LIG1        0.2923
      9 C           3.2001    3.6568    0.0000 C.3     1  LIG1       -0.0325
     10 H           3.2528    4.5990    0.5044 H       1  LIG1        0.0280
     11 H           3.5373    3.7730   -1.0088 H       1  LIG1        0.0280
     12 H           3.8217    2.9468    0.5044 H       1  LIG1        0.0280
     13 C           0.5416    5.2601   -0.0001 C.ar    1  LIG1        0.2124
     14 C          -0.6119    6.0167   -0.0001 C.ar    1  LIG1        0.1694
     15 C          -0.1979    7.4043   -0.0001 C.ar    1  LIG1        0.0407
     16 C           1.1818    7.4036   -0.0002 C.ar    1  LIG1        0.1809
     17 O           1.6612    6.0932   -0.0003 O.2     1  LIG1       -0.4444
     18 O          -1.8411    5.5933   -0.0000 O.3     1  LIG1       -0.5029
     19 H          -1.8494    4.6334   -0.0000 H       1  LIG1        0.2923
     20 C          -0.9938    8.4326   -0.0001 C.3     1  LIG1       -0.0325
     21 H          -1.9030    8.1799    0.5043 H       1  LIG1        0.0280
     22 H          -1.2121    8.7146   -1.0090 H       1  LIG1        0.0280
     23 H          -0.5211    9.2494    0.5042 H       1  LIG1        0.0280
     24 C           2.1085    8.3153   -0.0002 C.ar    1  LIG1        0.2114
     25 C           3.4880    8.3153   -0.0001 C.ar    1  LIG1        0.1687
     26 C           3.9028    9.7027   -0.0001 C.ar    1  LIG1        0.0295
     27 C           2.7487   10.4588   -0.0002 C.ar    1  LIG1        0.0993
     28 O           1.6292    9.6260   -0.0003 O.2     1  LIG1       -0.4557
     29 H           2.4738   11.7294   -0.0002 H       1  LIG1        0.1033
     30 O           4.2837    7.2872   -0.0000 O.3     1  LIG1       -0.5030
     31 H           5.1955    7.5877   -0.0000 H       1  LIG1        0.2923
     32 C           5.1323   10.1261   -0.0001 C.3     1  LIG1       -0.0332
     33 H           5.1851   11.0682    0.5043 H       1  LIG1        0.0280
     34 H           5.4695   10.2423   -1.0089 H       1  LIG1        0.0280
     35 H           5.7540    9.4161    0.5043 H       1  LIG1        0.0280
@<TRIPOS>BOND
     1    22    20    1
     2    34    32    1
     3    11     9    1
     4    28    27   ar
     5    28    24   ar
     6    17    16   ar
     7    17    13   ar
     8    27    29    1
     9    27    26   ar
    10     5     4   ar
    11     5     1   ar
    12    16    24    1
    13    16    15   ar
    14    24    25   ar
    15    25    26   ar
    16    25    30    1
    17    14    15   ar
    18    14    13   ar
    19    14    18    1
    20    20    15    1
    21    20    23    1
    22    20    21    1
    23    26    32    1
    24    13     4    1
    25     4     3   ar
    26    32    35    1
    27    32    33    1
    28    18    19    1
    29    30    31    1
    30     1     6    1
    31     1     2   ar
    32     9     3    1
    33     9    12    1
    34     9    10    1
    35     3     2   ar
    36     2     7    1
    37     7     8    1
