@<TRIPOS>MOLECULE
mol_data/noopt/geoms/mol2/12fi12ii-12ae-12ai-.out
 45 48 0 0 0
SMALL
GASTEIGER

@<TRIPOS>ATOM
      1 C           0.1763    1.8460    0.0000 C.ar    1  LIG1        0.1343
      2 C           1.5558    1.8460    0.0000 C.ar    1  LIG1        0.1581
      3 C           1.9706    3.2334    0.0000 C.ar    1  LIG1        0.0398
      4 C           0.8165    3.9895   -0.0001 C.ar    1  LIG1        0.1765
      5 O          -0.3030    3.1567   -0.0002 O.2     1  LIG1       -0.4558
      6 H          -0.7504    0.9343    0.0000 H       1  LIG1        0.1068
      7 O           2.3515    0.8179    0.0001 O.3     1  LIG1       -0.5034
      8 H           3.2633    1.1184    0.0001 H       1  LIG1        0.2923
      9 C           3.2001    3.6568    0.0000 C.3     1  LIG1       -0.0325
     10 H           3.2528    4.5990    0.5044 H       1  LIG1        0.0280
     11 H           3.5373    3.7730   -1.0088 H       1  LIG1        0.0280
     12 H           3.8217    2.9468    0.5044 H       1  LIG1        0.0280
     13 C           0.5416    5.2601   -0.0001 C.ar    1  LIG1        0.1742
     14 C           1.2792    6.4258   -0.0001 C.ar    1  LIG1        0.0020
     15 C           0.3286    7.5182   -0.0001 C.ar    1  LIG1        0.0020
     16 C          -0.9274    6.9472   -0.0002 C.ar    1  LIG1        0.1739
     17 O          -0.8223    5.5559   -0.0003 O.2     1  LIG1       -0.4481
     18 C           2.5738    6.5485    0.0000 C.3     1  LIG1       -0.0357
     19 H           2.8464    7.4519    0.5045 H       1  LIG1        0.0279
     20 H           2.9289    6.5822   -1.0088 H       1  LIG1        0.0279
     21 H           3.0112    5.7123    0.5044 H       1  LIG1        0.0279
     22 C           0.6283    8.7835   -0.0001 C.3     1  LIG1       -0.0357
     23 H          -0.1397    9.3319    0.5043 H       1  LIG1        0.0279
     24 H           0.7104    9.1306   -1.0089 H       1  LIG1        0.0279
     25 H           1.5606    8.9292    0.5043 H       1  LIG1        0.0279
     26 C          -2.1481    7.3943   -0.0002 C.ar    1  LIG1        0.1722
     27 C          -2.7388    8.6409    0.0146 C.ar    1  LIG1        0.0034
     28 C          -4.1701    8.4218    0.0039 C.ar    1  LIG1        0.0741
     29 C          -4.3592    7.0552   -0.0168 C.ar    1  LIG1        0.1860
     30 O          -3.1273    6.4001   -0.0198 O.2     1  LIG1       -0.4474
     31 H          -2.1504    9.8000    0.0344 H       1  LIG1        0.0669
     32 C          -5.0790    9.3513    0.0125 C.1     1  LIG1       -0.0657
     33 C          -5.9187   10.2101    0.0204 C.1     1  LIG1       -0.1138
     34 H          -6.6668   10.9752    0.0274 H       1  LIG1        0.1232
     35 C          -5.3897    6.2629   -0.0336 C.ar    1  LIG1        0.1712
     36 C          -6.7589    6.4305   -0.0463 C.ar    1  LIG1       -0.0098
     37 C          -7.3391    5.1038   -0.0627 C.ar    1  LIG1       -0.0120
     38 C          -6.2854    4.2132   -0.0590 C.ar    1  LIG1        0.0956
     39 O          -5.0731    4.9037   -0.0413 O.2     1  LIG1       -0.4595
     40 H          -6.1668    2.9186   -0.0680 H       1  LIG1        0.1032
     41 H          -7.4239    7.5476   -0.0442 H       1  LIG1        0.0659
     42 C          -8.6108    4.8330   -0.0778 C.3     1  LIG1       -0.0367
     43 H          -8.7834    3.9030    0.4224 H       1  LIG1        0.0278
     44 H          -8.9481    4.7611   -1.0908 H       1  LIG1        0.0278
     45 H          -9.1474    5.6120    0.4223 H       1  LIG1        0.0278
@<TRIPOS>BOND
     1    44    42    1
     2    24    22    1
     3    11     9    1
     4    20    18    1
     5    42    37    1
     6    42    45    1
     7    42    43    1
     8    40    38    1
     9    37    38   ar
    10    37    36   ar
    11    38    39   ar
    12    36    41    1
    13    36    35   ar
    14    39    35   ar
    15    35    29    1
    16    30    29   ar
    17    30    26   ar
    18    29    28   ar
    19    17    16   ar
    20    17    13   ar
    21    16    26    1
    22    16    15   ar
    23     5     4   ar
    24     5     1   ar
    25    26    27   ar
    26    15    14   ar
    27    15    22    1
    28    14    13   ar
    29    14    18    1
    30    13     4    1
    31    22    25    1
    32    22    23    1
    33     4     3   ar
    34     9     3    1
    35     9    12    1
    36     9    10    1
    37     2     3   ar
    38     2     1   ar
    39     2     7    1
    40     6     1    1
    41    18    21    1
    42    18    19    1
    43     7     8    1
    44    28    32    1
    45    28    27   ar
    46    32    33    3
    47    27    31    1
    48    33    34    1
