@<TRIPOS>MOLECULE
mol_data/noopt/geoms/mol2/12fl6aa-4ef13il-.out
 51 54 0 0 0
SMALL
GASTEIGER

@<TRIPOS>ATOM
      1 C           0.1763    1.8460    0.0000 C.ar    1  LIG1        0.1377
      2 C           1.5558    1.8460    0.0000 C.ar    1  LIG1        0.1978
      3 C           1.9706    3.2334    0.0000 C.ar    1  LIG1        0.2077
      4 C           0.8165    3.9895   -0.0001 C.ar    1  LIG1        0.1815
      5 O          -0.3030    3.1567   -0.0002 O.2     1  LIG1       -0.4553
      6 H          -0.7504    0.9343    0.0000 H       1  LIG1        0.1069
      7 O           2.3515    0.8179    0.0001 O.3     1  LIG1       -0.5012
      8 H           3.2633    1.1184    0.0001 H       1  LIG1        0.2924
      9 O           3.1998    3.6567   -0.0000 O.3     1  LIG1       -0.4884
     10 C           4.0900    2.5376   -0.0001 C.3     1  LIG1        0.0791
     11 H           5.1015    2.8864   -0.0002 H       1  LIG1        0.0660
     12 H           3.9174    1.9445    0.8737 H       1  LIG1        0.0660
     13 H           3.9171    1.9444   -0.8736 H       1  LIG1        0.0660
     14 C          -0.7951    5.6985   -0.0211 C.ar    1  LIG1        0.0390
     15 C           0.5416    5.2601   -0.0001 C.ar    1  LIG1        0.0391
     16 C           1.5571    6.2179    0.0209 C.ar    1  LIG1       -0.0475
     17 C           1.2066    7.5691    0.0200 C.ar    1  LIG1       -0.0350
     18 C          -0.1586    7.9086   -0.0020 C.ar    1  LIG1        0.0723
     19 N          -1.1512    6.9977   -0.0223 N.ar    1  LIG1       -0.2542
     20 H           2.6132    5.9133    0.0367 H       1  LIG1        0.0626
     21 H          -1.7753    4.8448   -0.0410 H       1  LIG1        0.0837
     22 H           2.1148    8.4990    0.0389 H       1  LIG1        0.0639
     23 C           0.4318   10.1792   -0.0038 C.ar    1  LIG1        0.0347
     24 C          -0.0270   11.5107   -0.0040 C.ar    1  LIG1       -0.0331
     25 C          -0.5350    9.1529   -0.0037 C.ar    1  LIG1        0.0192
     26 C          -1.3876   11.8095   -0.0047 C.ar    1  LIG1        0.0413
     27 H           0.7020   12.3179   -0.0039 H       1  LIG1        0.0638
     28 C          -1.8934    9.4506   -0.0044 C.ar    1  LIG1       -0.0092
     29 C          -2.3293   10.7797   -0.0050 C.ar    1  LIG1        0.1266
     30 H          -2.6194    8.6415   -0.0042 H       1  LIG1        0.0661
     31 C           1.7137    9.9632   -0.0034 C.1     1  LIG1       -0.0690
     32 C           2.8982    9.7637   -0.0030 C.1     1  LIG1       -0.1139
     33 H           3.9534    9.5859   -0.0027 H       1  LIG1        0.1232
     34 O          -3.6006   11.0520   -0.0055 O.3     1  LIG1       -0.5061
     35 H          -4.1034   10.2342   -0.0057 H       1  LIG1        0.2922
     36 C          -1.7760   13.0501   -0.0051 C.ar    1  LIG1        0.0565
     37 C          -1.0523   14.2008   -0.0057 C.ar    1  LIG1        0.0166
     38 C          -1.9814   15.2904   -0.0047 C.ar    1  LIG1        0.1408
     39 C          -3.2321   14.7576   -0.0053 C.ar    1  LIG1        0.0446
     40 N          -3.1109   13.3863   -0.0051 N.ar    1  LIG1       -0.3573
     41 H          -3.8673   12.7413   -0.0055 H       1  LIG1        0.1655
     42 H          -4.3959   15.3370   -0.0050 H       1  LIG1        0.0844
     43 C           0.2449   14.2914   -0.0055 C.3     1  LIG1       -0.0342
     44 H           0.5397   15.1878    0.4990 H       1  LIG1        0.0279
     45 H           0.6008   14.3164   -1.0143 H       1  LIG1        0.0279
     46 H           0.6615   13.4447    0.4989 H       1  LIG1        0.0279
     47 O          -1.6872   16.5567   -0.0038 O.3     1  LIG1       -0.4933
     48 C          -0.2661   16.7165   -0.0036 C.3     1  LIG1        0.0789
     49 H          -0.0244   17.7588   -0.0031 H       1  LIG1        0.0660
     50 H           0.1446   16.2547    0.8699 H       1  LIG1        0.0660
     51 H           0.1448   16.2555   -0.8774 H       1  LIG1        0.0660
@<TRIPOS>BOND
     1    45    43    1
     2    51    48    1
     3    13    10    1
     4    21    14    1
     5    19    14   ar
     6    19    18   ar
     7    14    15   ar
     8    35    34    1
     9    37    43    1
    10    37    36   ar
    11    37    38   ar
    12    34    29    1
    13    41    40    1
    14    43    46    1
    15    43    44    1
    16    39    40   ar
    17    39    42    1
    18    39    38   ar
    19    40    36   ar
    20    36    26    1
    21    29    26   ar
    22    29    28   ar
    23    26    24   ar
    24    38    47    1
    25    28    30    1
    26    28    25   ar
    27    24    27    1
    28    24    23   ar
    29    47    48    1
    30    23    25   ar
    31    23    31    1
    32    25    18    1
    33    48    49    1
    34    48    50    1
    35    31    32    3
    36    32    33    1
    37    18    17   ar
    38    11    10    1
    39     5     4   ar
    40     5     1   ar
    41    15     4    1
    42    15    16   ar
    43     4     3   ar
    44    10     9    1
    45    10    12    1
    46     9     3    1
    47     6     1    1
    48     1     2   ar
    49     3     2   ar
    50     2     7    1
    51     7     8    1
    52    17    16   ar
    53    17    22    1
    54    16    20    1
