@<TRIPOS>MOLECULE
mol_data/noopt/geoms/mol2/12fl12fl-12fl-12fl-.out
 50 51 0 0 0
SMALL
GASTEIGER

@<TRIPOS>ATOM
      1 C           0.1763    1.8460    0.0000 C.ar    1  LIG1        0.1379
      2 C           1.5558    1.8460    0.0000 C.ar    1  LIG1        0.1979
      3 C           1.9706    3.2334    0.0000 C.ar    1  LIG1        0.2109
      4 C           0.8165    3.9895   -0.0001 C.ar    1  LIG1        0.2186
      5 O          -0.3030    3.1567   -0.0002 O.2     1  LIG1       -0.4521
      6 H          -0.7504    0.9343    0.0000 H       1  LIG1        0.1069
      7 O           2.3515    0.8179    0.0001 O.3     1  LIG1       -0.5012
      8 H           3.2633    1.1184    0.0001 H       1  LIG1        0.2924
      9 O           3.1998    3.6567   -0.0000 O.3     1  LIG1       -0.4883
     10 C           4.0900    2.5376   -0.0001 C.3     1  LIG1        0.0791
     11 H           5.1015    2.8864   -0.0002 H       1  LIG1        0.0660
     12 H           3.9174    1.9445    0.8737 H       1  LIG1        0.0660
     13 H           3.9171    1.9444   -0.8736 H       1  LIG1        0.0660
     14 C           0.5416    5.2601   -0.0001 C.ar    1  LIG1        0.2196
     15 C          -0.6119    6.0167   -0.0001 C.ar    1  LIG1        0.2145
     16 C          -0.1979    7.4043   -0.0001 C.ar    1  LIG1        0.2695
     17 C           1.1818    7.4036   -0.0002 C.ar    1  LIG1        0.2249
     18 O           1.6612    6.0932   -0.0003 O.2     1  LIG1       -0.4405
     19 O          -1.8411    5.5933   -0.0000 O.3     1  LIG1       -0.5006
     20 H          -1.8494    4.6334   -0.0000 H       1  LIG1        0.2924
     21 O          -0.9936    8.4324   -0.0001 O.3     1  LIG1       -0.2798
     22 C          -0.2197    9.6349   -0.0002 C.3     2  LIG2       -0.0776
     23 H          -0.8750   10.4808   -0.0004 H       1  LIG1        0.0194
     24 H           0.3974    9.6619    0.8736 H       1  LIG1        0.0194
     25 H           0.3976    9.6617   -0.8737 H       1  LIG1        0.0194
     26 C           2.1085    8.3153   -0.0002 C.ar    1  LIG1        0.2251
     27 C           2.1310    9.6946   -0.0002 C.ar    1  LIG1        0.2747
     28 C           3.5250   10.0867   -0.0001 C.ar    1  LIG1        0.2747
     29 C           4.2622    8.9204   -0.0002 C.ar    1  LIG1        0.2251
     30 O           3.4112    7.8147   -0.0003 O.2     1  LIG1       -0.4403
     31 O           1.1161   10.5070   -0.0001 O.3     1  LIG1       -0.2796
     32 H           0.3004   10.0007   -0.0001 H       1  LIG1        0.0194
     33 O           3.9683   11.3088   -0.0001 O.3     1  LIG1       -0.2796
     34 C           5.3983   11.2978   -0.0002 C.3     3  LIG3       -0.0776
     35 H           5.7627   12.3039   -0.0003 H       2  LIG2        0.0194
     36 H           5.7511   10.7908    0.8736 H       2  LIG2        0.0194
     37 H           5.7511   10.7906   -0.8737 H       2  LIG2        0.0194
     38 C           5.5281    8.6248   -0.0002 C.ar    1  LIG1        0.2238
     39 C           6.7057    9.3433   -0.0002 C.ar    1  LIG1        0.2689
     40 C           7.7825    8.3750   -0.0001 C.ar    1  LIG1        0.2055
     41 C           7.1911    7.1285   -0.0002 C.ar    1  LIG1        0.1383
     42 O           5.8017    7.2563   -0.0003 O.2     1  LIG1       -0.4519
     43 H           7.6182    5.9007   -0.0001 H       1  LIG1        0.1069
     44 O           6.8495   10.6354   -0.0001 O.3     1  LIG1       -0.2798
     45 H           5.9855   11.0539   -0.0001 H       2  LIG2        0.0194
     46 O           9.0522    8.6539   -0.0001 O.3     1  LIG1       -0.4887
     47 C           9.8076    7.4397   -0.0001 C.3     1  LIG1        0.0791
     48 H          10.8526    7.6697   -0.0003 H       1  LIG1        0.0660
     49 H           9.5678    6.8704    0.8736 H       1  LIG1        0.0660
     50 H           9.5676    6.8704   -0.8737 H       1  LIG1        0.0660
@<TRIPOS>BOND
     1    25    22    1
     2    37    34    1
     3    50    47    1
     4    13    10    1
     5    23    22    1
     6    35    34    1
     7    42    41   ar
     8    42    38   ar
     9    30    29   ar
    10    30    26   ar
    11    48    47    1
    12    18    17   ar
    13    18    14   ar
    14    11    10    1
    15     5     4   ar
    16     5     1   ar
    17    22    32    1
    18    22    24    1
    19    29    38    1
    20    29    28   ar
    21    41    43    1
    22    41    40   ar
    23    34    45    1
    24    34    36    1
    25    17    26    1
    26    17    16   ar
    27    38    39   ar
    28    27    26   ar
    29    27    28   ar
    30    27    31    1
    31    39    40   ar
    32    39    44    1
    33    47    46    1
    34    47    49    1
    35    15    16   ar
    36    15    14   ar
    37    15    19    1
    38    28    33    1
    39    21    16    1
    40    40    46    1
    41     4    14    1
    42     4     3   ar
    43    10     9    1
    44    10    12    1
    45    19    20    1
    46     2     3   ar
    47     2     1   ar
    48     2     7    1
    49     3     9    1
    50     6     1    1
    51     7     8    1
