@<TRIPOS>MOLECULE
mol_data/noopt/geoms/mol2/12fl4hh(130)4fa(250)4ii(260).out
 55 58 0 0 0
SMALL
GASTEIGER

@<TRIPOS>ATOM
      1 C           0.1763    1.8460    0.0000 C.ar    1  LIG1        0.1377
      2 C           1.5558    1.8460    0.0000 C.ar    1  LIG1        0.1978
      3 C           1.9706    3.2334    0.0000 C.ar    1  LIG1        0.2077
      4 C           0.8165    3.9895   -0.0001 C.ar    1  LIG1        0.1818
      5 O          -0.3030    3.1567   -0.0002 O.2     1  LIG1       -0.4553
      6 H          -0.7504    0.9343    0.0000 H       1  LIG1        0.1069
      7 O           2.3515    0.8179    0.0001 O.3     1  LIG1       -0.5012
      8 H           3.2633    1.1184    0.0001 H       1  LIG1        0.2924
      9 O           3.1998    3.6567   -0.0000 O.3     1  LIG1       -0.4884
     10 C           4.0900    2.5376   -0.0001 C.3     1  LIG1        0.0791
     11 H           5.1015    2.8864   -0.0002 H       1  LIG1        0.0660
     12 H           3.9174    1.9445    0.8737 H       1  LIG1        0.0660
     13 H           3.9171    1.9444   -0.8736 H       1  LIG1        0.0660
     14 C          -0.3755    5.7803    0.9358 C.ar    1  LIG1        0.0361
     15 C          -0.6405    7.1628    0.8938 C.ar    1  LIG1       -0.0308
     16 C           0.5416    5.2600   -0.0001 C.ar    1  LIG1        0.0434
     17 C          -0.0205    7.9926   -0.0377 C.ar    1  LIG1        0.0080
     18 H          -1.3451    7.5851    1.6068 H       1  LIG1        0.0643
     19 C           1.1609    6.0880   -0.9302 C.ar    1  LIG1       -0.0279
     20 C           0.8847    7.4590   -0.9558 C.ar    1  LIG1        0.0333
     21 H           1.8643    5.6628   -1.6416 H       1  LIG1        0.0644
     22 N          -0.9847    5.0573    1.8281 N.pl3   1  LIG1       -0.3574
     23 H          -1.9738    5.1507    1.7141 H       1  LIG1        0.1423
     24 H          -0.7251    4.0984    1.7141 H       1  LIG1        0.1423
     25 N           1.4665    8.2280   -1.8277 N.pl3   1  LIG1       -0.3575
     26 H           2.0761    7.6804   -2.4009 H       1  LIG1        0.1423
     27 H           0.7738    8.6656   -2.4009 H       1  LIG1        0.1423
     28 C          -0.8398    9.8568   -1.2028 C.ar    1  LIG1        0.1252
     29 C          -1.1106   11.2383   -1.1643 C.ar    1  LIG1       -0.0119
     30 C          -0.2884    9.2646   -0.0482 C.ar    1  LIG1        0.0254
     31 C          -0.8455   11.9984   -0.0273 C.ar    1  LIG1       -0.0141
     32 H          -1.5359   11.7155   -2.0444 H       1  LIG1        0.0660
     33 C          -0.0237   10.0229    1.0871 C.ar    1  LIG1       -0.0499
     34 C          -0.3000   11.3939    1.1060 C.ar    1  LIG1       -0.0532
     35 H           0.4017    9.5430    1.9649 H       1  LIG1        0.0625
     36 O          -1.1089    9.2006   -2.2923 O.3     1  LIG1       -0.5061
     37 H          -0.3380    8.6955   -2.5608 H       1  LIG1        0.2922
     38 H          -0.0502   12.0978    2.1700 H       1  LIG1        0.0624
     39 C          -1.4573   13.9176   -1.2299 C.ar    1  LIG1       -0.0427
     40 C          -1.7309   15.2980   -1.1764 C.ar    1  LIG1       -0.0580
     41 C          -1.1080   13.2715   -0.0264 C.ar    1  LIG1       -0.0146
     42 C          -1.6611   16.0058    0.0215 C.ar    1  LIG1       -0.0586
     43 H          -2.0021   15.8163   -2.0935 H       1  LIG1        0.0620
     44 C          -1.0382   13.9776    1.1697 C.ar    1  LIG1       -0.0509
     45 C          -1.3140   15.3485    1.2025 C.ar    1  LIG1       -0.0499
     46 H          -0.7666   13.4568    2.0844 H       1  LIG1        0.0626
     47 H          -1.9202   17.2796    0.0346 H       1  LIG1        0.0620
     48 C          -1.5391   13.3114   -2.3774 C.3     1  LIG1       -0.0391
     49 H          -0.7554   12.5871   -2.4548 H       1  LIG1        0.0278
     50 H          -1.4424   14.0274   -3.1667 H       1  LIG1        0.0278
     51 H          -2.4870   12.8211   -2.4548 H       1  LIG1        0.0278
     52 C          -1.2470   16.0035    2.3238 C.3     1  LIG1       -0.0397
     53 H          -2.1420   15.8394    2.8868 H       1  LIG1        0.0278
     54 H          -1.1400   17.0486    2.1205 H       1  LIG1        0.0278
     55 H          -0.4037   15.6615    2.8867 H       1  LIG1        0.0278
@<TRIPOS>BOND
     1    50    48    1
     2    37    36    1
     3    49    48    1
     4    51    48    1
     5    27    25    1
     6    26    25    1
     7    48    39    1
     8    36    28    1
     9    43    40    1
    10    32    29    1
    11    25    20    1
    12    21    19    1
    13    39    40   ar
    14    39    41   ar
    15    28    29   ar
    16    28    30   ar
    17    40    42   ar
    18    29    31   ar
    19    20    19   ar
    20    20    17   ar
    21    19    16   ar
    22    13    10    1
    23    30    17    1
    24    30    33   ar
    25    17    15   ar
    26    31    41    1
    27    31    34   ar
    28    41    44   ar
    29    11    10    1
    30     5     4   ar
    31     5     1   ar
    32    16     4    1
    33    16    14   ar
    34     4     3   ar
    35    10     9    1
    36    10    12    1
    37     1     2   ar
    38     1     6    1
    39     2     3   ar
    40     2     7    1
    41     3     9    1
    42     7     8    1
    43    42    47    1
    44    42    45   ar
    45    15    14   ar
    46    15    18    1
    47    14    22    1
    48    33    34   ar
    49    33    35    1
    50    34    38    1
    51    44    45   ar
    52    44    46    1
    53    45    52    1
    54    24    22    1
    55    23    22    1
    56    54    52    1
    57    52    55    1
    58    52    53    1
