@<TRIPOS>MOLECULE
mol_data/noopt/geoms/mol2/12fl12fl12fl-12fl.out
 50 53 0 0 0
SMALL
GASTEIGER

@<TRIPOS>ATOM
      1 C           0.1763    1.8460    0.0000 C.ar    1  LIG1        0.1379
      2 C           1.5558    1.8460    0.0000 C.ar    1  LIG1        0.1979
      3 C           1.9706    3.2334    0.0000 C.ar    1  LIG1        0.2109
      4 C           0.8165    3.9895   -0.0001 C.ar    1  LIG1        0.2186
      5 O          -0.3030    3.1567   -0.0002 O.2     1  LIG1       -0.4521
      6 H          -0.7504    0.9343    0.0000 H       1  LIG1        0.1069
      7 O           2.3515    0.8179    0.0001 O.3     1  LIG1       -0.5012
      8 H           3.2633    1.1184    0.0001 H       1  LIG1        0.2924
      9 O           3.1998    3.6567   -0.0000 O.3     1  LIG1       -0.4883
     10 C           4.0900    2.5376   -0.0001 C.3     1  LIG1        0.0791
     11 H           5.1015    2.8864   -0.0002 H       1  LIG1        0.0660
     12 H           3.9174    1.9445    0.8737 H       1  LIG1        0.0660
     13 H           3.9171    1.9444   -0.8736 H       1  LIG1        0.0660
     14 C           0.5416    5.2601   -0.0001 C.ar    1  LIG1        0.2194
     15 C           1.2792    6.4258   -0.0001 C.ar    1  LIG1        0.2094
     16 C           0.3286    7.5182   -0.0001 C.ar    1  LIG1        0.2117
     17 C          -0.9274    6.9472   -0.0002 C.ar    1  LIG1        0.2197
     18 O          -0.8223    5.5559   -0.0003 O.2     1  LIG1       -0.4407
     19 O           2.5735    6.5485   -0.0000 O.3     1  LIG1       -0.5007
     20 H           2.8071    7.4796    0.0000 H       1  LIG1        0.2924
     21 O           0.6282    8.7833   -0.0001 O.3     1  LIG1       -0.4883
     22 C           2.0499    8.9371   -0.0002 C.3     1  LIG1        0.0791
     23 H           2.2960    9.9784   -0.0003 H       1  LIG1        0.0660
     24 H           2.4588    8.4741    0.8736 H       1  LIG1        0.0660
     25 H           2.4588    8.4738   -0.8737 H       1  LIG1        0.0660
     26 C          -2.1481    7.3943   -0.0002 C.ar    1  LIG1        0.2195
     27 C          -3.4042    6.8241   -0.0002 C.ar    1  LIG1        0.2094
     28 C          -4.3554    7.9160   -0.0002 C.ar    1  LIG1        0.2117
     29 C          -3.6171    9.0815   -0.0003 C.ar    1  LIG1        0.2196
     30 O          -2.2534    8.7859   -0.0004 O.2     1  LIG1       -0.4407
     31 O          -3.7038    5.5591   -0.0001 O.3     1  LIG1       -0.5007
     32 H          -2.8970    5.0387   -0.0001 H       1  LIG1        0.2924
     33 O          -5.6497    7.7933   -0.0002 O.3     1  LIG1       -0.4883
     34 C          -6.2520    9.0903   -0.0003 C.3     1  LIG1        0.0791
     35 H          -7.3172    8.9889   -0.0005 H       1  LIG1        0.0660
     36 H          -5.9449    9.6262    0.8735 H       1  LIG1        0.0660
     37 H          -5.9446    9.6263   -0.8738 H       1  LIG1        0.0660
     38 C          -3.8920   10.3521   -0.0003 C.ar    1  LIG1        0.2184
     39 C          -3.1543   11.5178   -0.0002 C.ar    1  LIG1        0.2086
     40 C          -4.1049   12.6102   -0.0002 C.ar    1  LIG1        0.2002
     41 C          -5.3610   12.0393   -0.0003 C.ar    1  LIG1        0.1381
     42 O          -5.2558   10.6479   -0.0004 O.2     1  LIG1       -0.4521
     43 H          -6.5817   12.4864   -0.0003 H       1  LIG1        0.1069
     44 O          -1.8601   11.6405   -0.0001 O.3     1  LIG1       -0.5007
     45 H          -1.6265   12.5716   -0.0001 H       1  LIG1        0.2924
     46 O          -3.8054   13.8753   -0.0002 O.3     1  LIG1       -0.4888
     47 C          -2.3837   14.0291   -0.0003 C.3     1  LIG1        0.0791
     48 H          -2.1375   15.0704   -0.0004 H       1  LIG1        0.0660
     49 H          -1.9747   13.5661    0.8735 H       1  LIG1        0.0660
     50 H          -1.9748   13.5659   -0.8738 H       1  LIG1        0.0660
@<TRIPOS>BOND
     1    37    34    1
     2    50    47    1
     3    25    22    1
     4    13    10    1
     5    35    34    1
     6    42    41   ar
     7    42    38   ar
     8    48    47    1
     9    30    29   ar
    10    30    26   ar
    11    23    22    1
    12    41    43    1
    13    41    40   ar
    14    18    17   ar
    15    18    14   ar
    16    34    33    1
    17    34    36    1
    18    29    38    1
    19    29    28   ar
    20    47    46    1
    21    47    49    1
    22    38    39   ar
    23    11    10    1
    24    39    40   ar
    25    39    44    1
    26    27    28   ar
    27    27    26   ar
    28    27    31    1
    29    33    28    1
    30    40    46    1
    31    26    17    1
    32    17    16   ar
    33     5     4   ar
    34     5     1   ar
    35    22    21    1
    36    22    24    1
    37    31    32    1
    38    44    45    1
    39     4    14    1
    40     4     3   ar
    41    21    16    1
    42    16    15   ar
    43    15    14   ar
    44    15    19    1
    45    10     9    1
    46    10    12    1
    47     3     9    1
    48     3     2   ar
    49     6     1    1
    50     2     1   ar
    51     2     7    1
    52    19    20    1
    53     7     8    1
