@<TRIPOS>MOLECULE
mol_data/noopt/geoms/mol2/12fl.out
 14 14 0 0 0
SMALL
GASTEIGER

@<TRIPOS>ATOM
      1 C           0.1763    1.8460    0.0000 C.ar    1  LIG1        0.1368
      2 C           1.5558    1.8460    0.0000 C.ar    1  LIG1        0.1971
      3 C           1.9706    3.2334    0.0000 C.ar    1  LIG1        0.1994
      4 C           0.8165    3.9895   -0.0001 C.ar    1  LIG1        0.1370
      5 O          -0.3030    3.1567   -0.0002 O.2     1  LIG1       -0.4635
      6 H          -0.7504    0.9343    0.0000 H       1  LIG1        0.1069
      7 H           0.5416    5.2601   -0.0001 H       1  LIG1        0.1069
      8 O           2.3515    0.8179    0.0001 O.3     1  LIG1       -0.5012
      9 H           3.2633    1.1184    0.0001 H       1  LIG1        0.2924
     10 O           3.1998    3.6567   -0.0000 O.3     1  LIG1       -0.4888
     11 C           4.0900    2.5376   -0.0001 C.3     1  LIG1        0.0791
     12 H           5.1015    2.8864   -0.0002 H       1  LIG1        0.0660
     13 H           3.9174    1.9445    0.8737 H       1  LIG1        0.0660
     14 H           3.9171    1.9444   -0.8736 H       1  LIG1        0.0660
@<TRIPOS>BOND
     1    14    11    1
     2    12    11    1
     3     5     4   ar
     4     5     1   ar
     5     4     7    1
     6     4     3   ar
     7    11    10    1
     8    11    13    1
     9     1     2   ar
    10     1     6    1
    11     2     3   ar
    12     2     8    1
    13     3    10    1
    14     8     9    1
