@<TRIPOS>MOLECULE
mol_data/noopt/geoms/mol2/12fl12fl-12fl.out
 38 40 0 0 0
SMALL
GASTEIGER

@<TRIPOS>ATOM
      1 C           0.1763    1.8460    0.0000 C.ar    1  LIG1        0.1379
      2 C           1.5558    1.8460    0.0000 C.ar    1  LIG1        0.1979
      3 C           1.9706    3.2334    0.0000 C.ar    1  LIG1        0.2109
      4 C           0.8165    3.9895   -0.0001 C.ar    1  LIG1        0.2186
      5 O          -0.3030    3.1567   -0.0002 O.2     1  LIG1       -0.4521
      6 H          -0.7504    0.9343    0.0000 H       1  LIG1        0.1069
      7 O           2.3515    0.8179    0.0001 O.3     1  LIG1       -0.5012
      8 H           3.2633    1.1184    0.0001 H       1  LIG1        0.2924
      9 O           3.1998    3.6567   -0.0000 O.3     1  LIG1       -0.4883
     10 C           4.0900    2.5376   -0.0001 C.3     1  LIG1        0.0791
     11 H           5.1015    2.8864   -0.0002 H       1  LIG1        0.0660
     12 H           3.9174    1.9445    0.8737 H       1  LIG1        0.0660
     13 H           3.9171    1.9444   -0.8736 H       1  LIG1        0.0660
     14 C           0.5416    5.2601   -0.0001 C.ar    1  LIG1        0.2194
     15 C          -0.6119    6.0167   -0.0001 C.ar    1  LIG1        0.2094
     16 C          -0.1979    7.4043   -0.0001 C.ar    1  LIG1        0.2117
     17 C           1.1818    7.4036   -0.0002 C.ar    1  LIG1        0.2196
     18 O           1.6612    6.0932   -0.0003 O.2     1  LIG1       -0.4407
     19 O          -1.8411    5.5933   -0.0000 O.3     1  LIG1       -0.5007
     20 H          -1.8494    4.6334   -0.0000 H       1  LIG1        0.2924
     21 O          -0.9936    8.4324   -0.0001 O.3     1  LIG1       -0.4883
     22 C          -0.2197    9.6349   -0.0002 C.3     1  LIG1        0.0791
     23 H          -0.8750   10.4808   -0.0004 H       1  LIG1        0.0660
     24 H           0.3974    9.6619    0.8736 H       1  LIG1        0.0660
     25 H           0.3976    9.6617   -0.8737 H       1  LIG1        0.0660
     26 C           2.1085    8.3153   -0.0002 C.ar    1  LIG1        0.2184
     27 C           3.4880    8.3153   -0.0001 C.ar    1  LIG1        0.2086
     28 C           3.9028    9.7027   -0.0001 C.ar    1  LIG1        0.2002
     29 C           2.7487   10.4588   -0.0002 C.ar    1  LIG1        0.1381
     30 O           1.6292    9.6260   -0.0003 O.2     1  LIG1       -0.4521
     31 H           2.4738   11.7294   -0.0002 H       1  LIG1        0.1069
     32 O           4.2837    7.2872   -0.0000 O.3     1  LIG1       -0.5007
     33 H           5.1955    7.5877   -0.0000 H       1  LIG1        0.2924
     34 O           5.1320   10.1260   -0.0001 O.3     1  LIG1       -0.4888
     35 C           6.0222    9.0068   -0.0002 C.3     1  LIG1        0.0791
     36 H           7.0338    9.3557   -0.0003 H       1  LIG1        0.0660
     37 H           5.8496    8.4137    0.8736 H       1  LIG1        0.0660
     38 H           5.8494    8.4137   -0.8737 H       1  LIG1        0.0660
@<TRIPOS>BOND
     1    25    22    1
     2    38    35    1
     3    13    10    1
     4    23    22    1
     5    30    29   ar
     6    30    26   ar
     7    36    35    1
     8    18    17   ar
     9    18    14   ar
    10    11    10    1
    11    29    31    1
    12    29    28   ar
    13     5     4   ar
    14     5     1   ar
    15    22    21    1
    16    22    24    1
    17    17    26    1
    18    17    16   ar
    19    35    34    1
    20    35    37    1
    21    26    27   ar
    22    27    28   ar
    23    27    32    1
    24    15    16   ar
    25    15    14   ar
    26    15    19    1
    27    21    16    1
    28    28    34    1
    29    14     4    1
    30     4     3   ar
    31    10     9    1
    32    10    12    1
    33    19    20    1
    34    32    33    1
    35     1     6    1
    36     1     2   ar
    37     9     3    1
    38     3     2   ar
    39     2     7    1
    40     7     8    1
