@<TRIPOS>MOLECULE
mol_data/noopt/geoms/mol2/12fl12fl-12fl12fl-.out
 50 53 0 0 0
SMALL
GASTEIGER

@<TRIPOS>ATOM
      1 C           0.1763    1.8460    0.0000 C.ar    1  LIG1        0.1379
      2 C           1.5558    1.8460    0.0000 C.ar    1  LIG1        0.1979
      3 C           1.9706    3.2334    0.0000 C.ar    1  LIG1        0.2109
      4 C           0.8165    3.9895   -0.0001 C.ar    1  LIG1        0.2186
      5 O          -0.3030    3.1567   -0.0002 O.2     1  LIG1       -0.4521
      6 H          -0.7504    0.9343    0.0000 H       1  LIG1        0.1069
      7 O           2.3515    0.8179    0.0001 O.3     1  LIG1       -0.5012
      8 H           3.2633    1.1184    0.0001 H       1  LIG1        0.2924
      9 O           3.1998    3.6567   -0.0000 O.3     1  LIG1       -0.4883
     10 C           4.0900    2.5376   -0.0001 C.3     1  LIG1        0.0791
     11 H           5.1015    2.8864   -0.0002 H       1  LIG1        0.0660
     12 H           3.9174    1.9445    0.8737 H       1  LIG1        0.0660
     13 H           3.9171    1.9444   -0.8736 H       1  LIG1        0.0660
     14 C           0.5416    5.2601   -0.0001 C.ar    1  LIG1        0.2194
     15 C          -0.6119    6.0167   -0.0001 C.ar    1  LIG1        0.2094
     16 C          -0.1979    7.4043   -0.0001 C.ar    1  LIG1        0.2117
     17 C           1.1818    7.4036   -0.0002 C.ar    1  LIG1        0.2197
     18 O           1.6612    6.0932   -0.0003 O.2     1  LIG1       -0.4407
     19 O          -1.8411    5.5933   -0.0000 O.3     1  LIG1       -0.5007
     20 H          -1.8494    4.6334   -0.0000 H       1  LIG1        0.2924
     21 O          -0.9936    8.4324   -0.0001 O.3     1  LIG1       -0.4883
     22 C          -0.2197    9.6349   -0.0002 C.3     1  LIG1        0.0791
     23 H          -0.8750   10.4808   -0.0004 H       1  LIG1        0.0660
     24 H           0.3974    9.6619    0.8736 H       1  LIG1        0.0660
     25 H           0.3976    9.6617   -0.8737 H       1  LIG1        0.0660
     26 C           2.1085    8.3153   -0.0002 C.ar    1  LIG1        0.2195
     27 C           3.4880    8.3153   -0.0001 C.ar    1  LIG1        0.2094
     28 C           3.9028    9.7027   -0.0001 C.ar    1  LIG1        0.2117
     29 C           2.7487   10.4588   -0.0002 C.ar    1  LIG1        0.2196
     30 O           1.6292    9.6260   -0.0003 O.2     1  LIG1       -0.4407
     31 O           4.2837    7.2872   -0.0000 O.3     1  LIG1       -0.5007
     32 H           5.1955    7.5877   -0.0000 H       1  LIG1        0.2924
     33 O           5.1320   10.1260   -0.0001 O.3     1  LIG1       -0.4883
     34 C           6.0222    9.0068   -0.0002 C.3     1  LIG1        0.0791
     35 H           7.0338    9.3557   -0.0003 H       1  LIG1        0.0660
     36 H           5.8496    8.4137    0.8736 H       1  LIG1        0.0660
     37 H           5.8494    8.4137   -0.8737 H       1  LIG1        0.0660
     38 C           2.4738   11.7294   -0.0002 C.ar    1  LIG1        0.2184
     39 C           1.3203   12.4859   -0.0002 C.ar    1  LIG1        0.2086
     40 C           1.7343   13.8736   -0.0002 C.ar    1  LIG1        0.2002
     41 C           3.1141   13.8729   -0.0003 C.ar    1  LIG1        0.1381
     42 O           3.5935   12.5625   -0.0004 O.2     1  LIG1       -0.4521
     43 H           4.0408   14.7846   -0.0002 H       1  LIG1        0.1069
     44 O           0.0911   12.0626   -0.0001 O.3     1  LIG1       -0.5007
     45 H           0.0828   11.1027   -0.0001 H       1  LIG1        0.2924
     46 O           0.9386   14.9017   -0.0002 O.3     1  LIG1       -0.4888
     47 C           1.7125   16.1041   -0.0003 C.3     1  LIG1        0.0791
     48 H           1.0573   16.9500   -0.0004 H       1  LIG1        0.0660
     49 H           2.3296   16.1312    0.8735 H       1  LIG1        0.0660
     50 H           2.3298   16.1310   -0.8738 H       1  LIG1        0.0660
@<TRIPOS>BOND
     1    50    47    1
     2    25    22    1
     3    37    34    1
     4    13    10    1
     5    48    47    1
     6    42    41   ar
     7    42    38   ar
     8    23    22    1
     9    30    29   ar
    10    30    26   ar
    11    35    34    1
    12    18    17   ar
    13    18    14   ar
    14    47    46    1
    15    47    49    1
    16    41    43    1
    17    41    40   ar
    18    11    10    1
    19    29    38    1
    20    29    28   ar
    21    39    38   ar
    22    39    40   ar
    23    39    44    1
    24     5     4   ar
    25     5     1   ar
    26    22    21    1
    27    22    24    1
    28    40    46    1
    29    17    26    1
    30    17    16   ar
    31    34    33    1
    32    34    36    1
    33    26    27   ar
    34    44    45    1
    35    27    28   ar
    36    27    31    1
    37    15    16   ar
    38    15    14   ar
    39    15    19    1
    40    21    16    1
    41    28    33    1
    42    14     4    1
    43     4     3   ar
    44    10     9    1
    45    10    12    1
    46    19    20    1
    47    31    32    1
    48     2     3   ar
    49     2     1   ar
    50     2     7    1
    51     6     1    1
    52     3     9    1
    53     7     8    1
