@<TRIPOS>MOLECULE
mol_data/noopt/geoms/mol2/12fl4fe(70)6hi(80)4ld(310).out
 56 60 0 0 0
SMALL
GASTEIGER

@<TRIPOS>ATOM
      1 C           0.1763    1.8460    0.0000 C.ar    1  LIG1        0.1377
      2 C           1.5558    1.8460    0.0000 C.ar    1  LIG1        0.1978
      3 C           1.9706    3.2334    0.0000 C.ar    1  LIG1        0.2077
      4 C           0.8165    3.9895   -0.0001 C.ar    1  LIG1        0.1835
      5 O          -0.3030    3.1567   -0.0002 O.2     1  LIG1       -0.4553
      6 H          -0.7504    0.9343    0.0000 H       1  LIG1        0.1069
      7 O           2.3515    0.8179    0.0001 O.3     1  LIG1       -0.5012
      8 H           3.2633    1.1184    0.0001 H       1  LIG1        0.2924
      9 O           3.1998    3.6567   -0.0000 O.3     1  LIG1       -0.4884
     10 C           4.0900    2.5376   -0.0001 C.3     1  LIG1        0.0791
     11 H           5.1015    2.8864   -0.0002 H       1  LIG1        0.0660
     12 H           3.9174    1.9445    0.8737 H       1  LIG1        0.0660
     13 H           3.9171    1.9444   -0.8736 H       1  LIG1        0.0660
     14 C           0.8011    6.0349    1.1489 C.ar    1  LIG1        0.1282
     15 C           0.4841    7.4062    1.0990 C.ar    1  LIG1       -0.0119
     16 C           0.5416    5.2600   -0.0001 C.ar    1  LIG1        0.0626
     17 C          -0.0662    7.9827   -0.0435 C.ar    1  LIG1       -0.0164
     18 H           0.6760    8.0224    1.9746 H       1  LIG1        0.0660
     19 C          -0.0078    5.8351   -1.1409 C.ar    1  LIG1       -0.0450
     20 C          -0.3154    7.1993   -1.1711 C.ar    1  LIG1       -0.0506
     21 H          -0.1986    5.2165   -2.0142 H       1  LIG1        0.0628
     22 O           1.3129    5.5544    2.2431 O.3     1  LIG1       -0.5060
     23 H           2.0584    6.0958    2.5128 H       1  LIG1        0.2922
     24 C          -0.8290    7.7313   -2.2403 C.3     1  LIG1       -0.0406
     25 C          -1.3036    8.2229   -3.2282 C.3     1  LIG1       -0.0435
     26 H          -1.7263    8.6608   -4.1082 H       1  LIG1        0.0295
     27 C          -0.7038    9.8907   -1.2565 C.3     1  LIG1        0.0338
     28 C          -0.3465    9.2521   -0.0549 C.2     1  LIG1       -0.0334
     29 C          -0.3016   10.0113    1.1158 C.2     1  LIG1       -0.0532
     30 C          -0.6120   11.3706    1.0476 C.2     1  LIG1       -0.0287
     31 C          -0.9577   11.9185   -0.2013 C.2     1  LIG1        0.0399
     32 N          -1.0062   11.2008   -1.3405 N.pl3   1  LIG1       -0.3494
     33 H          -0.0257    9.5473    2.0733 H       1  LIG1        0.0624
     34 N          -0.7597    9.2261   -2.3724 N.4     1  LIG1        0.4019
     35 H          -1.5537    9.5273   -2.9004 H       1  LIG1       -0.0809
     36 H           0.0735    9.3905   -2.9004 H       1  LIG1       -0.0809
     37 C          -0.5845   12.1205    2.1095 C.3     1  LIG1       -0.0379
     38 H          -1.4651   11.9466    2.6919 H       1  LIG1        0.0278
     39 H          -0.5468   13.1496    1.8185 H       1  LIG1        0.0278
     40 H           0.2811   11.8826    2.6918 H       1  LIG1        0.0278
     41 C          -0.6311   13.9602   -1.3099 C.ar    1  LIG1        0.1296
     42 C          -0.9861   15.3206   -1.3919 C.ar    1  LIG1       -0.0181
     43 C          -1.2548   13.1789   -0.3158 C.ar    1  LIG1        0.0389
     44 C          -1.9209   15.8802   -0.5239 C.ar    1  LIG1       -0.0409
     45 H          -0.5167   15.9416   -2.1516 H       1  LIG1        0.0655
     46 C          -2.1882   13.7371    0.5510 C.ar    1  LIG1       -0.0319
     47 C          -2.5278   15.0905    0.4534 C.ar    1  LIG1        0.0526
     48 H          -2.6552   13.1138    1.3093 H       1  LIG1        0.0638
     49 H          -2.2252   17.1399   -0.6279 H       1  LIG1        0.0631
     50 O           0.2474   13.4952   -2.1479 O.3     1  LIG1       -0.4879
     51 C          -0.0608   12.1331   -2.4556 C.3     1  LIG1        0.1235
     52 H           0.6624   11.7509   -3.1454 H       1  LIG1        0.0731
     53 H          -0.0398   11.5511   -1.5579 H       1  LIG1        0.1448
     54 H          -1.0354   12.0781   -2.8936 H       1  LIG1        0.0731
     55 N          -4.1709   16.0623    1.9837 N.1     1  LIG1       -0.1909
     56 C          -3.4009   15.6069    1.2665 C.1     1  LIG1        0.0992
@<TRIPOS>BOND
     1    26    25    1
     2    25    24    1
     3    52    51    1
     4    36    34    1
     5    35    34    1
     6    54    51    1
     7    51    50    1
     8    34    24    1
     9    34    27    1
    10    24    20    1
    11    45    42    1
    12    50    41    1
    13    21    19    1
    14    53    32    1
    15    42    41   ar
    16    42    44   ar
    17    32    27    1
    18    32    31    1
    19    41    43   ar
    20    27    28    1
    21    20    19   ar
    22    20    17   ar
    23    19    16   ar
    24    13    10    1
    25    49    44    1
    26    44    47   ar
    27    43    31    1
    28    43    46   ar
    29    31    30    2
    30    28    17    1
    31    28    29    2
    32    17    15   ar
    33    11    10    1
    34     5     4   ar
    35     5     1   ar
    36    16     4    1
    37    16    14   ar
    38     4     3   ar
    39    10     9    1
    40    10    12    1
    41     2     1   ar
    42     2     3   ar
    43     2     7    1
    44     1     6    1
    45     3     9    1
    46     7     8    1
    47    47    46   ar
    48    47    56    1
    49    46    48    1
    50    30    29    1
    51    30    37    1
    52    15    14   ar
    53    15    18    1
    54    29    33    1
    55    14    22    1
    56    56    55    3
    57    39    37    1
    58    37    40    1
    59    37    38    1
    60    22    23    1
