@<TRIPOS>MOLECULE
mol_data/noopt/geoms/mol2/12fl12fl-.out
 26 27 0 0 0
SMALL
GASTEIGER

@<TRIPOS>ATOM
      1 C           0.1763    1.8460    0.0000 C.ar    1  LIG1        0.1379
      2 C           1.5558    1.8460    0.0000 C.ar    1  LIG1        0.1979
      3 C           1.9706    3.2334    0.0000 C.ar    1  LIG1        0.2109
      4 C           0.8165    3.9895   -0.0001 C.ar    1  LIG1        0.2186
      5 O          -0.3030    3.1567   -0.0002 O.2     1  LIG1       -0.4521
      6 H          -0.7504    0.9343    0.0000 H       1  LIG1        0.1069
      7 O           2.3515    0.8179    0.0001 O.3     1  LIG1       -0.5012
      8 H           3.2633    1.1184    0.0001 H       1  LIG1        0.2924
      9 O           3.1998    3.6567   -0.0000 O.3     1  LIG1       -0.4883
     10 C           4.0900    2.5376   -0.0001 C.3     1  LIG1        0.0791
     11 H           5.1015    2.8864   -0.0002 H       1  LIG1        0.0660
     12 H           3.9174    1.9445    0.8737 H       1  LIG1        0.0660
     13 H           3.9171    1.9444   -0.8736 H       1  LIG1        0.0660
     14 C           0.5416    5.2601   -0.0001 C.ar    1  LIG1        0.2184
     15 C          -0.6119    6.0167   -0.0001 C.ar    1  LIG1        0.2086
     16 C          -0.1979    7.4043   -0.0001 C.ar    1  LIG1        0.2002
     17 C           1.1818    7.4036   -0.0002 C.ar    1  LIG1        0.1381
     18 O           1.6612    6.0932   -0.0003 O.2     1  LIG1       -0.4521
     19 H           2.1085    8.3153   -0.0002 H       1  LIG1        0.1069
     20 O          -1.8411    5.5933   -0.0000 O.3     1  LIG1       -0.5007
     21 H          -1.8494    4.6334   -0.0000 H       1  LIG1        0.2924
     22 O          -0.9936    8.4324   -0.0001 O.3     1  LIG1       -0.4888
     23 C          -0.2197    9.6349   -0.0002 C.3     1  LIG1        0.0791
     24 H          -0.8750   10.4808   -0.0004 H       1  LIG1        0.0660
     25 H           0.3974    9.6619    0.8736 H       1  LIG1        0.0660
     26 H           0.3976    9.6617   -0.8737 H       1  LIG1        0.0660
@<TRIPOS>BOND
     1    26    23    1
     2    13    10    1
     3    24    23    1
     4    18    17   ar
     5    18    14   ar
     6    11    10    1
     7     5     4   ar
     8     5     1   ar
     9    23    22    1
    10    23    25    1
    11    17    19    1
    12    17    16   ar
    13    15    16   ar
    14    15    14   ar
    15    15    20    1
    16    22    16    1
    17    14     4    1
    18     4     3   ar
    19    10     9    1
    20    10    12    1
    21    20    21    1
    22     1     6    1
    23     1     2   ar
    24     9     3    1
    25     3     2   ar
    26     2     7    1
    27     7     8    1
