@<TRIPOS>MOLECULE
mol_data/noopt/geoms/mol2/12fl13ea4af-13le-.out
 49 49 0 0 0
SMALL
GASTEIGER

@<TRIPOS>ATOM
      1 C           0.1763    1.8460    0.0000 C.ar    1  LIG1        0.1378
      2 C           1.5558    1.8460    0.0000 C.ar    1  LIG1        0.1979
      3 C           1.9706    3.2334    0.0000 C.ar    1  LIG1        0.2091
      4 C           0.8165    3.9895   -0.0001 C.ar    1  LIG1        0.1972
      5 O          -0.3030    3.1567   -0.0002 O.2     1  LIG1       -0.4539
      6 H          -0.7504    0.9343    0.0000 H       1  LIG1        0.1069
      7 O           2.3515    0.8179    0.0001 O.3     1  LIG1       -0.5012
      8 H           3.2633    1.1184    0.0001 H       1  LIG1        0.2924
      9 O           3.1998    3.6567   -0.0000 O.3     1  LIG1       -0.4884
     10 C           4.0900    2.5376   -0.0001 C.3     1  LIG1        0.0791
     11 H           5.1015    2.8864   -0.0002 H       1  LIG1        0.0660
     12 H           3.9174    1.9445    0.8737 H       1  LIG1        0.0660
     13 H           3.9171    1.9444   -0.8736 H       1  LIG1        0.0660
     14 C           0.5416    5.2601   -0.0001 C.ar    1  LIG1        0.1019
     15 C           1.3660    6.3408    0.0161 C.ar    1  LIG1        0.0536
     16 C           0.5390    7.5098    0.0084 C.ar    1  LIG1       -0.0206
     17 C          -0.7545    7.0921   -0.0139 C.ar    1  LIG1        0.0446
     18 N          -0.7574    5.7154   -0.0188 N.ar    1  LIG1       -0.3509
     19 H          -1.5687    5.1413   -0.0340 H       1  LIG1        0.1660
     20 C           2.6656    6.3141    0.0365 C.1     1  LIG1       -0.0674
     21 C           3.8664    6.2893    0.0554 C.1     1  LIG1       -0.1138
     22 H           4.9360    6.2673    0.0722 H       1  LIG1        0.1232
     23 H           0.9462    8.7444    0.0202 H       1  LIG1        0.0651
     24 C          -1.8179    9.1832   -0.0142 C.3     1  LIG1        0.0011
     25 C          -3.0440    9.8759   -0.0293 C.3     2  LIG2        0.0000
     26 C          -1.8610    7.7741   -0.0284 C.2     1  LIG1       -0.0163
     27 C          -4.2604    9.1976   -0.0580 C.2     1  LIG1        0.0562
     28 H          -3.0336   10.9635   -0.0185 H       2  LIG2        0.0194
     29 C          -3.0751    7.0964   -0.0571 C.2     1  LIG1       -0.0141
     30 C          -4.2825    7.8024   -0.0721 C.2     1  LIG1        0.1271
     31 H          -3.0820    6.0094   -0.0675 H       1  LIG1        0.0658
     32 H          -0.7153    9.8714    0.0123 H       1  LIG1        0.0362
     33 O          -5.4144    7.1635   -0.0987 O.2     1  LIG1       -0.5061
     34 H          -5.2486    6.2180   -0.1053 H       1  LIG1        0.2922
     35 C          -5.3736    9.8689   -0.0714 C.ar    1  LIG1        0.0993
     36 C          -5.5949   11.2101   -0.0643 C.ar    1  LIG1        0.2194
     37 C          -7.0127   11.4098   -0.0856 C.ar    1  LIG1        0.0892
     38 C          -7.5955   10.1818   -0.1066 C.ar    1  LIG1        0.0215
     39 N          -6.5956    9.2356   -0.0975 N.ar    1  LIG1       -0.3563
     40 H          -6.7341    8.2513   -0.1087 H       1  LIG1        0.1655
     41 H          -8.8507    9.8441   -0.1304 H       1  LIG1        0.0820
     42 O          -4.6843   12.1377   -0.0408 O.3     1  LIG1       -0.2843
     43 C          -3.3880   11.5339   -0.0322 C.3     3  LIG3       -0.0776
     44 H          -2.6389   12.2977   -0.0130 H       2  LIG2        0.0194
     45 H          -3.2886   10.9150    0.8350 H       2  LIG2        0.0194
     46 H          -3.2666   10.9373   -0.9121 H       2  LIG2        0.0194
     47 C          -7.6320   12.5528   -0.0854 C.1     1  LIG1       -0.0643
     48 C          -8.2042   13.6090   -0.0853 C.1     1  LIG1       -0.1137
     49 H          -8.7140   14.5497   -0.0852 H       1  LIG1        0.1232
@<TRIPOS>BOND
     1    46    43    1
     2    13    10    1
     3    41    38    1
     4    40    39    1
     5    38    39   ar
     6    38    37   ar
     7    34    33    1
     8    33    30    1
     9    39    35   ar
    10    37    47    1
    11    37    36   ar
    12    47    48    3
    13    48    49    1
    14    30    27    2
    15    30    29    1
    16    35    36   ar
    17    35    27    1
    18    31    29    1
    19    36    42    1
    20    29    26    2
    21    19    18    1
    22    43    28    1
    23    43    44    1
    24    43    45    1
    25    26    24    1
    26    26    17    1
    27    18    17   ar
    28    18    14   ar
    29    24    32    1
    30    17    16   ar
    31    11    10    1
    32     5     4   ar
    33     5     1   ar
    34     4    14    1
    35     4     3   ar
    36    14    15   ar
    37    10     9    1
    38    10    12    1
    39     2     3   ar
    40     2     1   ar
    41     2     7    1
    42     3     9    1
    43     6     1    1
    44     7     8    1
    45    16    15   ar
    46    16    23    1
    47    15    20    1
    48    20    21    3
    49    21    22    1
