@<TRIPOS>MOLECULE
mol_data/noopt/geoms/mol2/12ga12ga-.out
 18 19 0 0 0
SMALL
GASTEIGER

@<TRIPOS>ATOM
      1 C           0.1763    1.8460    0.0000 C.ar    1  LIG1        0.1058
      2 C           1.5558    1.8460    0.0000 C.ar    1  LIG1        0.0433
      3 C           1.9706    3.2334    0.0000 C.ar    1  LIG1        0.0005
      4 C           0.8165    3.9895   -0.0001 C.ar    1  LIG1        0.1718
      5 O          -0.3030    3.1567   -0.0002 O.2     1  LIG1       -0.4587
      6 H          -0.7504    0.9343    0.0000 H       1  LIG1        0.1041
      7 S           2.3514    0.8180    0.0001 S.3     1  LIG1       -0.1396
      8 H           3.5956    1.2280    0.0001 H       1  LIG1        0.1072
      9 H           3.1998    3.6567    0.0000 H       1  LIG1        0.0667
     10 C           0.5416    5.2601   -0.0001 C.ar    1  LIG1        0.1827
     11 C           1.2792    6.4258   -0.0001 C.ar    1  LIG1        0.0537
     12 C           0.3286    7.5182   -0.0001 C.ar    1  LIG1       -0.0099
     13 C          -0.9274    6.9472   -0.0002 C.ar    1  LIG1        0.0938
     14 O          -0.8223    5.5559   -0.0003 O.2     1  LIG1       -0.4587
     15 H          -2.1481    7.3943   -0.0002 H       1  LIG1        0.1030
     16 S           2.5734    6.5485   -0.0000 S.3     1  LIG1       -0.1389
     17 H           2.8922    7.8191    0.0000 H       1  LIG1        0.1072
     18 H           0.6282    8.7832   -0.0001 H       1  LIG1        0.0660
@<TRIPOS>BOND
     1    14    13   ar
     2    14    10   ar
     3    15    13    1
     4     5     4   ar
     5     5     1   ar
     6    13    12   ar
     7    10    11   ar
     8    10     4    1
     9    18    12    1
    10    12    11   ar
    11    11    16    1
    12     4     3   ar
    13     9     3    1
    14     1     6    1
    15     1     2   ar
    16     3     2   ar
    17    16    17    1
    18     2     7    1
    19     7     8    1
