@<TRIPOS>MOLECULE
mol_data/noopt/geoms/mol2/12ga12ga-12ga-12ga-.out
 34 37 0 0 0
SMALL
GASTEIGER

@<TRIPOS>ATOM
      1 C           0.1763    1.8460    0.0000 C.ar    1  LIG1        0.1058
      2 C           1.5558    1.8460    0.0000 C.ar    1  LIG1        0.0433
      3 C           1.9706    3.2334    0.0000 C.ar    1  LIG1        0.0005
      4 C           0.8165    3.9895   -0.0001 C.ar    1  LIG1        0.1719
      5 O          -0.3030    3.1567   -0.0002 O.2     1  LIG1       -0.4587
      6 H          -0.7504    0.9343    0.0000 H       1  LIG1        0.1041
      7 S           2.3514    0.8180    0.0001 S.3     1  LIG1       -0.1396
      8 H           3.5956    1.2280    0.0001 H       1  LIG1        0.1072
      9 H           3.1998    3.6567    0.0000 H       1  LIG1        0.0667
     10 C           0.5416    5.2601   -0.0001 C.ar    1  LIG1        0.1838
     11 C           1.2792    6.4258   -0.0001 C.ar    1  LIG1        0.0544
     12 C           0.3286    7.5182   -0.0001 C.ar    1  LIG1        0.0012
     13 C          -0.9274    6.9472   -0.0002 C.ar    1  LIG1        0.1729
     14 O          -0.8223    5.5559   -0.0003 O.2     1  LIG1       -0.4475
     15 S           2.5734    6.5485   -0.0000 S.3     1  LIG1       -0.1389
     16 H           2.8922    7.8191    0.0000 H       1  LIG1        0.1072
     17 H           0.6282    8.7832   -0.0001 H       1  LIG1        0.0668
     18 C          -2.1481    7.3943   -0.0002 C.ar    1  LIG1        0.1838
     19 C          -2.7388    8.6409    0.0146 C.ar    1  LIG1        0.0544
     20 C          -4.1701    8.4218    0.0039 C.ar    1  LIG1        0.0012
     21 C          -4.3592    7.0552   -0.0168 C.ar    1  LIG1        0.1729
     22 O          -3.1273    6.4001   -0.0198 O.2     1  LIG1       -0.4475
     23 S          -2.1505    9.7999    0.0344 S.3     1  LIG1       -0.1389
     24 H          -3.0537   10.7487    0.0411 H       1  LIG1        0.1072
     25 H          -5.0790    9.3513    0.0125 H       1  LIG1        0.0668
     26 C          -5.3897    6.2629   -0.0336 C.ar    1  LIG1        0.1828
     27 C          -6.7589    6.4305   -0.0463 C.ar    1  LIG1        0.0537
     28 C          -7.3391    5.1038   -0.0627 C.ar    1  LIG1       -0.0099
     29 C          -6.2854    4.2132   -0.0590 C.ar    1  LIG1        0.0938
     30 O          -5.0731    4.9037   -0.0413 O.2     1  LIG1       -0.4587
     31 H          -6.1668    2.9186   -0.0680 H       1  LIG1        0.1030
     32 S          -7.4238    7.5476   -0.0442 S.3     1  LIG1       -0.1389
     33 H          -8.7086    7.2917   -0.0435 H       1  LIG1        0.1072
     34 H          -8.6105    4.8331   -0.0778 H       1  LIG1        0.0660
@<TRIPOS>BOND
     1    34    28    1
     2    31    29    1
     3    28    29   ar
     4    28    27   ar
     5    29    30   ar
     6    27    32    1
     7    27    26   ar
     8    32    33    1
     9    30    26   ar
    10    26    21    1
    11    22    21   ar
    12    22    18   ar
    13    21    20   ar
    14    14    13   ar
    15    14    10   ar
    16    18    13    1
    17    18    19   ar
    18    13    12   ar
    19     5     4   ar
    20     5     1   ar
    21    17    12    1
    22     4    10    1
    23     4     3   ar
    24    12    11   ar
    25    11    10   ar
    26    11    15    1
    27     2     3   ar
    28     2     1   ar
    29     2     7    1
    30     3     9    1
    31     6     1    1
    32    15    16    1
    33     7     8    1
    34    20    25    1
    35    20    19   ar
    36    19    23    1
    37    23    24    1
