@<TRIPOS>MOLECULE
mol_data/noopt/geoms/mol2/12ga12ga12ga-12ga-.out
 34 37 0 0 0
SMALL
GASTEIGER

@<TRIPOS>ATOM
      1 C           0.1763    1.8460    0.0000 C.ar    1  LIG1        0.1058
      2 C           1.5558    1.8460    0.0000 C.ar    1  LIG1        0.0433
      3 C           1.9706    3.2334    0.0000 C.ar    1  LIG1        0.0005
      4 C           0.8165    3.9895   -0.0001 C.ar    1  LIG1        0.1719
      5 O          -0.3030    3.1567   -0.0002 O.2     1  LIG1       -0.4587
      6 H          -0.7504    0.9343    0.0000 H       1  LIG1        0.1041
      7 S           2.3514    0.8180    0.0001 S.3     1  LIG1       -0.1396
      8 H           3.5956    1.2280    0.0001 H       1  LIG1        0.1072
      9 H           3.1998    3.6567    0.0000 H       1  LIG1        0.0667
     10 C           0.5416    5.2601   -0.0001 C.ar    1  LIG1        0.1838
     11 C           1.2791    6.4258    0.0147 C.ar    1  LIG1        0.0544
     12 C           0.3286    7.5182    0.0040 C.ar    1  LIG1        0.0012
     13 C          -0.9273    6.9473   -0.0167 C.ar    1  LIG1        0.1729
     14 O          -0.8221    5.5559   -0.0197 O.2     1  LIG1       -0.4475
     15 S           2.5731    6.5484    0.0345 S.3     1  LIG1       -0.1389
     16 H           2.8919    7.8190    0.0412 H       1  LIG1        0.1072
     17 H           0.6281    8.7832    0.0126 H       1  LIG1        0.0668
     18 C          -2.1478    7.3944   -0.0335 C.ar    1  LIG1        0.1838
     19 C          -2.7386    8.6410   -0.0314 C.ar    1  LIG1        0.0544
     20 C          -4.1697    8.4219   -0.0585 C.ar    1  LIG1        0.0012
     21 C          -4.3586    7.0553   -0.0754 C.ar    1  LIG1        0.1729
     22 O          -3.1268    6.4002   -0.0606 O.2     1  LIG1       -0.4475
     23 S          -2.1504    9.8001   -0.0096 S.3     1  LIG1       -0.1389
     24 H          -3.0539   10.7487   -0.0022 H       1  LIG1        0.1072
     25 H          -5.0785    9.3515   -0.0651 H       1  LIG1        0.0668
     26 C          -5.3889    6.2629   -0.1012 C.ar    1  LIG1        0.1828
     27 C          -6.7581    6.4304   -0.1207 C.ar    1  LIG1        0.0537
     28 C          -7.3380    5.1038   -0.1458 C.ar    1  LIG1       -0.0099
     29 C          -6.2842    4.2132   -0.1401 C.ar    1  LIG1        0.0938
     30 O          -5.0721    4.9038   -0.1128 O.2     1  LIG1       -0.4587
     31 H          -6.1654    2.9187   -0.1539 H       1  LIG1        0.1030
     32 S          -7.4231    7.5474   -0.1175 S.3     1  LIG1       -0.1389
     33 H          -8.7079    7.2913   -0.1165 H       1  LIG1        0.1072
     34 H          -8.6092    4.8329   -0.1691 H       1  LIG1        0.0660
@<TRIPOS>BOND
     1    34    28    1
     2    31    29    1
     3    28    29   ar
     4    28    27   ar
     5    29    30   ar
     6    27    32    1
     7    27    26   ar
     8    32    33    1
     9    30    26   ar
    10    26    21    1
    11    21    22   ar
    12    21    20   ar
    13    25    20    1
    14    22    18   ar
    15    20    19   ar
    16    18    19   ar
    17    18    13    1
    18    19    23    1
    19    14    13   ar
    20    14    10   ar
    21    13    12   ar
    22    23    24    1
    23     5     4   ar
    24     5     1   ar
    25     4    10    1
    26     4     3   ar
    27    10    11   ar
    28     1     6    1
    29     1     2   ar
    30     3     9    1
    31     3     2   ar
    32     2     7    1
    33     7     8    1
    34    12    17    1
    35    12    11   ar
    36    11    15    1
    37    15    16    1
