@<TRIPOS>MOLECULE
mol_data/noopt/geoms/mol2/12ga12ga12ga12ga.out
 34 37 0 0 0
SMALL
GASTEIGER

@<TRIPOS>ATOM
      1 C           0.1763    1.8460    0.0000 C.ar    1  LIG1        0.1058
      2 C           1.5558    1.8460    0.0000 C.ar    1  LIG1        0.0433
      3 C           1.9706    3.2334    0.0000 C.ar    1  LIG1        0.0005
      4 C           0.8165    3.9895   -0.0001 C.ar    1  LIG1        0.1719
      5 O          -0.3030    3.1567   -0.0002 O.2     1  LIG1       -0.4587
      6 H          -0.7504    0.9343    0.0000 H       1  LIG1        0.1041
      7 S           2.3514    0.8180    0.0001 S.3     1  LIG1       -0.1396
      8 H           3.5956    1.2280    0.0001 H       1  LIG1        0.1072
      9 H           3.1998    3.6567    0.0000 H       1  LIG1        0.0667
     10 C           0.5416    5.2601   -0.0001 C.ar    1  LIG1        0.1838
     11 C           1.2791    6.4258    0.0147 C.ar    1  LIG1        0.0544
     12 C           0.3286    7.5182    0.0040 C.ar    1  LIG1        0.0012
     13 C          -0.9273    6.9473   -0.0167 C.ar    1  LIG1        0.1729
     14 O          -0.8221    5.5559   -0.0197 O.2     1  LIG1       -0.4475
     15 S           2.5731    6.5484    0.0345 S.3     1  LIG1       -0.1389
     16 H           2.8919    7.8190    0.0412 H       1  LIG1        0.1072
     17 H           0.6281    8.7832    0.0126 H       1  LIG1        0.0668
     18 C          -2.1478    7.3944   -0.0335 C.ar    1  LIG1        0.1838
     19 C          -2.7383    8.6411   -0.0462 C.ar    1  LIG1        0.0544
     20 C          -4.1697    8.4219   -0.0626 C.ar    1  LIG1        0.0012
     21 C          -4.3589    7.0552   -0.0589 C.ar    1  LIG1        0.1729
     22 O          -3.1271    6.4001   -0.0412 O.2     1  LIG1       -0.4475
     23 S          -2.1499    9.8002   -0.0441 S.3     1  LIG1       -0.1389
     24 H          -3.0531   10.7491   -0.0434 H       1  LIG1        0.1072
     25 H          -5.0783    9.3515   -0.0777 H       1  LIG1        0.0668
     26 C          -5.3894    6.2628   -0.0679 C.ar    1  LIG1        0.1828
     27 C          -6.7587    6.4302   -0.0599 C.ar    1  LIG1        0.0537
     28 C          -7.3389    5.1036   -0.0793 C.ar    1  LIG1       -0.0099
     29 C          -6.2851    4.2131   -0.0980 C.ar    1  LIG1        0.0938
     30 O          -5.0728    4.9038   -0.0915 O.2     1  LIG1       -0.4587
     31 H          -6.1665    2.9187   -0.1196 H       1  LIG1        0.1030
     32 S          -7.4236    7.5470   -0.0390 S.3     1  LIG1       -0.1389
     33 H          -8.7084    7.2909   -0.0320 H       1  LIG1        0.1072
     34 H          -8.6103    4.8326   -0.0789 H       1  LIG1        0.0660
@<TRIPOS>BOND
     1    31    29    1
     2    29    30   ar
     3    29    28   ar
     4    30    26   ar
     5    28    34    1
     6    28    27   ar
     7    25    20    1
     8    26    27   ar
     9    26    21    1
    10    20    21   ar
    11    20    19   ar
    12    27    32    1
    13    21    22   ar
    14    19    23    1
    15    19    18   ar
    16    23    24    1
    17    22    18   ar
    18    32    33    1
    19    18    13    1
    20    14    13   ar
    21    14    10   ar
    22    13    12   ar
    23     5     4   ar
    24     5     1   ar
    25     4    10    1
    26     4     3   ar
    27    10    11   ar
    28     9     3    1
    29     2     3   ar
    30     2     1   ar
    31     2     7    1
    32     6     1    1
    33     7     8    1
    34    12    17    1
    35    12    11   ar
    36    11    15    1
    37    15    16    1
