@<TRIPOS>MOLECULE
mol_data/noopt/geoms/mol2/12ga12ga-12ga-.out
 26 28 0 0 0
SMALL
GASTEIGER

@<TRIPOS>ATOM
      1 C           0.1763    1.8460    0.0000 C.ar    1  LIG1        0.1058
      2 C           1.5558    1.8460    0.0000 C.ar    1  LIG1        0.0433
      3 C           1.9706    3.2334    0.0000 C.ar    1  LIG1        0.0005
      4 C           0.8165    3.9895   -0.0001 C.ar    1  LIG1        0.1719
      5 O          -0.3030    3.1567   -0.0002 O.2     1  LIG1       -0.4587
      6 H          -0.7504    0.9343    0.0000 H       1  LIG1        0.1041
      7 S           2.3514    0.8180    0.0001 S.3     1  LIG1       -0.1396
      8 H           3.5956    1.2280    0.0001 H       1  LIG1        0.1072
      9 H           3.1998    3.6567    0.0000 H       1  LIG1        0.0667
     10 C           0.5416    5.2601   -0.0001 C.ar    1  LIG1        0.1838
     11 C           1.2792    6.4258   -0.0001 C.ar    1  LIG1        0.0544
     12 C           0.3286    7.5182   -0.0001 C.ar    1  LIG1        0.0012
     13 C          -0.9274    6.9472   -0.0002 C.ar    1  LIG1        0.1729
     14 O          -0.8223    5.5559   -0.0003 O.2     1  LIG1       -0.4475
     15 S           2.5734    6.5485   -0.0000 S.3     1  LIG1       -0.1389
     16 H           2.8922    7.8191    0.0000 H       1  LIG1        0.1072
     17 H           0.6282    8.7832   -0.0001 H       1  LIG1        0.0668
     18 C          -2.1481    7.3943   -0.0002 C.ar    1  LIG1        0.1828
     19 C          -2.7388    8.6409    0.0146 C.ar    1  LIG1        0.0537
     20 C          -4.1701    8.4218    0.0039 C.ar    1  LIG1       -0.0099
     21 C          -4.3592    7.0552   -0.0168 C.ar    1  LIG1        0.0938
     22 O          -3.1273    6.4001   -0.0198 O.2     1  LIG1       -0.4587
     23 H          -5.3897    6.2629   -0.0336 H       1  LIG1        0.1030
     24 S          -2.1505    9.7999    0.0344 S.3     1  LIG1       -0.1389
     25 H          -3.0537   10.7487    0.0411 H       1  LIG1        0.1072
     26 H          -5.0790    9.3513    0.0125 H       1  LIG1        0.0660
@<TRIPOS>BOND
     1    23    21    1
     2    22    21   ar
     3    22    18   ar
     4    21    20   ar
     5    14    13   ar
     6    14    10   ar
     7     5     4   ar
     8     5     1   ar
     9    18    13    1
    10    18    19   ar
    11    13    12   ar
    12     4    10    1
    13     4     3   ar
    14    17    12    1
    15    10    11   ar
    16    11    12   ar
    17    11    15    1
    18     1     6    1
    19     1     2   ar
    20    15    16    1
    21     9     3    1
    22     3     2   ar
    23     2     7    1
    24     7     8    1
    25    20    26    1
    26    20    19   ar
    27    19    24    1
    28    24    25    1
