@<TRIPOS>MOLECULE
mol_data/noopt/geoms/mol2/12gd12gd12gd-12gd-.out
 38 41 0 0 0
SMALL
GASTEIGER

@<TRIPOS>ATOM
      1 C           0.1763    1.8460    0.0000 C.ar    1  LIG1        0.1071
      2 C           1.5558    1.8460    0.0000 C.ar    1  LIG1        0.0607
      3 C           1.9706    3.2334    0.0000 C.ar    1  LIG1        0.1136
      4 C           0.8165    3.9895   -0.0001 C.ar    1  LIG1        0.1892
      5 O          -0.3030    3.1567   -0.0002 O.2     1  LIG1       -0.4573
      6 H          -0.7504    0.9343    0.0000 H       1  LIG1        0.1041
      7 S           2.3514    0.8180    0.0001 S.3     1  LIG1       -0.1383
      8 H           3.5956    1.2280    0.0001 H       1  LIG1        0.1072
      9 N           4.2839    4.0300    0.0000 N.1     1  LIG1       -0.1907
     10 C           3.1998    3.6567    0.0000 C.1     1  LIG1        0.1042
     11 C           0.5416    5.2601   -0.0001 C.ar    1  LIG1        0.1864
     12 C           1.2791    6.4258    0.0147 C.ar    1  LIG1        0.0719
     13 C           0.3286    7.5182    0.0040 C.ar    1  LIG1        0.1144
     14 C          -0.9273    6.9473   -0.0167 C.ar    1  LIG1        0.1902
     15 O          -0.8221    5.5559   -0.0197 O.2     1  LIG1       -0.4461
     16 S           2.5731    6.5484    0.0345 S.3     1  LIG1       -0.1376
     17 H           2.8919    7.8190    0.0412 H       1  LIG1        0.1073
     18 N           0.8923    9.8989    0.0201 N.1     1  LIG1       -0.1907
     19 C           0.6281    8.7832    0.0126 C.1     1  LIG1        0.1042
     20 C          -2.1478    7.3944   -0.0335 C.ar    1  LIG1        0.1864
     21 C          -2.7386    8.6410   -0.0314 C.ar    1  LIG1        0.0719
     22 C          -4.1697    8.4219   -0.0585 C.ar    1  LIG1        0.1144
     23 C          -4.3586    7.0553   -0.0754 C.ar    1  LIG1        0.1902
     24 O          -3.1268    6.4002   -0.0606 O.2     1  LIG1       -0.4461
     25 S          -2.1504    9.8001   -0.0096 S.3     1  LIG1       -0.1376
     26 H          -3.0539   10.7487   -0.0022 H       1  LIG1        0.1073
     27 N          -5.8801   10.1713   -0.0709 N.1     1  LIG1       -0.1907
     28 C          -5.0785    9.3515   -0.0651 C.1     1  LIG1        0.1042
     29 C          -5.3889    6.2629   -0.1012 C.ar    1  LIG1        0.1854
     30 C          -6.7581    6.4304   -0.1207 C.ar    1  LIG1        0.0712
     31 C          -7.3380    5.1038   -0.1458 C.ar    1  LIG1        0.1033
     32 C          -6.2842    4.2132   -0.1401 C.ar    1  LIG1        0.1112
     33 O          -5.0721    4.9038   -0.1128 O.2     1  LIG1       -0.4573
     34 H          -6.1654    2.9187   -0.1539 H       1  LIG1        0.1043
     35 S          -7.4231    7.5474   -0.1175 S.3     1  LIG1       -0.1376
     36 H          -8.7079    7.2913   -0.1165 H       1  LIG1        0.1073
     37 N          -9.7305    4.5940   -0.1896 N.1     1  LIG1       -0.1907
     38 C          -8.6092    4.8329   -0.1691 C.1     1  LIG1        0.1034
@<TRIPOS>BOND
     1    37    38    3
     2    38    31    1
     3    34    32    1
     4    31    32   ar
     5    31    30   ar
     6    32    33   ar
     7    30    35    1
     8    30    29   ar
     9    35    36    1
    10    33    29   ar
    11    29    23    1
    12    23    24   ar
    13    23    22   ar
    14    27    28    3
    15    28    22    1
    16    24    20   ar
    17    22    21   ar
    18    20    21   ar
    19    20    14    1
    20    21    25    1
    21    15    14   ar
    22    15    11   ar
    23    14    13   ar
    24    25    26    1
    25     5     4   ar
    26     5     1   ar
    27     4    11    1
    28     4     3   ar
    29    11    12   ar
    30     3     2   ar
    31     3    10    1
    32     1     2   ar
    33     1     6    1
    34     2     7    1
    35    10     9    3
    36     7     8    1
    37    13    19    1
    38    13    12   ar
    39    19    18    3
    40    12    16    1
    41    16    17    1
