@<TRIPOS>MOLECULE
mol_data/noopt/geoms/mol2/12gd12gd-12gd-12gd.out
 38 41 0 0 0
SMALL
GASTEIGER

@<TRIPOS>ATOM
      1 C           0.1763    1.8460    0.0000 C.ar    1  LIG1        0.1071
      2 C           1.5558    1.8460    0.0000 C.ar    1  LIG1        0.0607
      3 C           1.9706    3.2334    0.0000 C.ar    1  LIG1        0.1136
      4 C           0.8165    3.9895   -0.0001 C.ar    1  LIG1        0.1892
      5 O          -0.3030    3.1567   -0.0002 O.2     1  LIG1       -0.4573
      6 H          -0.7504    0.9343    0.0000 H       1  LIG1        0.1041
      7 S           2.3514    0.8180    0.0001 S.3     1  LIG1       -0.1383
      8 H           3.5956    1.2280    0.0001 H       1  LIG1        0.1072
      9 N           4.2839    4.0300    0.0000 N.1     1  LIG1       -0.1907
     10 C           3.1998    3.6567    0.0000 C.1     1  LIG1        0.1042
     11 C           0.5416    5.2601   -0.0001 C.ar    1  LIG1        0.1864
     12 C           1.2792    6.4258   -0.0001 C.ar    1  LIG1        0.0719
     13 C           0.3286    7.5182   -0.0001 C.ar    1  LIG1        0.1144
     14 C          -0.9274    6.9472   -0.0002 C.ar    1  LIG1        0.1902
     15 O          -0.8223    5.5559   -0.0003 O.2     1  LIG1       -0.4461
     16 S           2.5734    6.5485   -0.0000 S.3     1  LIG1       -0.1376
     17 H           2.8922    7.8191    0.0000 H       1  LIG1        0.1073
     18 N           0.8924    9.8990   -0.0001 N.1     1  LIG1       -0.1907
     19 C           0.6282    8.7832   -0.0001 C.1     1  LIG1        0.1042
     20 C          -2.1481    7.3943   -0.0002 C.ar    1  LIG1        0.1864
     21 C          -2.7388    8.6409    0.0146 C.ar    1  LIG1        0.0719
     22 C          -4.1701    8.4218    0.0039 C.ar    1  LIG1        0.1144
     23 C          -4.3592    7.0552   -0.0168 C.ar    1  LIG1        0.1902
     24 O          -3.1273    6.4001   -0.0198 O.2     1  LIG1       -0.4461
     25 S          -2.1505    9.7999    0.0344 S.3     1  LIG1       -0.1376
     26 H          -3.0537   10.7487    0.0411 H       1  LIG1        0.1073
     27 N          -5.8806   10.1711    0.0200 N.1     1  LIG1       -0.1907
     28 C          -5.0790    9.3513    0.0125 C.1     1  LIG1        0.1042
     29 C          -5.3897    6.2629   -0.0336 C.ar    1  LIG1        0.1854
     30 C          -6.7590    6.4303   -0.0315 C.ar    1  LIG1        0.0712
     31 C          -7.3391    5.1038   -0.0586 C.ar    1  LIG1        0.1033
     32 C          -6.2853    4.2134   -0.0755 C.ar    1  LIG1        0.1112
     33 O          -5.0730    4.9040   -0.0607 O.2     1  LIG1       -0.4573
     34 H          -6.1666    2.9191   -0.1013 H       1  LIG1        0.1043
     35 S          -7.4240    7.5471   -0.0097 S.3     1  LIG1       -0.1376
     36 H          -8.7087    7.2909   -0.0023 H       1  LIG1        0.1073
     37 N          -9.7320    4.5939   -0.0710 N.1     1  LIG1       -0.1907
     38 C          -8.6106    4.8329   -0.0652 C.1     1  LIG1        0.1034
@<TRIPOS>BOND
     1    34    32    1
     2    32    33   ar
     3    32    31   ar
     4    37    38    3
     5    38    31    1
     6    33    29   ar
     7    31    30   ar
     8    29    30   ar
     9    29    23    1
    10    30    35    1
    11    24    23   ar
    12    24    20   ar
    13    23    22   ar
    14    35    36    1
    15    15    14   ar
    16    15    11   ar
    17    20    14    1
    18    20    21   ar
    19    14    13   ar
    20     5     4   ar
    21     5     1   ar
    22    18    19    3
    23    19    13    1
    24     4    11    1
    25     4     3   ar
    26    13    12   ar
    27    12    11   ar
    28    12    16    1
    29     2     3   ar
    30     2     1   ar
    31     2     7    1
    32     3    10    1
    33     6     1    1
    34     9    10    3
    35    16    17    1
    36     7     8    1
    37    22    28    1
    38    22    21   ar
    39    28    27    3
    40    21    25    1
    41    25    26    1
