@<TRIPOS>MOLECULE
mol_data/noopt/geoms/mol2/12gd12gd-12gd.out
 29 31 0 0 0
SMALL
GASTEIGER

@<TRIPOS>ATOM
      1 C           0.1763    1.8460    0.0000 C.ar    1  LIG1        0.1071
      2 C           1.5558    1.8460    0.0000 C.ar    1  LIG1        0.0607
      3 C           1.9706    3.2334    0.0000 C.ar    1  LIG1        0.1136
      4 C           0.8165    3.9895   -0.0001 C.ar    1  LIG1        0.1892
      5 O          -0.3030    3.1567   -0.0002 O.2     1  LIG1       -0.4573
      6 H          -0.7504    0.9343    0.0000 H       1  LIG1        0.1041
      7 S           2.3514    0.8180    0.0001 S.3     1  LIG1       -0.1383
      8 H           3.5956    1.2280    0.0001 H       1  LIG1        0.1072
      9 N           4.2839    4.0300    0.0000 N.1     1  LIG1       -0.1907
     10 C           3.1998    3.6567    0.0000 C.1     1  LIG1        0.1042
     11 C           0.5416    5.2601   -0.0001 C.ar    1  LIG1        0.1864
     12 C           1.2792    6.4258   -0.0001 C.ar    1  LIG1        0.0719
     13 C           0.3286    7.5182   -0.0001 C.ar    1  LIG1        0.1144
     14 C          -0.9274    6.9472   -0.0002 C.ar    1  LIG1        0.1902
     15 O          -0.8223    5.5559   -0.0003 O.2     1  LIG1       -0.4461
     16 S           2.5734    6.5485   -0.0000 S.3     1  LIG1       -0.1376
     17 H           2.8922    7.8191    0.0000 H       1  LIG1        0.1073
     18 N           0.8924    9.8990   -0.0001 N.1     1  LIG1       -0.1907
     19 C           0.6282    8.7832   -0.0001 C.1     1  LIG1        0.1042
     20 C          -2.1481    7.3943   -0.0002 C.ar    1  LIG1        0.1854
     21 C          -2.7387    8.6410   -0.0002 C.ar    1  LIG1        0.0712
     22 C          -4.1701    8.4218   -0.0002 C.ar    1  LIG1        0.1033
     23 C          -4.3593    7.0551   -0.0003 C.ar    1  LIG1        0.1112
     24 O          -3.1273    6.4000   -0.0004 O.2     1  LIG1       -0.4573
     25 H          -5.3898    6.2627   -0.0003 H       1  LIG1        0.1043
     26 S          -2.1504    9.8002   -0.0001 S.3     1  LIG1       -0.1376
     27 H          -3.0536   10.7490   -0.0001 H       1  LIG1        0.1073
     28 N          -5.8805   10.1712   -0.0002 N.1     1  LIG1       -0.1907
     29 C          -5.0789    9.3514   -0.0002 C.1     1  LIG1        0.1034
@<TRIPOS>BOND
     1    24    23   ar
     2    24    20   ar
     3    25    23    1
     4    23    22   ar
     5    15    14   ar
     6    15    11   ar
     7    29    28    3
     8    29    22    1
     9    22    21   ar
    10    21    20   ar
    11    21    26    1
    12    20    14    1
    13    14    13   ar
    14     5     4   ar
    15     5     1   ar
    16    12    13   ar
    17    12    11   ar
    18    12    16    1
    19    13    19    1
    20    11     4    1
    21    26    27    1
    22    18    19    3
    23     4     3   ar
    24     1     2   ar
    25     1     6    1
    26     2     3   ar
    27     2     7    1
    28     3    10    1
    29    16    17    1
    30     9    10    3
    31     7     8    1
