@<TRIPOS>MOLECULE
mol_data/noopt/geoms/mol2/12gd12gd-.out
 20 21 0 0 0
SMALL
GASTEIGER

@<TRIPOS>ATOM
      1 C           0.1763    1.8460    0.0000 C.ar    1  LIG1        0.1071
      2 C           1.5558    1.8460    0.0000 C.ar    1  LIG1        0.0607
      3 C           1.9706    3.2334    0.0000 C.ar    1  LIG1        0.1136
      4 C           0.8165    3.9895   -0.0001 C.ar    1  LIG1        0.1892
      5 O          -0.3030    3.1567   -0.0002 O.2     1  LIG1       -0.4573
      6 H          -0.7504    0.9343    0.0000 H       1  LIG1        0.1041
      7 S           2.3514    0.8180    0.0001 S.3     1  LIG1       -0.1383
      8 H           3.5956    1.2280    0.0001 H       1  LIG1        0.1072
      9 N           4.2839    4.0300    0.0000 N.1     1  LIG1       -0.1907
     10 C           3.1998    3.6567    0.0000 C.1     1  LIG1        0.1042
     11 C           0.5416    5.2601   -0.0001 C.ar    1  LIG1        0.1853
     12 C           1.2792    6.4258   -0.0001 C.ar    1  LIG1        0.0712
     13 C           0.3286    7.5182   -0.0001 C.ar    1  LIG1        0.1033
     14 C          -0.9274    6.9472   -0.0002 C.ar    1  LIG1        0.1112
     15 O          -0.8223    5.5559   -0.0003 O.2     1  LIG1       -0.4573
     16 H          -2.1481    7.3943   -0.0002 H       1  LIG1        0.1043
     17 S           2.5734    6.5485   -0.0000 S.3     1  LIG1       -0.1376
     18 H           2.8922    7.8191    0.0000 H       1  LIG1        0.1073
     19 N           0.8924    9.8990   -0.0001 N.1     1  LIG1       -0.1907
     20 C           0.6282    8.7832   -0.0001 C.1     1  LIG1        0.1034
@<TRIPOS>BOND
     1    15    14   ar
     2    15    11   ar
     3    16    14    1
     4     5     4   ar
     5     5     1   ar
     6    14    13   ar
     7    11    12   ar
     8    11     4    1
     9    20    19    3
    10    20    13    1
    11    13    12   ar
    12    12    17    1
    13     4     3   ar
    14    10     9    3
    15    10     3    1
    16     1     6    1
    17     1     2   ar
    18    17    18    1
    19     3     2   ar
    20     2     7    1
    21     7     8    1
