@<TRIPOS>MOLECULE
mol_data/noopt/geoms/mol2/12gd12gd-12gd12gd.out
 38 41 0 0 0
SMALL
GASTEIGER

@<TRIPOS>ATOM
      1 C           0.1763    1.8460    0.0000 C.ar    1  LIG1        0.1071
      2 C           1.5558    1.8460    0.0000 C.ar    1  LIG1        0.0607
      3 C           1.9706    3.2334    0.0000 C.ar    1  LIG1        0.1136
      4 C           0.8165    3.9895   -0.0001 C.ar    1  LIG1        0.1892
      5 O          -0.3030    3.1567   -0.0002 O.2     1  LIG1       -0.4573
      6 H          -0.7504    0.9343    0.0000 H       1  LIG1        0.1041
      7 S           2.3514    0.8180    0.0001 S.3     1  LIG1       -0.1383
      8 H           3.5956    1.2280    0.0001 H       1  LIG1        0.1072
      9 N           4.2839    4.0300    0.0000 N.1     1  LIG1       -0.1907
     10 C           3.1998    3.6567    0.0000 C.1     1  LIG1        0.1042
     11 C           0.5416    5.2601   -0.0001 C.ar    1  LIG1        0.1864
     12 C           1.2792    6.4258   -0.0001 C.ar    1  LIG1        0.0719
     13 C           0.3286    7.5182   -0.0001 C.ar    1  LIG1        0.1144
     14 C          -0.9274    6.9472   -0.0002 C.ar    1  LIG1        0.1902
     15 O          -0.8223    5.5559   -0.0003 O.2     1  LIG1       -0.4461
     16 S           2.5734    6.5485   -0.0000 S.3     1  LIG1       -0.1376
     17 H           2.8922    7.8191    0.0000 H       1  LIG1        0.1073
     18 N           0.8924    9.8990   -0.0001 N.1     1  LIG1       -0.1907
     19 C           0.6282    8.7832   -0.0001 C.1     1  LIG1        0.1042
     20 C          -2.1481    7.3943   -0.0002 C.ar    1  LIG1        0.1864
     21 C          -2.7387    8.6410   -0.0002 C.ar    1  LIG1        0.0719
     22 C          -4.1701    8.4218   -0.0002 C.ar    1  LIG1        0.1144
     23 C          -4.3593    7.0551   -0.0003 C.ar    1  LIG1        0.1902
     24 O          -3.1273    6.4000   -0.0004 O.2     1  LIG1       -0.4461
     25 S          -2.1504    9.8002   -0.0001 S.3     1  LIG1       -0.1376
     26 H          -3.0536   10.7490   -0.0001 H       1  LIG1        0.1073
     27 N          -5.8805   10.1712   -0.0002 N.1     1  LIG1       -0.1907
     28 C          -5.0789    9.3514   -0.0002 C.1     1  LIG1        0.1042
     29 C          -5.3898    6.2627   -0.0003 C.ar    1  LIG1        0.1854
     30 C          -6.7590    6.4301    0.0145 C.ar    1  LIG1        0.0712
     31 C          -7.3393    5.1034    0.0038 C.ar    1  LIG1        0.1033
     32 C          -6.2856    4.2129   -0.0169 C.ar    1  LIG1        0.1112
     33 O          -5.0733    4.9036   -0.0199 O.2     1  LIG1       -0.4573
     34 H          -6.1671    2.9184   -0.0337 H       1  LIG1        0.1043
     35 S          -7.4239    7.5470    0.0343 S.3     1  LIG1       -0.1376
     36 H          -8.7086    7.2910    0.0410 H       1  LIG1        0.1073
     37 N          -9.7321    4.5934    0.0199 N.1     1  LIG1       -0.1907
     38 C          -8.6107    4.8324    0.0124 C.1     1  LIG1        0.1034
@<TRIPOS>BOND
     1    34    32    1
     2    33    32   ar
     3    33    29   ar
     4    32    31   ar
     5    24    23   ar
     6    24    20   ar
     7    23    29    1
     8    23    22   ar
     9    29    30   ar
    10    15    14   ar
    11    15    11   ar
    12    27    28    3
    13    14    20    1
    14    14    13   ar
    15    20    21   ar
    16    21    22   ar
    17    21    25    1
    18    22    28    1
    19     5     4   ar
    20     5     1   ar
    21    19    18    3
    22    19    13    1
    23    12    13   ar
    24    12    11   ar
    25    12    16    1
    26    25    26    1
    27    11     4    1
    28     4     3   ar
    29     1     6    1
    30     1     2   ar
    31    16    17    1
    32    10     9    3
    33    10     3    1
    34     3     2   ar
    35     2     7    1
    36     7     8    1
    37    31    38    1
    38    31    30   ar
    39    38    37    3
    40    30    35    1
    41    35    36    1
