@<TRIPOS>MOLECULE
mol_data/noopt/geoms/mol2/12gd12gd12gd12gd-.out
 38 41 0 0 0
SMALL
GASTEIGER

@<TRIPOS>ATOM
      1 C           0.1763    1.8460    0.0000 C.ar    1  LIG1        0.1071
      2 C           1.5558    1.8460    0.0000 C.ar    1  LIG1        0.0607
      3 C           1.9706    3.2334    0.0000 C.ar    1  LIG1        0.1136
      4 C           0.8165    3.9895   -0.0001 C.ar    1  LIG1        0.1892
      5 O          -0.3030    3.1567   -0.0002 O.2     1  LIG1       -0.4573
      6 H          -0.7504    0.9343    0.0000 H       1  LIG1        0.1041
      7 S           2.3514    0.8180    0.0001 S.3     1  LIG1       -0.1383
      8 H           3.5956    1.2280    0.0001 H       1  LIG1        0.1072
      9 N           4.2839    4.0300    0.0000 N.1     1  LIG1       -0.1907
     10 C           3.1998    3.6567    0.0000 C.1     1  LIG1        0.1042
     11 C           0.5416    5.2601   -0.0001 C.ar    1  LIG1        0.1864
     12 C           1.2791    6.4258    0.0147 C.ar    1  LIG1        0.0719
     13 C           0.3286    7.5182    0.0040 C.ar    1  LIG1        0.1144
     14 C          -0.9273    6.9473   -0.0167 C.ar    1  LIG1        0.1902
     15 O          -0.8221    5.5559   -0.0197 O.2     1  LIG1       -0.4461
     16 S           2.5731    6.5484    0.0345 S.3     1  LIG1       -0.1376
     17 H           2.8919    7.8190    0.0412 H       1  LIG1        0.1073
     18 N           0.8923    9.8989    0.0201 N.1     1  LIG1       -0.1907
     19 C           0.6281    8.7832    0.0126 C.1     1  LIG1        0.1042
     20 C          -2.1478    7.3944   -0.0335 C.ar    1  LIG1        0.1864
     21 C          -2.7383    8.6411   -0.0462 C.ar    1  LIG1        0.0719
     22 C          -4.1697    8.4219   -0.0626 C.ar    1  LIG1        0.1144
     23 C          -4.3589    7.0552   -0.0589 C.ar    1  LIG1        0.1902
     24 O          -3.1271    6.4001   -0.0412 O.2     1  LIG1       -0.4461
     25 S          -2.1499    9.8002   -0.0441 S.3     1  LIG1       -0.1376
     26 H          -3.0531   10.7491   -0.0434 H       1  LIG1        0.1073
     27 N          -5.8798   10.1714   -0.0911 N.1     1  LIG1       -0.1907
     28 C          -5.0783    9.3515   -0.0777 C.1     1  LIG1        0.1042
     29 C          -5.3894    6.2628   -0.0679 C.ar    1  LIG1        0.1854
     30 C          -6.7587    6.4303   -0.0747 C.ar    1  LIG1        0.0712
     31 C          -7.3389    5.1036   -0.0834 C.ar    1  LIG1        0.1033
     32 C          -6.2851    4.2130   -0.0815 C.ar    1  LIG1        0.1112
     33 O          -5.0728    4.9036   -0.0721 O.2     1  LIG1       -0.4573
     34 H          -6.1665    2.9184   -0.0863 H       1  LIG1        0.1043
     35 S          -7.4236    7.5474   -0.0735 S.3     1  LIG1       -0.1376
     36 H          -8.7084    7.2915   -0.0731 H       1  LIG1        0.1073
     37 N          -9.7317    4.5938   -0.0987 N.1     1  LIG1       -0.1907
     38 C          -8.6103    4.8327   -0.0916 C.1     1  LIG1        0.1034
@<TRIPOS>BOND
     1    37    38    3
     2    38    31    1
     3    27    28    3
     4    34    32    1
     5    31    32   ar
     6    31    30   ar
     7    32    33   ar
     8    28    22    1
     9    30    35    1
    10    30    29   ar
    11    35    36    1
    12    33    29   ar
    13    29    23    1
    14    22    23   ar
    15    22    21   ar
    16    23    24   ar
    17    21    25    1
    18    21    20   ar
    19    25    26    1
    20    24    20   ar
    21    20    14    1
    22    15    14   ar
    23    15    11   ar
    24    14    13   ar
    25     5     4   ar
    26     5     1   ar
    27     4    11    1
    28     4     3   ar
    29    11    12   ar
    30     2     1   ar
    31     2     3   ar
    32     2     7    1
    33     1     6    1
    34     3    10    1
    35     9    10    3
    36     7     8    1
    37    13    19    1
    38    13    12   ar
    39    19    18    3
    40    12    16    1
    41    16    17    1
