@<TRIPOS>MOLECULE
mol_data/noopt/geoms/mol2/12gd12gd12gd-.out
 29 31 0 0 0
SMALL
GASTEIGER

@<TRIPOS>ATOM
      1 C           0.1763    1.8460    0.0000 C.ar    1  LIG1        0.1071
      2 C           1.5558    1.8460    0.0000 C.ar    1  LIG1        0.0607
      3 C           1.9706    3.2334    0.0000 C.ar    1  LIG1        0.1136
      4 C           0.8165    3.9895   -0.0001 C.ar    1  LIG1        0.1892
      5 O          -0.3030    3.1567   -0.0002 O.2     1  LIG1       -0.4573
      6 H          -0.7504    0.9343    0.0000 H       1  LIG1        0.1041
      7 S           2.3514    0.8180    0.0001 S.3     1  LIG1       -0.1383
      8 H           3.5956    1.2280    0.0001 H       1  LIG1        0.1072
      9 N           4.2839    4.0300    0.0000 N.1     1  LIG1       -0.1907
     10 C           3.1998    3.6567    0.0000 C.1     1  LIG1        0.1042
     11 C           0.5416    5.2601   -0.0001 C.ar    1  LIG1        0.1864
     12 C           1.2791    6.4258    0.0147 C.ar    1  LIG1        0.0719
     13 C           0.3286    7.5182    0.0040 C.ar    1  LIG1        0.1144
     14 C          -0.9273    6.9473   -0.0167 C.ar    1  LIG1        0.1902
     15 O          -0.8221    5.5559   -0.0197 O.2     1  LIG1       -0.4461
     16 S           2.5731    6.5484    0.0345 S.3     1  LIG1       -0.1376
     17 H           2.8919    7.8190    0.0412 H       1  LIG1        0.1073
     18 N           0.8923    9.8989    0.0201 N.1     1  LIG1       -0.1907
     19 C           0.6281    8.7832    0.0126 C.1     1  LIG1        0.1042
     20 C          -2.1478    7.3944   -0.0335 C.ar    1  LIG1        0.1854
     21 C          -2.7386    8.6410   -0.0314 C.ar    1  LIG1        0.0712
     22 C          -4.1697    8.4219   -0.0585 C.ar    1  LIG1        0.1033
     23 C          -4.3586    7.0553   -0.0754 C.ar    1  LIG1        0.1112
     24 O          -3.1268    6.4002   -0.0606 O.2     1  LIG1       -0.4573
     25 H          -5.3889    6.2629   -0.1012 H       1  LIG1        0.1043
     26 S          -2.1504    9.8001   -0.0096 S.3     1  LIG1       -0.1376
     27 H          -3.0539   10.7487   -0.0022 H       1  LIG1        0.1073
     28 N          -5.8801   10.1713   -0.0709 N.1     1  LIG1       -0.1907
     29 C          -5.0785    9.3515   -0.0651 C.1     1  LIG1        0.1034
@<TRIPOS>BOND
     1    25    23    1
     2    23    24   ar
     3    23    22   ar
     4    28    29    3
     5    29    22    1
     6    24    20   ar
     7    22    21   ar
     8    20    21   ar
     9    20    14    1
    10    21    26    1
    11    15    14   ar
    12    15    11   ar
    13    14    13   ar
    14    26    27    1
    15     5     4   ar
    16     5     1   ar
    17    11     4    1
    18    11    12   ar
    19     4     3   ar
    20     9    10    3
    21     2     3   ar
    22     2     1   ar
    23     2     7    1
    24     3    10    1
    25     6     1    1
    26     7     8    1
    27    13    19    1
    28    13    12   ar
    29    19    18    3
    30    12    16    1
    31    16    17    1
