@<TRIPOS>MOLECULE
mol_data/noopt/geoms/mol2/12ge12ge12ge12ge.out
 42 45 0 0 0
SMALL
GASTEIGER

@<TRIPOS>ATOM
      1 C           0.1763    1.8460    0.0000 C.ar    1  LIG1        0.1071
      2 C           1.5558    1.8460    0.0000 C.ar    1  LIG1        0.0587
      3 C           1.9706    3.2334    0.0000 C.ar    1  LIG1        0.0866
      4 C           0.8165    3.9895   -0.0001 C.ar    1  LIG1        0.1872
      5 O          -0.3030    3.1567   -0.0002 O.2     1  LIG1       -0.4574
      6 H          -0.7504    0.9343    0.0000 H       1  LIG1        0.1041
      7 S           2.3514    0.8180    0.0001 S.3     1  LIG1       -0.1384
      8 H           3.5956    1.2280    0.0001 H       1  LIG1        0.1072
      9 C           3.1998    3.6567    0.0000 C.1     1  LIG1       -0.0647
     10 C           4.3355    4.0478    0.0000 C.1     1  LIG1       -0.1138
     11 H           5.3472    4.3962    0.0000 H       1  LIG1        0.1232
     12 C           0.5416    5.2601   -0.0001 C.ar    1  LIG1        0.1863
     13 C           1.2791    6.4258    0.0147 C.ar    1  LIG1        0.0699
     14 C           0.3286    7.5182    0.0040 C.ar    1  LIG1        0.0874
     15 C          -0.9273    6.9473   -0.0167 C.ar    1  LIG1        0.1882
     16 O          -0.8221    5.5559   -0.0197 O.2     1  LIG1       -0.4461
     17 S           2.5731    6.5484    0.0345 S.3     1  LIG1       -0.1377
     18 H           2.8919    7.8190    0.0412 H       1  LIG1        0.1073
     19 C           0.6281    8.7832    0.0126 C.1     1  LIG1       -0.0646
     20 C           0.9048    9.9521    0.0205 C.1     1  LIG1       -0.1138
     21 H           1.1513   10.9932    0.0276 H       1  LIG1        0.1232
     22 C          -2.1478    7.3944   -0.0335 C.ar    1  LIG1        0.1863
     23 C          -2.7383    8.6411   -0.0462 C.ar    1  LIG1        0.0699
     24 C          -4.1697    8.4219   -0.0626 C.ar    1  LIG1        0.0874
     25 C          -4.3589    7.0552   -0.0589 C.ar    1  LIG1        0.1882
     26 O          -3.1271    6.4001   -0.0412 O.2     1  LIG1       -0.4461
     27 S          -2.1499    9.8002   -0.0441 S.3     1  LIG1       -0.1377
     28 H          -3.0531   10.7491   -0.0434 H       1  LIG1        0.1073
     29 C          -5.0783    9.3515   -0.0777 C.1     1  LIG1       -0.0646
     30 C          -5.9179   10.2104   -0.0917 C.1     1  LIG1       -0.1138
     31 H          -6.6658   10.9755   -0.1042 H       1  LIG1        0.1232
     32 C          -5.3894    6.2628   -0.0679 C.ar    1  LIG1        0.1852
     33 C          -6.7587    6.4302   -0.0599 C.ar    1  LIG1        0.0691
     34 C          -7.3389    5.1036   -0.0793 C.ar    1  LIG1        0.0762
     35 C          -6.2851    4.2131   -0.0980 C.ar    1  LIG1        0.1092
     36 O          -5.0728    4.9038   -0.0915 O.2     1  LIG1       -0.4574
     37 H          -6.1665    2.9187   -0.1196 H       1  LIG1        0.1042
     38 S          -7.4236    7.5470   -0.0390 S.3     1  LIG1       -0.1377
     39 H          -8.7084    7.2909   -0.0320 H       1  LIG1        0.1073
     40 C          -8.6103    4.8326   -0.0789 C.1     1  LIG1       -0.0654
     41 C          -9.7851    4.5822   -0.0784 C.1     1  LIG1       -0.1138
     42 H         -10.8316    4.3592   -0.0781 H       1  LIG1        0.1232
@<TRIPOS>BOND
     1    37    35    1
     2    31    30    1
     3    35    36   ar
     4    35    34   ar
     5    30    29    3
     6    36    32   ar
     7    34    40    1
     8    34    33   ar
     9    40    41    3
    10    41    42    1
    11    29    24    1
    12    32    33   ar
    13    32    25    1
    14    24    25   ar
    15    24    23   ar
    16    33    38    1
    17    25    26   ar
    18    23    27    1
    19    23    22   ar
    20    27    28    1
    21    26    22   ar
    22    38    39    1
    23    22    15    1
    24    16    15   ar
    25    16    12   ar
    26    15    14   ar
    27     5     4   ar
    28     5     1   ar
    29     4    12    1
    30     4     3   ar
    31    12    13   ar
    32    11    10    1
    33     2     3   ar
    34     2     1   ar
    35     2     7    1
    36     3     9    1
    37     6     1    1
    38     9    10    3
    39     7     8    1
    40    14    19    1
    41    14    13   ar
    42    19    20    3
    43    13    17    1
    44    20    21    1
    45    17    18    1
