@<TRIPOS>MOLECULE
mol_data/noopt/geoms/mol2/12ge12ge12ge-.out
 32 34 0 0 0
SMALL
GASTEIGER

@<TRIPOS>ATOM
      1 C           0.1763    1.8460    0.0000 C.ar    1  LIG1        0.1071
      2 C           1.5558    1.8460    0.0000 C.ar    1  LIG1        0.0587
      3 C           1.9706    3.2334    0.0000 C.ar    1  LIG1        0.0866
      4 C           0.8165    3.9895   -0.0001 C.ar    1  LIG1        0.1872
      5 O          -0.3030    3.1567   -0.0002 O.2     1  LIG1       -0.4574
      6 H          -0.7504    0.9343    0.0000 H       1  LIG1        0.1041
      7 S           2.3514    0.8180    0.0001 S.3     1  LIG1       -0.1384
      8 H           3.5956    1.2280    0.0001 H       1  LIG1        0.1072
      9 C           3.1998    3.6567    0.0000 C.1     1  LIG1       -0.0647
     10 C           4.3355    4.0478    0.0000 C.1     1  LIG1       -0.1138
     11 H           5.3472    4.3962    0.0000 H       1  LIG1        0.1232
     12 C           0.5416    5.2601   -0.0001 C.ar    1  LIG1        0.1863
     13 C           1.2791    6.4258    0.0147 C.ar    1  LIG1        0.0699
     14 C           0.3286    7.5182    0.0040 C.ar    1  LIG1        0.0874
     15 C          -0.9273    6.9473   -0.0167 C.ar    1  LIG1        0.1882
     16 O          -0.8221    5.5559   -0.0197 O.2     1  LIG1       -0.4461
     17 S           2.5731    6.5484    0.0345 S.3     1  LIG1       -0.1377
     18 H           2.8919    7.8190    0.0412 H       1  LIG1        0.1073
     19 C           0.6281    8.7832    0.0126 C.1     1  LIG1       -0.0646
     20 C           0.9048    9.9521    0.0205 C.1     1  LIG1       -0.1138
     21 H           1.1513   10.9932    0.0276 H       1  LIG1        0.1232
     22 C          -2.1478    7.3944   -0.0335 C.ar    1  LIG1        0.1852
     23 C          -2.7386    8.6410   -0.0314 C.ar    1  LIG1        0.0691
     24 C          -4.1697    8.4219   -0.0585 C.ar    1  LIG1        0.0762
     25 C          -4.3586    7.0553   -0.0754 C.ar    1  LIG1        0.1092
     26 O          -3.1268    6.4002   -0.0606 O.2     1  LIG1       -0.4574
     27 H          -5.3889    6.2629   -0.1012 H       1  LIG1        0.1042
     28 S          -2.1504    9.8001   -0.0096 S.3     1  LIG1       -0.1377
     29 H          -3.0539   10.7487   -0.0022 H       1  LIG1        0.1073
     30 C          -5.0785    9.3515   -0.0651 C.1     1  LIG1       -0.0654
     31 C          -5.9182   10.2104   -0.0711 C.1     1  LIG1       -0.1138
     32 H          -6.6662   10.9754   -0.0766 H       1  LIG1        0.1232
@<TRIPOS>BOND
     1    27    25    1
     2    32    31    1
     3    25    26   ar
     4    25    24   ar
     5    31    30    3
     6    30    24    1
     7    26    22   ar
     8    24    23   ar
     9    22    23   ar
    10    22    15    1
    11    23    28    1
    12    16    15   ar
    13    16    12   ar
    14    15    14   ar
    15    28    29    1
    16     5     4   ar
    17     5     1   ar
    18    12     4    1
    19    12    13   ar
    20     4     3   ar
    21     1     6    1
    22     1     2   ar
    23    11    10    1
    24    10     9    3
    25     9     3    1
    26     3     2   ar
    27     2     7    1
    28     7     8    1
    29    14    19    1
    30    14    13   ar
    31    19    20    3
    32    13    17    1
    33    20    21    1
    34    17    18    1
