@<TRIPOS>MOLECULE
mol_data/noopt/geoms/mol2/12ge12ge12ge.out
 32 34 0 0 0
SMALL
GASTEIGER

@<TRIPOS>ATOM
      1 C           0.1763    1.8460    0.0000 C.ar    1  LIG1        0.1071
      2 C           1.5558    1.8460    0.0000 C.ar    1  LIG1        0.0587
      3 C           1.9706    3.2334    0.0000 C.ar    1  LIG1        0.0866
      4 C           0.8165    3.9895   -0.0001 C.ar    1  LIG1        0.1872
      5 O          -0.3030    3.1567   -0.0002 O.2     1  LIG1       -0.4574
      6 H          -0.7504    0.9343    0.0000 H       1  LIG1        0.1041
      7 S           2.3514    0.8180    0.0001 S.3     1  LIG1       -0.1384
      8 H           3.5956    1.2280    0.0001 H       1  LIG1        0.1072
      9 C           3.1998    3.6567    0.0000 C.1     1  LIG1       -0.0647
     10 C           4.3355    4.0478    0.0000 C.1     1  LIG1       -0.1138
     11 H           5.3472    4.3962    0.0000 H       1  LIG1        0.1232
     12 C           0.5416    5.2601   -0.0001 C.ar    1  LIG1        0.1863
     13 C           1.2791    6.4258    0.0147 C.ar    1  LIG1        0.0699
     14 C           0.3286    7.5182    0.0040 C.ar    1  LIG1        0.0874
     15 C          -0.9273    6.9473   -0.0167 C.ar    1  LIG1        0.1882
     16 O          -0.8221    5.5559   -0.0197 O.2     1  LIG1       -0.4461
     17 S           2.5731    6.5484    0.0345 S.3     1  LIG1       -0.1377
     18 H           2.8919    7.8190    0.0412 H       1  LIG1        0.1073
     19 C           0.6281    8.7832    0.0126 C.1     1  LIG1       -0.0646
     20 C           0.9048    9.9521    0.0205 C.1     1  LIG1       -0.1138
     21 H           1.1513   10.9932    0.0276 H       1  LIG1        0.1232
     22 C          -2.1478    7.3944   -0.0335 C.ar    1  LIG1        0.1852
     23 C          -2.7383    8.6411   -0.0462 C.ar    1  LIG1        0.0691
     24 C          -4.1697    8.4219   -0.0626 C.ar    1  LIG1        0.0762
     25 C          -4.3589    7.0552   -0.0589 C.ar    1  LIG1        0.1092
     26 O          -3.1271    6.4001   -0.0412 O.2     1  LIG1       -0.4574
     27 H          -5.3894    6.2628   -0.0679 H       1  LIG1        0.1042
     28 S          -2.1499    9.8002   -0.0441 S.3     1  LIG1       -0.1377
     29 H          -3.0531   10.7491   -0.0434 H       1  LIG1        0.1073
     30 C          -5.0783    9.3515   -0.0777 C.1     1  LIG1       -0.0654
     31 C          -5.9179   10.2104   -0.0917 C.1     1  LIG1       -0.1138
     32 H          -6.6658   10.9755   -0.1042 H       1  LIG1        0.1232
@<TRIPOS>BOND
     1    32    31    1
     2    31    30    3
     3    30    24    1
     4    27    25    1
     5    24    25   ar
     6    24    23   ar
     7    25    26   ar
     8    23    28    1
     9    23    22   ar
    10    28    29    1
    11    26    22   ar
    12    22    15    1
    13    16    15   ar
    14    16    12   ar
    15    15    14   ar
    16     5     4   ar
    17     5     1   ar
    18    12     4    1
    19    12    13   ar
    20     4     3   ar
    21     1     6    1
    22     1     2   ar
    23    11    10    1
    24    10     9    3
    25     9     3    1
    26     3     2   ar
    27     2     7    1
    28     7     8    1
    29    14    19    1
    30    14    13   ar
    31    19    20    3
    32    13    17    1
    33    20    21    1
    34    17    18    1
