@<TRIPOS>MOLECULE
mol_data/noopt/geoms/mol2/12ge12ge-.out
 22 23 0 0 0
SMALL
GASTEIGER

@<TRIPOS>ATOM
      1 C           0.1763    1.8460    0.0000 C.ar    1  LIG1        0.1071
      2 C           1.5558    1.8460    0.0000 C.ar    1  LIG1        0.0587
      3 C           1.9706    3.2334    0.0000 C.ar    1  LIG1        0.0866
      4 C           0.8165    3.9895   -0.0001 C.ar    1  LIG1        0.1872
      5 O          -0.3030    3.1567   -0.0002 O.2     1  LIG1       -0.4574
      6 H          -0.7504    0.9343    0.0000 H       1  LIG1        0.1041
      7 S           2.3514    0.8180    0.0001 S.3     1  LIG1       -0.1384
      8 H           3.5956    1.2280    0.0001 H       1  LIG1        0.1072
      9 C           3.1998    3.6567    0.0000 C.1     1  LIG1       -0.0647
     10 C           4.3355    4.0478    0.0000 C.1     1  LIG1       -0.1138
     11 H           5.3472    4.3962    0.0000 H       1  LIG1        0.1232
     12 C           0.5416    5.2601   -0.0001 C.ar    1  LIG1        0.1852
     13 C           1.2792    6.4258   -0.0001 C.ar    1  LIG1        0.0691
     14 C           0.3286    7.5182   -0.0001 C.ar    1  LIG1        0.0762
     15 C          -0.9274    6.9472   -0.0002 C.ar    1  LIG1        0.1092
     16 O          -0.8223    5.5559   -0.0003 O.2     1  LIG1       -0.4574
     17 H          -2.1481    7.3943   -0.0002 H       1  LIG1        0.1042
     18 S           2.5734    6.5485   -0.0000 S.3     1  LIG1       -0.1377
     19 H           2.8922    7.8191    0.0000 H       1  LIG1        0.1073
     20 C           0.6282    8.7832   -0.0001 C.1     1  LIG1       -0.0654
     21 C           0.9050    9.9521   -0.0001 C.1     1  LIG1       -0.1138
     22 H           1.1515   10.9933   -0.0001 H       1  LIG1        0.1232
@<TRIPOS>BOND
     1    16    15   ar
     2    16    12   ar
     3     5     4   ar
     4     5     1   ar
     5    17    15    1
     6    15    14   ar
     7    12    13   ar
     8    12     4    1
     9    22    21    1
    10    21    20    3
    11    20    14    1
    12    14    13   ar
    13    13    18    1
    14     4     3   ar
    15    11    10    1
    16     1     6    1
    17     1     2   ar
    18    10     9    3
    19     9     3    1
    20    18    19    1
    21     3     2   ar
    22     2     7    1
    23     7     8    1
