@<TRIPOS>MOLECULE
mol_data/noopt/geoms/mol2/12ge12ge-12ge12ge.out
 42 45 0 0 0
SMALL
GASTEIGER

@<TRIPOS>ATOM
      1 C           0.1763    1.8460    0.0000 C.ar    1  LIG1        0.1071
      2 C           1.5558    1.8460    0.0000 C.ar    1  LIG1        0.0587
      3 C           1.9706    3.2334    0.0000 C.ar    1  LIG1        0.0866
      4 C           0.8165    3.9895   -0.0001 C.ar    1  LIG1        0.1872
      5 O          -0.3030    3.1567   -0.0002 O.2     1  LIG1       -0.4574
      6 H          -0.7504    0.9343    0.0000 H       1  LIG1        0.1041
      7 S           2.3514    0.8180    0.0001 S.3     1  LIG1       -0.1384
      8 H           3.5956    1.2280    0.0001 H       1  LIG1        0.1072
      9 C           3.1998    3.6567    0.0000 C.1     1  LIG1       -0.0647
     10 C           4.3355    4.0478    0.0000 C.1     1  LIG1       -0.1138
     11 H           5.3472    4.3962    0.0000 H       1  LIG1        0.1232
     12 C           0.5416    5.2601   -0.0001 C.ar    1  LIG1        0.1863
     13 C           1.2792    6.4258   -0.0001 C.ar    1  LIG1        0.0699
     14 C           0.3286    7.5182   -0.0001 C.ar    1  LIG1        0.0874
     15 C          -0.9274    6.9472   -0.0002 C.ar    1  LIG1        0.1882
     16 O          -0.8223    5.5559   -0.0003 O.2     1  LIG1       -0.4461
     17 S           2.5734    6.5485   -0.0000 S.3     1  LIG1       -0.1377
     18 H           2.8922    7.8191    0.0000 H       1  LIG1        0.1073
     19 C           0.6282    8.7832   -0.0001 C.1     1  LIG1       -0.0646
     20 C           0.9050    9.9521   -0.0001 C.1     1  LIG1       -0.1138
     21 H           1.1515   10.9933   -0.0001 H       1  LIG1        0.1232
     22 C          -2.1481    7.3943   -0.0002 C.ar    1  LIG1        0.1863
     23 C          -2.7387    8.6410   -0.0002 C.ar    1  LIG1        0.0699
     24 C          -4.1701    8.4218   -0.0002 C.ar    1  LIG1        0.0874
     25 C          -4.3593    7.0551   -0.0003 C.ar    1  LIG1        0.1882
     26 O          -3.1273    6.4000   -0.0004 O.2     1  LIG1       -0.4461
     27 S          -2.1504    9.8002   -0.0001 S.3     1  LIG1       -0.1377
     28 H          -3.0536   10.7490   -0.0001 H       1  LIG1        0.1073
     29 C          -5.0789    9.3514   -0.0002 C.1     1  LIG1       -0.0646
     30 C          -5.9187   10.2103   -0.0002 C.1     1  LIG1       -0.1138
     31 H          -6.6667   10.9754   -0.0002 H       1  LIG1        0.1232
     32 C          -5.3898    6.2627   -0.0003 C.ar    1  LIG1        0.1852
     33 C          -6.7590    6.4301    0.0145 C.ar    1  LIG1        0.0691
     34 C          -7.3393    5.1034    0.0038 C.ar    1  LIG1        0.0762
     35 C          -6.2856    4.2129   -0.0169 C.ar    1  LIG1        0.1092
     36 O          -5.0733    4.9036   -0.0199 O.2     1  LIG1       -0.4574
     37 H          -6.1671    2.9184   -0.0337 H       1  LIG1        0.1042
     38 S          -7.4239    7.5470    0.0343 S.3     1  LIG1       -0.1377
     39 H          -8.7086    7.2910    0.0410 H       1  LIG1        0.1073
     40 C          -8.6107    4.8324    0.0124 C.1     1  LIG1       -0.0654
     41 C          -9.7855    4.5820    0.0203 C.1     1  LIG1       -0.1138
     42 H         -10.8319    4.3590    0.0273 H       1  LIG1        0.1232
@<TRIPOS>BOND
     1    37    35    1
     2    36    35   ar
     3    36    32   ar
     4    35    34   ar
     5    26    25   ar
     6    26    22   ar
     7    25    32    1
     8    25    24   ar
     9    32    33   ar
    10    16    15   ar
    11    16    12   ar
    12    29    24    1
    13    29    30    3
    14    15    22    1
    15    15    14   ar
    16    22    23   ar
    17    23    24   ar
    18    23    27    1
    19    30    31    1
    20     5     4   ar
    21     5     1   ar
    22    13    14   ar
    23    13    12   ar
    24    13    17    1
    25    21    20    1
    26    20    19    3
    27    19    14    1
    28    27    28    1
    29    12     4    1
    30     4     3   ar
    31     1     2   ar
    32     1     6    1
    33    17    18    1
    34    11    10    1
    35    10     9    3
    36     9     3    1
    37     2     3   ar
    38     2     7    1
    39     7     8    1
    40    34    40    1
    41    34    33   ar
    42    40    41    3
    43    33    38    1
    44    41    42    1
    45    38    39    1
