@<TRIPOS>MOLECULE
mol_data/noopt/geoms/mol2/12ge12ge-12ge-.out
 32 34 0 0 0
SMALL
GASTEIGER

@<TRIPOS>ATOM
      1 C           0.1763    1.8460    0.0000 C.ar    1  LIG1        0.1071
      2 C           1.5558    1.8460    0.0000 C.ar    1  LIG1        0.0587
      3 C           1.9706    3.2334    0.0000 C.ar    1  LIG1        0.0866
      4 C           0.8165    3.9895   -0.0001 C.ar    1  LIG1        0.1872
      5 O          -0.3030    3.1567   -0.0002 O.2     1  LIG1       -0.4574
      6 H          -0.7504    0.9343    0.0000 H       1  LIG1        0.1041
      7 S           2.3514    0.8180    0.0001 S.3     1  LIG1       -0.1384
      8 H           3.5956    1.2280    0.0001 H       1  LIG1        0.1072
      9 C           3.1998    3.6567    0.0000 C.1     1  LIG1       -0.0647
     10 C           4.3355    4.0478    0.0000 C.1     1  LIG1       -0.1138
     11 H           5.3472    4.3962    0.0000 H       1  LIG1        0.1232
     12 C           0.5416    5.2601   -0.0001 C.ar    1  LIG1        0.1863
     13 C           1.2792    6.4258   -0.0001 C.ar    1  LIG1        0.0699
     14 C           0.3286    7.5182   -0.0001 C.ar    1  LIG1        0.0874
     15 C          -0.9274    6.9472   -0.0002 C.ar    1  LIG1        0.1882
     16 O          -0.8223    5.5559   -0.0003 O.2     1  LIG1       -0.4461
     17 S           2.5734    6.5485   -0.0000 S.3     1  LIG1       -0.1377
     18 H           2.8922    7.8191    0.0000 H       1  LIG1        0.1073
     19 C           0.6282    8.7832   -0.0001 C.1     1  LIG1       -0.0646
     20 C           0.9050    9.9521   -0.0001 C.1     1  LIG1       -0.1138
     21 H           1.1515   10.9933   -0.0001 H       1  LIG1        0.1232
     22 C          -2.1481    7.3943   -0.0002 C.ar    1  LIG1        0.1852
     23 C          -2.7388    8.6409    0.0146 C.ar    1  LIG1        0.0691
     24 C          -4.1701    8.4218    0.0039 C.ar    1  LIG1        0.0762
     25 C          -4.3592    7.0552   -0.0168 C.ar    1  LIG1        0.1092
     26 O          -3.1273    6.4001   -0.0198 O.2     1  LIG1       -0.4574
     27 H          -5.3897    6.2629   -0.0336 H       1  LIG1        0.1042
     28 S          -2.1505    9.7999    0.0344 S.3     1  LIG1       -0.1377
     29 H          -3.0537   10.7487    0.0411 H       1  LIG1        0.1073
     30 C          -5.0790    9.3513    0.0125 C.1     1  LIG1       -0.0654
     31 C          -5.9187   10.2101    0.0204 C.1     1  LIG1       -0.1138
     32 H          -6.6668   10.9752    0.0274 H       1  LIG1        0.1232
@<TRIPOS>BOND
     1    27    25    1
     2    26    25   ar
     3    26    22   ar
     4    25    24   ar
     5    16    15   ar
     6    16    12   ar
     7     5     4   ar
     8     5     1   ar
     9    22    15    1
    10    22    23   ar
    11    15    14   ar
    12     4    12    1
    13     4     3   ar
    14    21    20    1
    15    20    19    3
    16    19    14    1
    17    12    13   ar
    18    13    14   ar
    19    13    17    1
    20     1     6    1
    21     1     2   ar
    22    17    18    1
    23    11    10    1
    24    10     9    3
    25     9     3    1
    26     3     2   ar
    27     2     7    1
    28     7     8    1
    29    24    30    1
    30    24    23   ar
    31    30    31    3
    32    23    28    1
    33    31    32    1
    34    28    29    1
