@<TRIPOS>MOLECULE
mol_data/noopt/geoms/mol2/12ge12ge-12ge-12ge.out
 42 45 0 0 0
SMALL
GASTEIGER

@<TRIPOS>ATOM
      1 C           0.1763    1.8460    0.0000 C.ar    1  LIG1        0.1071
      2 C           1.5558    1.8460    0.0000 C.ar    1  LIG1        0.0587
      3 C           1.9706    3.2334    0.0000 C.ar    1  LIG1        0.0866
      4 C           0.8165    3.9895   -0.0001 C.ar    1  LIG1        0.1872
      5 O          -0.3030    3.1567   -0.0002 O.2     1  LIG1       -0.4574
      6 H          -0.7504    0.9343    0.0000 H       1  LIG1        0.1041
      7 S           2.3514    0.8180    0.0001 S.3     1  LIG1       -0.1384
      8 H           3.5956    1.2280    0.0001 H       1  LIG1        0.1072
      9 C           3.1998    3.6567    0.0000 C.1     1  LIG1       -0.0647
     10 C           4.3355    4.0478    0.0000 C.1     1  LIG1       -0.1138
     11 H           5.3472    4.3962    0.0000 H       1  LIG1        0.1232
     12 C           0.5416    5.2601   -0.0001 C.ar    1  LIG1        0.1863
     13 C           1.2792    6.4258   -0.0001 C.ar    1  LIG1        0.0699
     14 C           0.3286    7.5182   -0.0001 C.ar    1  LIG1        0.0874
     15 C          -0.9274    6.9472   -0.0002 C.ar    1  LIG1        0.1882
     16 O          -0.8223    5.5559   -0.0003 O.2     1  LIG1       -0.4461
     17 S           2.5734    6.5485   -0.0000 S.3     1  LIG1       -0.1377
     18 H           2.8922    7.8191    0.0000 H       1  LIG1        0.1073
     19 C           0.6282    8.7832   -0.0001 C.1     1  LIG1       -0.0646
     20 C           0.9050    9.9521   -0.0001 C.1     1  LIG1       -0.1138
     21 H           1.1515   10.9933   -0.0001 H       1  LIG1        0.1232
     22 C          -2.1481    7.3943   -0.0002 C.ar    1  LIG1        0.1863
     23 C          -2.7388    8.6409    0.0146 C.ar    1  LIG1        0.0699
     24 C          -4.1701    8.4218    0.0039 C.ar    1  LIG1        0.0874
     25 C          -4.3592    7.0552   -0.0168 C.ar    1  LIG1        0.1882
     26 O          -3.1273    6.4001   -0.0198 O.2     1  LIG1       -0.4461
     27 S          -2.1505    9.7999    0.0344 S.3     1  LIG1       -0.1377
     28 H          -3.0537   10.7487    0.0411 H       1  LIG1        0.1073
     29 C          -5.0790    9.3513    0.0125 C.1     1  LIG1       -0.0646
     30 C          -5.9187   10.2101    0.0204 C.1     1  LIG1       -0.1138
     31 H          -6.6668   10.9752    0.0274 H       1  LIG1        0.1232
     32 C          -5.3897    6.2629   -0.0336 C.ar    1  LIG1        0.1852
     33 C          -6.7590    6.4303   -0.0315 C.ar    1  LIG1        0.0691
     34 C          -7.3391    5.1038   -0.0586 C.ar    1  LIG1        0.0762
     35 C          -6.2853    4.2134   -0.0755 C.ar    1  LIG1        0.1092
     36 O          -5.0730    4.9040   -0.0607 O.2     1  LIG1       -0.4574
     37 H          -6.1666    2.9191   -0.1013 H       1  LIG1        0.1042
     38 S          -7.4240    7.5471   -0.0097 S.3     1  LIG1       -0.1377
     39 H          -8.7087    7.2909   -0.0023 H       1  LIG1        0.1073
     40 C          -8.6106    4.8329   -0.0652 C.1     1  LIG1       -0.0654
     41 C          -9.7854    4.5825   -0.0712 C.1     1  LIG1       -0.1138
     42 H         -10.8319    4.3596   -0.0767 H       1  LIG1        0.1232
@<TRIPOS>BOND
     1    37    35    1
     2    42    41    1
     3    35    36   ar
     4    35    34   ar
     5    41    40    3
     6    40    34    1
     7    36    32   ar
     8    34    33   ar
     9    32    33   ar
    10    32    25    1
    11    33    38    1
    12    26    25   ar
    13    26    22   ar
    14    25    24   ar
    15    38    39    1
    16    16    15   ar
    17    16    12   ar
    18    22    15    1
    19    22    23   ar
    20    15    14   ar
    21     5     4   ar
    22     5     1   ar
    23    19    20    3
    24    19    14    1
    25    20    21    1
    26     4    12    1
    27     4     3   ar
    28    14    13   ar
    29    13    12   ar
    30    13    17    1
    31     2     3   ar
    32     2     1   ar
    33     2     7    1
    34     3     9    1
    35     6     1    1
    36     9    10    3
    37    10    11    1
    38    17    18    1
    39     7     8    1
    40    24    29    1
    41    24    23   ar
    42    29    30    3
    43    23    27    1
    44    30    31    1
    45    27    28    1
