@<TRIPOS>MOLECULE
mol_data/noopt/geoms/mol2/12ge12ge12ge-12ge-.out
 42 45 0 0 0
SMALL
GASTEIGER

@<TRIPOS>ATOM
      1 C           0.1763    1.8460    0.0000 C.ar    1  LIG1        0.1071
      2 C           1.5558    1.8460    0.0000 C.ar    1  LIG1        0.0587
      3 C           1.9706    3.2334    0.0000 C.ar    1  LIG1        0.0866
      4 C           0.8165    3.9895   -0.0001 C.ar    1  LIG1        0.1872
      5 O          -0.3030    3.1567   -0.0002 O.2     1  LIG1       -0.4574
      6 H          -0.7504    0.9343    0.0000 H       1  LIG1        0.1041
      7 S           2.3514    0.8180    0.0001 S.3     1  LIG1       -0.1384
      8 H           3.5956    1.2280    0.0001 H       1  LIG1        0.1072
      9 C           3.1998    3.6567    0.0000 C.1     1  LIG1       -0.0647
     10 C           4.3355    4.0478    0.0000 C.1     1  LIG1       -0.1138
     11 H           5.3472    4.3962    0.0000 H       1  LIG1        0.1232
     12 C           0.5416    5.2601   -0.0001 C.ar    1  LIG1        0.1863
     13 C           1.2791    6.4258    0.0147 C.ar    1  LIG1        0.0699
     14 C           0.3286    7.5182    0.0040 C.ar    1  LIG1        0.0874
     15 C          -0.9273    6.9473   -0.0167 C.ar    1  LIG1        0.1882
     16 O          -0.8221    5.5559   -0.0197 O.2     1  LIG1       -0.4461
     17 S           2.5731    6.5484    0.0345 S.3     1  LIG1       -0.1377
     18 H           2.8919    7.8190    0.0412 H       1  LIG1        0.1073
     19 C           0.6281    8.7832    0.0126 C.1     1  LIG1       -0.0646
     20 C           0.9048    9.9521    0.0205 C.1     1  LIG1       -0.1138
     21 H           1.1513   10.9932    0.0276 H       1  LIG1        0.1232
     22 C          -2.1478    7.3944   -0.0335 C.ar    1  LIG1        0.1863
     23 C          -2.7386    8.6410   -0.0314 C.ar    1  LIG1        0.0699
     24 C          -4.1697    8.4219   -0.0585 C.ar    1  LIG1        0.0874
     25 C          -4.3586    7.0553   -0.0754 C.ar    1  LIG1        0.1882
     26 O          -3.1268    6.4002   -0.0606 O.2     1  LIG1       -0.4461
     27 S          -2.1504    9.8001   -0.0096 S.3     1  LIG1       -0.1377
     28 H          -3.0539   10.7487   -0.0022 H       1  LIG1        0.1073
     29 C          -5.0785    9.3515   -0.0651 C.1     1  LIG1       -0.0646
     30 C          -5.9182   10.2104   -0.0711 C.1     1  LIG1       -0.1138
     31 H          -6.6662   10.9754   -0.0766 H       1  LIG1        0.1232
     32 C          -5.3889    6.2629   -0.1012 C.ar    1  LIG1        0.1852
     33 C          -6.7581    6.4304   -0.1207 C.ar    1  LIG1        0.0691
     34 C          -7.3380    5.1038   -0.1458 C.ar    1  LIG1        0.0762
     35 C          -6.2842    4.2132   -0.1401 C.ar    1  LIG1        0.1092
     36 O          -5.0721    4.9038   -0.1128 O.2     1  LIG1       -0.4574
     37 H          -6.1654    2.9187   -0.1539 H       1  LIG1        0.1042
     38 S          -7.4231    7.5474   -0.1175 S.3     1  LIG1       -0.1377
     39 H          -8.7079    7.2913   -0.1165 H       1  LIG1        0.1073
     40 C          -8.6092    4.8329   -0.1691 C.1     1  LIG1       -0.0654
     41 C          -9.7838    4.5826   -0.1906 C.1     1  LIG1       -0.1138
     42 H         -10.8302    4.3596   -0.2097 H       1  LIG1        0.1232
@<TRIPOS>BOND
     1    42    41    1
     2    41    40    3
     3    40    34    1
     4    37    35    1
     5    34    35   ar
     6    34    33   ar
     7    35    36   ar
     8    33    38    1
     9    33    32   ar
    10    38    39    1
    11    36    32   ar
    12    32    25    1
    13    31    30    1
    14    25    26   ar
    15    25    24   ar
    16    30    29    3
    17    29    24    1
    18    26    22   ar
    19    24    23   ar
    20    22    23   ar
    21    22    15    1
    22    23    27    1
    23    16    15   ar
    24    16    12   ar
    25    15    14   ar
    26    27    28    1
    27     5     4   ar
    28     5     1   ar
    29     4    12    1
    30     4     3   ar
    31    12    13   ar
    32     2     3   ar
    33     2     1   ar
    34     2     7    1
    35     3     9    1
    36     1     6    1
    37     9    10    3
    38    11    10    1
    39     7     8    1
    40    14    19    1
    41    14    13   ar
    42    19    20    3
    43    13    17    1
    44    20    21    1
    45    17    18    1
