@<TRIPOS>MOLECULE
mol_data/noopt/geoms/mol2/12ge12ge-12ge12ge-.out
 42 45 0 0 0
SMALL
GASTEIGER

@<TRIPOS>ATOM
      1 C           0.1763    1.8460    0.0000 C.ar    1  LIG1        0.1071
      2 C           1.5558    1.8460    0.0000 C.ar    1  LIG1        0.0587
      3 C           1.9706    3.2334    0.0000 C.ar    1  LIG1        0.0866
      4 C           0.8165    3.9895   -0.0001 C.ar    1  LIG1        0.1872
      5 O          -0.3030    3.1567   -0.0002 O.2     1  LIG1       -0.4574
      6 H          -0.7504    0.9343    0.0000 H       1  LIG1        0.1041
      7 S           2.3514    0.8180    0.0001 S.3     1  LIG1       -0.1384
      8 H           3.5956    1.2280    0.0001 H       1  LIG1        0.1072
      9 C           3.1998    3.6567    0.0000 C.1     1  LIG1       -0.0647
     10 C           4.3355    4.0478    0.0000 C.1     1  LIG1       -0.1138
     11 H           5.3472    4.3962    0.0000 H       1  LIG1        0.1232
     12 C           0.5416    5.2601   -0.0001 C.ar    1  LIG1        0.1863
     13 C           1.2792    6.4258   -0.0001 C.ar    1  LIG1        0.0699
     14 C           0.3286    7.5182   -0.0001 C.ar    1  LIG1        0.0874
     15 C          -0.9274    6.9472   -0.0002 C.ar    1  LIG1        0.1882
     16 O          -0.8223    5.5559   -0.0003 O.2     1  LIG1       -0.4461
     17 S           2.5734    6.5485   -0.0000 S.3     1  LIG1       -0.1377
     18 H           2.8922    7.8191    0.0000 H       1  LIG1        0.1073
     19 C           0.6282    8.7832   -0.0001 C.1     1  LIG1       -0.0646
     20 C           0.9050    9.9521   -0.0001 C.1     1  LIG1       -0.1138
     21 H           1.1515   10.9933   -0.0001 H       1  LIG1        0.1232
     22 C          -2.1481    7.3943   -0.0002 C.ar    1  LIG1        0.1863
     23 C          -2.7387    8.6410   -0.0002 C.ar    1  LIG1        0.0699
     24 C          -4.1701    8.4218   -0.0002 C.ar    1  LIG1        0.0874
     25 C          -4.3593    7.0551   -0.0003 C.ar    1  LIG1        0.1882
     26 O          -3.1273    6.4000   -0.0004 O.2     1  LIG1       -0.4461
     27 S          -2.1504    9.8002   -0.0001 S.3     1  LIG1       -0.1377
     28 H          -3.0536   10.7490   -0.0001 H       1  LIG1        0.1073
     29 C          -5.0789    9.3514   -0.0002 C.1     1  LIG1       -0.0646
     30 C          -5.9187   10.2103   -0.0002 C.1     1  LIG1       -0.1138
     31 H          -6.6667   10.9754   -0.0002 H       1  LIG1        0.1232
     32 C          -5.3898    6.2627   -0.0003 C.ar    1  LIG1        0.1852
     33 C          -6.7591    6.4302   -0.0003 C.ar    1  LIG1        0.0691
     34 C          -7.3393    5.1034   -0.0003 C.ar    1  LIG1        0.0762
     35 C          -6.2855    4.2128   -0.0004 C.ar    1  LIG1        0.1092
     36 O          -5.0732    4.9035   -0.0005 O.2     1  LIG1       -0.4574
     37 H          -6.1669    2.9182   -0.0004 H       1  LIG1        0.1042
     38 S          -7.4241    7.5472   -0.0002 S.3     1  LIG1       -0.1377
     39 H          -8.7088    7.2912   -0.0002 H       1  LIG1        0.1073
     40 C          -8.6107    4.8325   -0.0003 C.1     1  LIG1       -0.0654
     41 C          -9.7856    4.5821   -0.0003 C.1     1  LIG1       -0.1138
     42 H         -10.8321    4.3591   -0.0003 H       1  LIG1        0.1232
@<TRIPOS>BOND
     1    36    35   ar
     2    36    32   ar
     3    37    35    1
     4    35    34   ar
     5    26    25   ar
     6    26    22   ar
     7    42    41    1
     8    41    40    3
     9    40    34    1
    10    34    33   ar
    11    33    32   ar
    12    33    38    1
    13    32    25    1
    14    25    24   ar
    15    16    15   ar
    16    16    12   ar
    17    23    22   ar
    18    23    24   ar
    19    23    27    1
    20    22    15    1
    21    24    29    1
    22    29    30    3
    23    30    31    1
    24    38    39    1
    25     5     4   ar
    26     5     1   ar
    27    15    14   ar
    28    20    19    3
    29    20    21    1
    30     4    12    1
    31     4     3   ar
    32    12    13   ar
    33    13    14   ar
    34    13    17    1
    35    14    19    1
    36    27    28    1
    37    17    18    1
    38    11    10    1
    39    10     9    3
    40     9     3    1
    41     6     1    1
    42     1     2   ar
    43     3     2   ar
    44     2     7    1
    45     7     8    1
