@<TRIPOS>MOLECULE
mol_data/noopt/geoms/mol2/12gf12gf-12gf-.out
 29 31 0 0 0
SMALL
GASTEIGER

@<TRIPOS>ATOM
      1 C           0.1763    1.8460    0.0000 C.ar    1  LIG1        0.1096
      2 C           1.5558    1.8460    0.0000 C.ar    1  LIG1        0.0849
      3 C           1.9706    3.2334    0.0000 C.ar    1  LIG1        0.1792
      4 C           0.8165    3.9895   -0.0001 C.ar    1  LIG1        0.2131
      5 O          -0.3030    3.1567   -0.0002 O.2     1  LIG1       -0.4549
      6 H          -0.7504    0.9343    0.0000 H       1  LIG1        0.1042
      7 S           2.3514    0.8180    0.0001 S.3     1  LIG1       -0.1361
      8 H           3.5956    1.2280    0.0001 H       1  LIG1        0.1073
      9 O           3.1998    3.6567    0.0000 O.3     1  LIG1       -0.5024
     10 H           3.2081    4.6167    0.0000 H       1  LIG1        0.2923
     11 C           0.5416    5.2601   -0.0001 C.ar    1  LIG1        0.1912
     12 C           1.2792    6.4258   -0.0001 C.ar    1  LIG1        0.0962
     13 C           0.3286    7.5182   -0.0001 C.ar    1  LIG1        0.1800
     14 C          -0.9274    6.9472   -0.0002 C.ar    1  LIG1        0.2141
     15 O          -0.8223    5.5559   -0.0003 O.2     1  LIG1       -0.4435
     16 S           2.5734    6.5485   -0.0000 S.3     1  LIG1       -0.1353
     17 H           2.8922    7.8191    0.0000 H       1  LIG1        0.1073
     18 O           0.6282    8.7833   -0.0001 O.3     1  LIG1       -0.5024
     19 H          -0.1786    9.3036   -0.0001 H       1  LIG1        0.2923
     20 C          -2.1481    7.3943   -0.0002 C.ar    1  LIG1        0.1901
     21 C          -2.7388    8.6409    0.0146 C.ar    1  LIG1        0.0954
     22 C          -4.1701    8.4218    0.0039 C.ar    1  LIG1        0.1686
     23 C          -4.3592    7.0552   -0.0168 C.ar    1  LIG1        0.1352
     24 O          -3.1273    6.4001   -0.0198 O.2     1  LIG1       -0.4548
     25 H          -5.3897    6.2629   -0.0336 H       1  LIG1        0.1068
     26 S          -2.1505    9.7999    0.0344 S.3     1  LIG1       -0.1354
     27 H          -3.0537   10.7487    0.0411 H       1  LIG1        0.1073
     28 O          -5.0790    9.3513    0.0125 O.3     1  LIG1       -0.5029
     29 H          -5.9501    8.9477    0.0146 H       1  LIG1        0.2923
@<TRIPOS>BOND
     1    25    23    1
     2    24    23   ar
     3    24    20   ar
     4    23    22   ar
     5    15    14   ar
     6    15    11   ar
     7     5     4   ar
     8     5     1   ar
     9    20    14    1
    10    20    21   ar
    11    14    13   ar
    12     4    11    1
    13     4     3   ar
    14    19    18    1
    15    18    13    1
    16    11    12   ar
    17    12    13   ar
    18    12    16    1
    19     1     6    1
    20     1     2   ar
    21    16    17    1
    22    10     9    1
    23     9     3    1
    24     3     2   ar
    25     2     7    1
    26     7     8    1
    27    22    28    1
    28    22    21   ar
    29    28    29    1
    30    21    26    1
    31    26    27    1
