@<TRIPOS>MOLECULE
mol_data/noopt/geoms/mol2/12gf12gf-12gf12gf.out
 38 41 0 0 0
SMALL
GASTEIGER

@<TRIPOS>ATOM
      1 C           0.1763    1.8460    0.0000 C.ar    1  LIG1        0.1096
      2 C           1.5558    1.8460    0.0000 C.ar    1  LIG1        0.0849
      3 C           1.9706    3.2334    0.0000 C.ar    1  LIG1        0.1792
      4 C           0.8165    3.9895   -0.0001 C.ar    1  LIG1        0.2131
      5 O          -0.3030    3.1567   -0.0002 O.2     1  LIG1       -0.4549
      6 H          -0.7504    0.9343    0.0000 H       1  LIG1        0.1042
      7 S           2.3514    0.8180    0.0001 S.3     1  LIG1       -0.1361
      8 H           3.5956    1.2280    0.0001 H       1  LIG1        0.1073
      9 O           3.1998    3.6567    0.0000 O.3     1  LIG1       -0.5024
     10 H           3.2081    4.6167    0.0000 H       1  LIG1        0.2923
     11 C           0.5416    5.2601   -0.0001 C.ar    1  LIG1        0.1912
     12 C           1.2792    6.4258   -0.0001 C.ar    1  LIG1        0.0962
     13 C           0.3286    7.5182   -0.0001 C.ar    1  LIG1        0.1800
     14 C          -0.9274    6.9472   -0.0002 C.ar    1  LIG1        0.2142
     15 O          -0.8223    5.5559   -0.0003 O.2     1  LIG1       -0.4435
     16 S           2.5734    6.5485   -0.0000 S.3     1  LIG1       -0.1353
     17 H           2.8922    7.8191    0.0000 H       1  LIG1        0.1073
     18 O           0.6282    8.7833   -0.0001 O.3     1  LIG1       -0.5024
     19 H          -0.1786    9.3036   -0.0001 H       1  LIG1        0.2923
     20 C          -2.1481    7.3943   -0.0002 C.ar    1  LIG1        0.1912
     21 C          -2.7387    8.6410   -0.0002 C.ar    1  LIG1        0.0962
     22 C          -4.1701    8.4218   -0.0002 C.ar    1  LIG1        0.1800
     23 C          -4.3593    7.0551   -0.0003 C.ar    1  LIG1        0.2141
     24 O          -3.1273    6.4000   -0.0004 O.2     1  LIG1       -0.4435
     25 S          -2.1504    9.8002   -0.0001 S.3     1  LIG1       -0.1353
     26 H          -3.0536   10.7490   -0.0001 H       1  LIG1        0.1073
     27 O          -5.0790    9.3514   -0.0002 O.3     1  LIG1       -0.5024
     28 H          -5.9500    8.9479   -0.0002 H       1  LIG1        0.2923
     29 C          -5.3898    6.2627   -0.0003 C.ar    1  LIG1        0.1901
     30 C          -6.7590    6.4301    0.0145 C.ar    1  LIG1        0.0954
     31 C          -7.3393    5.1034    0.0038 C.ar    1  LIG1        0.1686
     32 C          -6.2856    4.2129   -0.0169 C.ar    1  LIG1        0.1352
     33 O          -5.0733    4.9036   -0.0199 O.2     1  LIG1       -0.4548
     34 H          -6.1671    2.9184   -0.0337 H       1  LIG1        0.1068
     35 S          -7.4239    7.5470    0.0343 S.3     1  LIG1       -0.1354
     36 H          -8.7086    7.2910    0.0410 H       1  LIG1        0.1073
     37 O          -8.6107    4.8324    0.0124 O.3     1  LIG1       -0.5029
     38 H          -8.7355    3.8805    0.0145 H       1  LIG1        0.2923
@<TRIPOS>BOND
     1    34    32    1
     2    33    32   ar
     3    33    29   ar
     4    32    31   ar
     5    24    23   ar
     6    24    20   ar
     7    23    29    1
     8    23    22   ar
     9    29    30   ar
    10    15    14   ar
    11    15    11   ar
    12    27    22    1
    13    27    28    1
    14    14    20    1
    15    14    13   ar
    16    20    21   ar
    17    21    22   ar
    18    21    25    1
    19     5     4   ar
    20     5     1   ar
    21    19    18    1
    22    12    13   ar
    23    12    11   ar
    24    12    16    1
    25    18    13    1
    26    25    26    1
    27    11     4    1
    28     4     3   ar
    29     1     6    1
    30     1     2   ar
    31    16    17    1
    32    10     9    1
    33     9     3    1
    34     3     2   ar
    35     2     7    1
    36     7     8    1
    37    31    37    1
    38    31    30   ar
    39    37    38    1
    40    30    35    1
    41    35    36    1
