@<TRIPOS>MOLECULE
mol_data/noopt/geoms/mol2/12gf12gf.out
 20 21 0 0 0
SMALL
GASTEIGER

@<TRIPOS>ATOM
      1 C           0.1763    1.8460    0.0000 C.ar    1  LIG1        0.1096
      2 C           1.5558    1.8460    0.0000 C.ar    1  LIG1        0.0849
      3 C           1.9706    3.2334    0.0000 C.ar    1  LIG1        0.1792
      4 C           0.8165    3.9895   -0.0001 C.ar    1  LIG1        0.2131
      5 O          -0.3030    3.1567   -0.0002 O.2     1  LIG1       -0.4549
      6 H          -0.7504    0.9343    0.0000 H       1  LIG1        0.1042
      7 S           2.3514    0.8180    0.0001 S.3     1  LIG1       -0.1361
      8 H           3.5956    1.2280    0.0001 H       1  LIG1        0.1073
      9 O           3.1998    3.6567    0.0000 O.3     1  LIG1       -0.5024
     10 H           3.2081    4.6167    0.0000 H       1  LIG1        0.2923
     11 C           0.5416    5.2601   -0.0001 C.ar    1  LIG1        0.1901
     12 C           1.2791    6.4258    0.0147 C.ar    1  LIG1        0.0954
     13 C           0.3286    7.5182    0.0040 C.ar    1  LIG1        0.1686
     14 C          -0.9273    6.9473   -0.0167 C.ar    1  LIG1        0.1352
     15 O          -0.8221    5.5559   -0.0197 O.2     1  LIG1       -0.4548
     16 H          -2.1478    7.3944   -0.0335 H       1  LIG1        0.1068
     17 S           2.5731    6.5484    0.0345 S.3     1  LIG1       -0.1354
     18 H           2.8919    7.8190    0.0412 H       1  LIG1        0.1073
     19 O           0.6281    8.7832    0.0126 O.3     1  LIG1       -0.5029
     20 H          -0.1787    9.3035    0.0147 H       1  LIG1        0.2923
@<TRIPOS>BOND
     1    16    14    1
     2    15    14   ar
     3    15    11   ar
     4    14    13   ar
     5     5     4   ar
     6     5     1   ar
     7     4    11    1
     8     4     3   ar
     9    11    12   ar
    10     1     6    1
    11     1     2   ar
    12    10     9    1
    13     9     3    1
    14     3     2   ar
    15     2     7    1
    16     7     8    1
    17    13    19    1
    18    13    12   ar
    19    19    20    1
    20    12    17    1
    21    17    18    1
