@<TRIPOS>MOLECULE
mol_data/noopt/geoms/mol2/12gg12gg-12gg12gg-.out
 38 41 0 0 0
SMALL
GASTEIGER

@<TRIPOS>ATOM
      1 C           0.1763    1.8460    0.0000 C.ar    1  LIG1        0.1069
      2 C           1.5558    1.8460    0.0000 C.ar    1  LIG1        0.0565
      3 C           1.9706    3.2334    0.0000 C.ar    1  LIG1        0.0669
      4 C           0.8165    3.9895   -0.0001 C.ar    1  LIG1        0.1850
      5 O          -0.3030    3.1567   -0.0002 O.2     1  LIG1       -0.4575
      6 H          -0.7504    0.9343    0.0000 H       1  LIG1        0.1041
      7 S           2.3514    0.8180    0.0001 S.3     1  LIG1       -0.1385
      8 H           3.5956    1.2280    0.0001 H       1  LIG1        0.1072
      9 S           3.1997    3.6567    0.0000 S.3     1  LIG1       -0.1378
     10 H           3.2111    4.9666    0.0000 H       1  LIG1        0.1072
     11 C           0.5416    5.2601   -0.0001 C.ar    1  LIG1        0.1860
     12 C           1.2792    6.4258   -0.0001 C.ar    1  LIG1        0.0677
     13 C           0.3286    7.5182   -0.0001 C.ar    1  LIG1        0.0677
     14 C          -0.9274    6.9472   -0.0002 C.ar    1  LIG1        0.1860
     15 O          -0.8223    5.5559   -0.0003 O.2     1  LIG1       -0.4463
     16 S           2.5734    6.5485   -0.0000 S.3     1  LIG1       -0.1378
     17 H           2.8922    7.8191    0.0000 H       1  LIG1        0.1072
     18 S           0.6282    8.7832   -0.0001 S.3     1  LIG1       -0.1378
     19 H          -0.4727    9.4932   -0.0001 H       1  LIG1        0.1072
     20 C          -2.1481    7.3943   -0.0002 C.ar    1  LIG1        0.1860
     21 C          -2.7387    8.6410   -0.0002 C.ar    1  LIG1        0.0677
     22 C          -4.1701    8.4218   -0.0002 C.ar    1  LIG1        0.0677
     23 C          -4.3593    7.0551   -0.0003 C.ar    1  LIG1        0.1860
     24 O          -3.1273    6.4000   -0.0004 O.2     1  LIG1       -0.4463
     25 S          -2.1504    9.8002   -0.0001 S.3     1  LIG1       -0.1378
     26 H          -3.0536   10.7490   -0.0001 H       1  LIG1        0.1072
     27 S          -5.0789    9.3513   -0.0002 S.3     1  LIG1       -0.1378
     28 H          -6.2676    8.8007   -0.0002 H       1  LIG1        0.1072
     29 C          -5.3898    6.2627   -0.0003 C.ar    1  LIG1        0.1850
     30 C          -6.7591    6.4302   -0.0003 C.ar    1  LIG1        0.0669
     31 C          -7.3393    5.1034   -0.0003 C.ar    1  LIG1        0.0565
     32 C          -6.2855    4.2128   -0.0004 C.ar    1  LIG1        0.1069
     33 O          -5.0732    4.9035   -0.0005 O.2     1  LIG1       -0.4575
     34 H          -6.1669    2.9182   -0.0004 H       1  LIG1        0.1041
     35 S          -7.4241    7.5472   -0.0002 S.3     1  LIG1       -0.1378
     36 H          -8.7088    7.2912   -0.0002 H       1  LIG1        0.1072
     37 S          -8.6107    4.8325   -0.0003 S.3     1  LIG1       -0.1385
     38 H          -8.7810    3.5336   -0.0003 H       1  LIG1        0.1072
@<TRIPOS>BOND
     1    33    32   ar
     2    33    29   ar
     3    34    32    1
     4    32    31   ar
     5    24    23   ar
     6    24    20   ar
     7    38    37    1
     8    37    31    1
     9    31    30   ar
    10    30    29   ar
    11    30    35    1
    12    29    23    1
    13    15    14   ar
    14    15    11   ar
    15    23    22   ar
    16    21    20   ar
    17    21    22   ar
    18    21    25    1
    19    20    14    1
    20    22    27    1
    21    27    28    1
    22    35    36    1
    23     5     4   ar
    24     5     1   ar
    25    14    13   ar
    26    18    13    1
    27    18    19    1
    28     4    11    1
    29     4     3   ar
    30    11    12   ar
    31    12    13   ar
    32    12    16    1
    33    25    26    1
    34    16    17    1
    35    10     9    1
    36     9     3    1
    37     6     1    1
    38     1     2   ar
    39     3     2   ar
    40     2     7    1
    41     7     8    1
