@<TRIPOS>MOLECULE
mol_data/noopt/geoms/mol2/12gg12gg-12gg-12gg-.out
 38 41 0 0 0
SMALL
GASTEIGER

@<TRIPOS>ATOM
      1 C           0.1763    1.8460    0.0000 C.ar    1  LIG1        0.1069
      2 C           1.5558    1.8460    0.0000 C.ar    1  LIG1        0.0565
      3 C           1.9706    3.2334    0.0000 C.ar    1  LIG1        0.0669
      4 C           0.8165    3.9895   -0.0001 C.ar    1  LIG1        0.1850
      5 O          -0.3030    3.1567   -0.0002 O.2     1  LIG1       -0.4575
      6 H          -0.7504    0.9343    0.0000 H       1  LIG1        0.1041
      7 S           2.3514    0.8180    0.0001 S.3     1  LIG1       -0.1385
      8 H           3.5956    1.2280    0.0001 H       1  LIG1        0.1072
      9 S           3.1997    3.6567    0.0000 S.3     1  LIG1       -0.1378
     10 H           3.2111    4.9666    0.0000 H       1  LIG1        0.1072
     11 C           0.5416    5.2601   -0.0001 C.ar    1  LIG1        0.1860
     12 C           1.2792    6.4258   -0.0001 C.ar    1  LIG1        0.0677
     13 C           0.3286    7.5182   -0.0001 C.ar    1  LIG1        0.0677
     14 C          -0.9274    6.9472   -0.0002 C.ar    1  LIG1        0.1860
     15 O          -0.8223    5.5559   -0.0003 O.2     1  LIG1       -0.4463
     16 S           2.5734    6.5485   -0.0000 S.3     1  LIG1       -0.1378
     17 H           2.8922    7.8191    0.0000 H       1  LIG1        0.1072
     18 S           0.6282    8.7832   -0.0001 S.3     1  LIG1       -0.1378
     19 H          -0.4727    9.4932   -0.0001 H       1  LIG1        0.1072
     20 C          -2.1481    7.3943   -0.0002 C.ar    1  LIG1        0.1860
     21 C          -2.7388    8.6409    0.0146 C.ar    1  LIG1        0.0677
     22 C          -4.1701    8.4218    0.0039 C.ar    1  LIG1        0.0677
     23 C          -4.3592    7.0552   -0.0168 C.ar    1  LIG1        0.1860
     24 O          -3.1273    6.4001   -0.0198 O.2     1  LIG1       -0.4463
     25 S          -2.1505    9.7999    0.0344 S.3     1  LIG1       -0.1378
     26 H          -3.0537   10.7487    0.0411 H       1  LIG1        0.1072
     27 S          -5.0789    9.3513    0.0125 S.3     1  LIG1       -0.1378
     28 H          -6.2676    8.8006    0.0154 H       1  LIG1        0.1072
     29 C          -5.3897    6.2629   -0.0336 C.ar    1  LIG1        0.1850
     30 C          -6.7589    6.4305   -0.0463 C.ar    1  LIG1        0.0669
     31 C          -7.3391    5.1038   -0.0627 C.ar    1  LIG1        0.0565
     32 C          -6.2854    4.2132   -0.0590 C.ar    1  LIG1        0.1069
     33 O          -5.0731    4.9037   -0.0413 O.2     1  LIG1       -0.4575
     34 H          -6.1668    2.9186   -0.0680 H       1  LIG1        0.1041
     35 S          -7.4238    7.5476   -0.0442 S.3     1  LIG1       -0.1378
     36 H          -8.7086    7.2917   -0.0435 H       1  LIG1        0.1072
     37 S          -8.6105    4.8331   -0.0778 S.3     1  LIG1       -0.1385
     38 H          -8.7808    3.5342   -0.0829 H       1  LIG1        0.1072
@<TRIPOS>BOND
     1    38    37    1
     2    37    31    1
     3    34    32    1
     4    31    32   ar
     5    31    30   ar
     6    32    33   ar
     7    30    35    1
     8    30    29   ar
     9    35    36    1
    10    33    29   ar
    11    29    23    1
    12    24    23   ar
    13    24    20   ar
    14    23    22   ar
    15    15    14   ar
    16    15    11   ar
    17    20    14    1
    18    20    21   ar
    19    14    13   ar
    20     5     4   ar
    21     5     1   ar
    22    18    19    1
    23    18    13    1
    24     4    11    1
    25     4     3   ar
    26    13    12   ar
    27    12    11   ar
    28    12    16    1
    29     2     3   ar
    30     2     1   ar
    31     2     7    1
    32     3     9    1
    33     6     1    1
    34     9    10    1
    35    16    17    1
    36     7     8    1
    37    22    27    1
    38    22    21   ar
    39    27    28    1
    40    21    25    1
    41    25    26    1
