@<TRIPOS>MOLECULE
mol_data/noopt/geoms/mol2/12gg12gg12gg-.out
 29 31 0 0 0
SMALL
GASTEIGER

@<TRIPOS>ATOM
      1 C           0.1763    1.8460    0.0000 C.ar    1  LIG1        0.1069
      2 C           1.5558    1.8460    0.0000 C.ar    1  LIG1        0.0565
      3 C           1.9706    3.2334    0.0000 C.ar    1  LIG1        0.0669
      4 C           0.8165    3.9895   -0.0001 C.ar    1  LIG1        0.1850
      5 O          -0.3030    3.1567   -0.0002 O.2     1  LIG1       -0.4575
      6 H          -0.7504    0.9343    0.0000 H       1  LIG1        0.1041
      7 S           2.3514    0.8180    0.0001 S.3     1  LIG1       -0.1385
      8 H           3.5956    1.2280    0.0001 H       1  LIG1        0.1072
      9 S           3.1997    3.6567    0.0000 S.3     1  LIG1       -0.1378
     10 H           3.2111    4.9666    0.0000 H       1  LIG1        0.1072
     11 C           0.5416    5.2601   -0.0001 C.ar    1  LIG1        0.1860
     12 C           1.2791    6.4258    0.0147 C.ar    1  LIG1        0.0677
     13 C           0.3286    7.5182    0.0040 C.ar    1  LIG1        0.0677
     14 C          -0.9273    6.9473   -0.0167 C.ar    1  LIG1        0.1860
     15 O          -0.8221    5.5559   -0.0197 O.2     1  LIG1       -0.4463
     16 S           2.5731    6.5484    0.0345 S.3     1  LIG1       -0.1378
     17 H           2.8919    7.8190    0.0412 H       1  LIG1        0.1072
     18 S           0.6281    8.7831    0.0126 S.3     1  LIG1       -0.1378
     19 H          -0.4728    9.4931    0.0155 H       1  LIG1        0.1072
     20 C          -2.1478    7.3944   -0.0335 C.ar    1  LIG1        0.1850
     21 C          -2.7386    8.6410   -0.0314 C.ar    1  LIG1        0.0669
     22 C          -4.1697    8.4219   -0.0585 C.ar    1  LIG1        0.0565
     23 C          -4.3586    7.0553   -0.0754 C.ar    1  LIG1        0.1069
     24 O          -3.1268    6.4002   -0.0606 O.2     1  LIG1       -0.4575
     25 H          -5.3889    6.2629   -0.1012 H       1  LIG1        0.1041
     26 S          -2.1504    9.8001   -0.0096 S.3     1  LIG1       -0.1378
     27 H          -3.0539   10.7487   -0.0022 H       1  LIG1        0.1072
     28 S          -5.0785    9.3514   -0.0651 S.3     1  LIG1       -0.1385
     29 H          -6.2671    8.8008   -0.0673 H       1  LIG1        0.1072
@<TRIPOS>BOND
     1    25    23    1
     2    23    24   ar
     3    23    22   ar
     4    29    28    1
     5    28    22    1
     6    24    20   ar
     7    22    21   ar
     8    20    21   ar
     9    20    14    1
    10    21    26    1
    11    15    14   ar
    12    15    11   ar
    13    14    13   ar
    14    26    27    1
    15     5     4   ar
    16     5     1   ar
    17    11     4    1
    18    11    12   ar
    19     4     3   ar
    20     9     3    1
    21     9    10    1
    22     2     3   ar
    23     2     1   ar
    24     2     7    1
    25     6     1    1
    26     7     8    1
    27    13    18    1
    28    13    12   ar
    29    18    19    1
    30    12    16    1
    31    16    17    1
