@<TRIPOS>MOLECULE
mol_data/noopt/geoms/mol2/12gh12gh12gh12gh-.out
 42 45 0 0 0
SMALL
GASTEIGER

@<TRIPOS>ATOM
      1 C           0.1763    1.8460    0.0000 C.ar    1  LIG1        0.1077
      2 C           1.5558    1.8460    0.0000 C.ar    1  LIG1        0.0640
      3 C           1.9706    3.2334    0.0000 C.ar    1  LIG1        0.0874
      4 C           0.8165    3.9895   -0.0001 C.ar    1  LIG1        0.1924
      5 O          -0.3030    3.1567   -0.0002 O.2     1  LIG1       -0.4568
      6 H          -0.7504    0.9343    0.0000 H       1  LIG1        0.1041
      7 S           2.3514    0.8180    0.0001 S.3     1  LIG1       -0.1378
      8 H           3.5956    1.2280    0.0001 H       1  LIG1        0.1073
      9 N           3.1998    3.6567   -0.0000 N.pl3   1  LIG1       -0.3541
     10 H           3.7808    2.9932   -0.4714 H       1  LIG1        0.1425
     11 H           3.2491    4.5372   -0.4714 H       1  LIG1        0.1425
     12 C           0.5416    5.2601   -0.0001 C.ar    1  LIG1        0.1875
     13 C           1.2791    6.4258    0.0147 C.ar    1  LIG1        0.0752
     14 C           0.3286    7.5182    0.0040 C.ar    1  LIG1        0.0882
     15 C          -0.9273    6.9473   -0.0167 C.ar    1  LIG1        0.1935
     16 O          -0.8221    5.5559   -0.0197 O.2     1  LIG1       -0.4455
     17 S           2.5731    6.5484    0.0345 S.3     1  LIG1       -0.1371
     18 H           2.8919    7.8190    0.0412 H       1  LIG1        0.1073
     19 N           0.6281    8.7832    0.0126 N.pl3   1  LIG1       -0.3541
     20 H           1.5001    8.9225   -0.4566 H       1  LIG1        0.1425
     21 H          -0.0889    9.2987   -0.4567 H       1  LIG1        0.1425
     22 C          -2.1478    7.3944   -0.0335 C.ar    1  LIG1        0.1875
     23 C          -2.7383    8.6411   -0.0462 C.ar    1  LIG1        0.0752
     24 C          -4.1697    8.4219   -0.0626 C.ar    1  LIG1        0.0882
     25 C          -4.3589    7.0552   -0.0589 C.ar    1  LIG1        0.1934
     26 O          -3.1271    6.4001   -0.0412 O.2     1  LIG1       -0.4455
     27 S          -2.1499    9.8002   -0.0441 S.3     1  LIG1       -0.1371
     28 H          -3.0531   10.7491   -0.0434 H       1  LIG1        0.1073
     29 N          -5.0783    9.3515   -0.0777 N.pl3   1  LIG1       -0.3541
     30 H          -4.7236   10.1567   -0.5530 H       1  LIG1        0.1425
     31 H          -5.8913    9.0152   -0.5530 H       1  LIG1        0.1425
     32 C          -5.3894    6.2628   -0.0679 C.ar    1  LIG1        0.1865
     33 C          -6.7587    6.4303   -0.0747 C.ar    1  LIG1        0.0745
     34 C          -7.3389    5.1036   -0.0834 C.ar    1  LIG1        0.0769
     35 C          -6.2851    4.2130   -0.0815 C.ar    1  LIG1        0.1144
     36 O          -5.0728    4.9036   -0.0721 O.2     1  LIG1       -0.4567
     37 H          -6.1665    2.9184   -0.0863 H       1  LIG1        0.1049
     38 S          -7.4236    7.5474   -0.0735 S.3     1  LIG1       -0.1371
     39 H          -8.7084    7.2915   -0.0731 H       1  LIG1        0.1073
     40 N          -8.6103    4.8327   -0.0916 N.pl3   1  LIG1       -0.3547
     41 H          -9.1036    5.5625   -0.5650 H       1  LIG1        0.1424
     42 H          -8.7633    3.9653   -0.5651 H       1  LIG1        0.1424
@<TRIPOS>BOND
     1    42    40    1
     2    41    40    1
     3    31    29    1
     4    30    29    1
     5    11     9    1
     6    10     9    1
     7    21    19    1
     8    20    19    1
     9    40    34    1
    10    37    35    1
    11    34    35   ar
    12    34    33   ar
    13    35    36   ar
    14    29    24    1
    15    33    38    1
    16    33    32   ar
    17    38    39    1
    18    36    32   ar
    19    32    25    1
    20    24    25   ar
    21    24    23   ar
    22    25    26   ar
    23    23    27    1
    24    23    22   ar
    25    27    28    1
    26    26    22   ar
    27    22    15    1
    28    16    15   ar
    29    16    12   ar
    30    15    14   ar
    31     5     4   ar
    32     5     1   ar
    33     4    12    1
    34     4     3   ar
    35    12    13   ar
    36     2     1   ar
    37     2     3   ar
    38     2     7    1
    39     1     6    1
    40     3     9    1
    41     7     8    1
    42    14    19    1
    43    14    13   ar
    44    13    17    1
    45    17    18    1
