@<TRIPOS>MOLECULE
mol_data/noopt/geoms/mol2/12gh12gh12gh-.out
 32 34 0 0 0
SMALL
GASTEIGER

@<TRIPOS>ATOM
      1 C           0.1763    1.8460    0.0000 C.ar    1  LIG1        0.1077
      2 C           1.5558    1.8460    0.0000 C.ar    1  LIG1        0.0640
      3 C           1.9706    3.2334    0.0000 C.ar    1  LIG1        0.0874
      4 C           0.8165    3.9895   -0.0001 C.ar    1  LIG1        0.1924
      5 O          -0.3030    3.1567   -0.0002 O.2     1  LIG1       -0.4568
      6 H          -0.7504    0.9343    0.0000 H       1  LIG1        0.1041
      7 S           2.3514    0.8180    0.0001 S.3     1  LIG1       -0.1378
      8 H           3.5956    1.2280    0.0001 H       1  LIG1        0.1073
      9 N           3.1998    3.6567   -0.0000 N.pl3   1  LIG1       -0.3541
     10 H           3.7808    2.9932   -0.4714 H       1  LIG1        0.1425
     11 H           3.2491    4.5372   -0.4714 H       1  LIG1        0.1425
     12 C           0.5416    5.2601   -0.0001 C.ar    1  LIG1        0.1875
     13 C           1.2791    6.4258    0.0147 C.ar    1  LIG1        0.0752
     14 C           0.3286    7.5182    0.0040 C.ar    1  LIG1        0.0882
     15 C          -0.9273    6.9473   -0.0167 C.ar    1  LIG1        0.1934
     16 O          -0.8221    5.5559   -0.0197 O.2     1  LIG1       -0.4455
     17 S           2.5731    6.5484    0.0345 S.3     1  LIG1       -0.1371
     18 H           2.8919    7.8190    0.0412 H       1  LIG1        0.1073
     19 N           0.6281    8.7832    0.0126 N.pl3   1  LIG1       -0.3541
     20 H           1.5001    8.9225   -0.4566 H       1  LIG1        0.1425
     21 H          -0.0889    9.2987   -0.4567 H       1  LIG1        0.1425
     22 C          -2.1478    7.3944   -0.0335 C.ar    1  LIG1        0.1865
     23 C          -2.7386    8.6410   -0.0314 C.ar    1  LIG1        0.0745
     24 C          -4.1697    8.4219   -0.0585 C.ar    1  LIG1        0.0769
     25 C          -4.3586    7.0553   -0.0754 C.ar    1  LIG1        0.1144
     26 O          -3.1268    6.4002   -0.0606 O.2     1  LIG1       -0.4567
     27 H          -5.3889    6.2629   -0.1012 H       1  LIG1        0.1049
     28 S          -2.1504    9.8001   -0.0096 S.3     1  LIG1       -0.1371
     29 H          -3.0539   10.7487   -0.0022 H       1  LIG1        0.1073
     30 N          -5.0785    9.3515   -0.0651 N.pl3   1  LIG1       -0.3547
     31 H          -4.7260   10.1589   -0.5382 H       1  LIG1        0.1424
     32 H          -5.8937    9.0173   -0.5382 H       1  LIG1        0.1424
@<TRIPOS>BOND
     1    32    30    1
     2    31    30    1
     3    11     9    1
     4    10     9    1
     5    21    19    1
     6    20    19    1
     7    27    25    1
     8    25    26   ar
     9    25    24   ar
    10    30    24    1
    11    26    22   ar
    12    24    23   ar
    13    22    23   ar
    14    22    15    1
    15    23    28    1
    16    16    15   ar
    17    16    12   ar
    18    15    14   ar
    19    28    29    1
    20     5     4   ar
    21     5     1   ar
    22     4    12    1
    23     4     3   ar
    24    12    13   ar
    25     1     6    1
    26     1     2   ar
    27     9     3    1
    28     3     2   ar
    29     2     7    1
    30     7     8    1
    31    14    19    1
    32    14    13   ar
    33    13    17    1
    34    17    18    1
