@<TRIPOS>MOLECULE
mol_data/noopt/geoms/mol2/12gh12gh-12gh-12gh.out
 42 45 0 0 0
SMALL
GASTEIGER

@<TRIPOS>ATOM
      1 C           0.1763    1.8460    0.0000 C.ar    1  LIG1        0.1077
      2 C           1.5558    1.8460    0.0000 C.ar    1  LIG1        0.0640
      3 C           1.9706    3.2334    0.0000 C.ar    1  LIG1        0.0874
      4 C           0.8165    3.9895   -0.0001 C.ar    1  LIG1        0.1924
      5 O          -0.3030    3.1567   -0.0002 O.2     1  LIG1       -0.4568
      6 H          -0.7504    0.9343    0.0000 H       1  LIG1        0.1041
      7 S           2.3514    0.8180    0.0001 S.3     1  LIG1       -0.1378
      8 H           3.5956    1.2280    0.0001 H       1  LIG1        0.1073
      9 N           3.1998    3.6567   -0.0000 N.pl3   1  LIG1       -0.3541
     10 H           3.7808    2.9932   -0.4714 H       1  LIG1        0.1425
     11 H           3.2491    4.5372   -0.4714 H       1  LIG1        0.1425
     12 C           0.5416    5.2601   -0.0001 C.ar    1  LIG1        0.1875
     13 C           1.2792    6.4258   -0.0001 C.ar    1  LIG1        0.0752
     14 C           0.3286    7.5182   -0.0001 C.ar    1  LIG1        0.0882
     15 C          -0.9274    6.9472   -0.0002 C.ar    1  LIG1        0.1935
     16 O          -0.8223    5.5559   -0.0003 O.2     1  LIG1       -0.4455
     17 S           2.5734    6.5485   -0.0000 S.3     1  LIG1       -0.1371
     18 H           2.8922    7.8191    0.0000 H       1  LIG1        0.1073
     19 N           0.6282    8.7832   -0.0001 N.pl3   1  LIG1       -0.3541
     20 H           1.4995    8.9194   -0.4715 H       1  LIG1        0.1425
     21 H          -0.0895    9.2957   -0.4715 H       1  LIG1        0.1425
     22 C          -2.1481    7.3943   -0.0002 C.ar    1  LIG1        0.1875
     23 C          -2.7388    8.6409    0.0146 C.ar    1  LIG1        0.0752
     24 C          -4.1701    8.4218    0.0039 C.ar    1  LIG1        0.0882
     25 C          -4.3592    7.0552   -0.0168 C.ar    1  LIG1        0.1934
     26 O          -3.1273    6.4001   -0.0198 O.2     1  LIG1       -0.4455
     27 S          -2.1505    9.7999    0.0344 S.3     1  LIG1       -0.1371
     28 H          -3.0537   10.7487    0.0411 H       1  LIG1        0.1073
     29 N          -5.0790    9.3513    0.0125 N.pl3   1  LIG1       -0.3541
     30 H          -4.7304   10.1627   -0.4567 H       1  LIG1        0.1425
     31 H          -5.8980    9.0211   -0.4568 H       1  LIG1        0.1425
     32 C          -5.3897    6.2629   -0.0336 C.ar    1  LIG1        0.1865
     33 C          -6.7590    6.4303   -0.0315 C.ar    1  LIG1        0.0745
     34 C          -7.3391    5.1038   -0.0586 C.ar    1  LIG1        0.0769
     35 C          -6.2853    4.2134   -0.0755 C.ar    1  LIG1        0.1144
     36 O          -5.0730    4.9040   -0.0607 O.2     1  LIG1       -0.4567
     37 H          -6.1666    2.9191   -0.1013 H       1  LIG1        0.1049
     38 S          -7.4240    7.5471   -0.0097 S.3     1  LIG1       -0.1371
     39 H          -8.7087    7.2909   -0.0023 H       1  LIG1        0.1073
     40 N          -8.6106    4.8329   -0.0652 N.pl3   1  LIG1       -0.3547
     41 H          -9.1044    5.5625   -0.5383 H       1  LIG1        0.1424
     42 H          -8.7641    3.9654   -0.5383 H       1  LIG1        0.1424
@<TRIPOS>BOND
     1    42    40    1
     2    41    40    1
     3    21    19    1
     4    20    19    1
     5    11     9    1
     6    10     9    1
     7    31    29    1
     8    30    29    1
     9    37    35    1
    10    35    36   ar
    11    35    34   ar
    12    40    34    1
    13    36    32   ar
    14    34    33   ar
    15    32    33   ar
    16    32    25    1
    17    33    38    1
    18    26    25   ar
    19    26    22   ar
    20    25    24   ar
    21    38    39    1
    22    16    15   ar
    23    16    12   ar
    24    22    15    1
    25    22    23   ar
    26     5     4   ar
    27     5     1   ar
    28    15    14   ar
    29    19    14    1
    30     4    12    1
    31     4     3   ar
    32    12    13   ar
    33    14    13   ar
    34    13    17    1
    35     2     1   ar
    36     2     3   ar
    37     2     7    1
    38     1     6    1
    39     3     9    1
    40    17    18    1
    41     7     8    1
    42    24    29    1
    43    24    23   ar
    44    23    27    1
    45    27    28    1
