@<TRIPOS>MOLECULE
mol_data/noopt/geoms/mol2/12gh.out
 12 12 0 0 0
SMALL
GASTEIGER

@<TRIPOS>ATOM
      1 C           0.1763    1.8460    0.0000 C.ar    1  LIG1        0.1067
      2 C           1.5558    1.8460    0.0000 C.ar    1  LIG1        0.0633
      3 C           1.9706    3.2334    0.0000 C.ar    1  LIG1        0.0762
      4 C           0.8165    3.9895   -0.0001 C.ar    1  LIG1        0.1134
      5 O          -0.3030    3.1567   -0.0002 O.2     1  LIG1       -0.4680
      6 H          -0.7504    0.9343    0.0000 H       1  LIG1        0.1041
      7 H           0.5416    5.2601   -0.0001 H       1  LIG1        0.1049
      8 S           2.3514    0.8180    0.0001 S.3     1  LIG1       -0.1378
      9 H           3.5956    1.2280    0.0001 H       1  LIG1        0.1073
     10 N           3.1998    3.6567   -0.0000 N.pl3   1  LIG1       -0.3547
     11 H           3.7808    2.9932   -0.4714 H       1  LIG1        0.1424
     12 H           3.2491    4.5372   -0.4714 H       1  LIG1        0.1424
@<TRIPOS>BOND
     1    12    10    1
     2    11    10    1
     3     5     4   ar
     4     5     1   ar
     5     4     7    1
     6     4     3   ar
     7     1     2   ar
     8     1     6    1
     9     2     3   ar
    10     2     8    1
    11     3    10    1
    12     8     9    1
