@<TRIPOS>MOLECULE
mol_data/noopt/geoms/mol2/12gh12gh-12gh12gh.out
 42 45 0 0 0
SMALL
GASTEIGER

@<TRIPOS>ATOM
      1 C           0.1763    1.8460    0.0000 C.ar    1  LIG1        0.1077
      2 C           1.5558    1.8460    0.0000 C.ar    1  LIG1        0.0640
      3 C           1.9706    3.2334    0.0000 C.ar    1  LIG1        0.0874
      4 C           0.8165    3.9895   -0.0001 C.ar    1  LIG1        0.1924
      5 O          -0.3030    3.1567   -0.0002 O.2     1  LIG1       -0.4568
      6 H          -0.7504    0.9343    0.0000 H       1  LIG1        0.1041
      7 S           2.3514    0.8180    0.0001 S.3     1  LIG1       -0.1378
      8 H           3.5956    1.2280    0.0001 H       1  LIG1        0.1073
      9 N           3.1998    3.6567   -0.0000 N.pl3   1  LIG1       -0.3541
     10 H           3.7808    2.9932   -0.4714 H       1  LIG1        0.1425
     11 H           3.2491    4.5372   -0.4714 H       1  LIG1        0.1425
     12 C           0.5416    5.2601   -0.0001 C.ar    1  LIG1        0.1875
     13 C           1.2792    6.4258   -0.0001 C.ar    1  LIG1        0.0752
     14 C           0.3286    7.5182   -0.0001 C.ar    1  LIG1        0.0882
     15 C          -0.9274    6.9472   -0.0002 C.ar    1  LIG1        0.1935
     16 O          -0.8223    5.5559   -0.0003 O.2     1  LIG1       -0.4455
     17 S           2.5734    6.5485   -0.0000 S.3     1  LIG1       -0.1371
     18 H           2.8922    7.8191    0.0000 H       1  LIG1        0.1073
     19 N           0.6282    8.7832   -0.0001 N.pl3   1  LIG1       -0.3541
     20 H           1.4995    8.9194   -0.4715 H       1  LIG1        0.1425
     21 H          -0.0895    9.2957   -0.4715 H       1  LIG1        0.1425
     22 C          -2.1481    7.3943   -0.0002 C.ar    1  LIG1        0.1875
     23 C          -2.7387    8.6410   -0.0002 C.ar    1  LIG1        0.0752
     24 C          -4.1701    8.4218   -0.0002 C.ar    1  LIG1        0.0882
     25 C          -4.3593    7.0551   -0.0003 C.ar    1  LIG1        0.1934
     26 O          -3.1273    6.4000   -0.0004 O.2     1  LIG1       -0.4455
     27 S          -2.1504    9.8002   -0.0001 S.3     1  LIG1       -0.1371
     28 H          -3.0536   10.7490   -0.0001 H       1  LIG1        0.1073
     29 N          -5.0790    9.3514   -0.0002 N.pl3   1  LIG1       -0.3541
     30 H          -4.7281   10.1605   -0.4716 H       1  LIG1        0.1425
     31 H          -5.8958    9.0190   -0.4716 H       1  LIG1        0.1425
     32 C          -5.3898    6.2627   -0.0003 C.ar    1  LIG1        0.1865
     33 C          -6.7590    6.4301    0.0145 C.ar    1  LIG1        0.0745
     34 C          -7.3393    5.1034    0.0038 C.ar    1  LIG1        0.0769
     35 C          -6.2856    4.2129   -0.0169 C.ar    1  LIG1        0.1144
     36 O          -5.0733    4.9036   -0.0199 O.2     1  LIG1       -0.4567
     37 H          -6.1671    2.9184   -0.0337 H       1  LIG1        0.1049
     38 S          -7.4239    7.5470    0.0343 S.3     1  LIG1       -0.1371
     39 H          -8.7086    7.2910    0.0410 H       1  LIG1        0.1073
     40 N          -8.6107    4.8324    0.0124 N.pl3   1  LIG1       -0.3547
     41 H          -9.1099    5.5608   -0.4568 H       1  LIG1        0.1424
     42 H          -8.7695    3.9637   -0.4569 H       1  LIG1        0.1424
@<TRIPOS>BOND
     1    31    29    1
     2    30    29    1
     3    21    19    1
     4    20    19    1
     5    11     9    1
     6    10     9    1
     7    42    40    1
     8    41    40    1
     9    37    35    1
    10    36    35   ar
    11    36    32   ar
    12    35    34   ar
    13    26    25   ar
    14    26    22   ar
    15    32    25    1
    16    32    33   ar
    17    25    24   ar
    18    16    15   ar
    19    16    12   ar
    20    22    23   ar
    21    22    15    1
    22    29    24    1
    23    24    23   ar
    24    23    27    1
    25    15    14   ar
    26     5     4   ar
    27     5     1   ar
    28    19    14    1
    29     4    12    1
    30     4     3   ar
    31    14    13   ar
    32    13    12   ar
    33    13    17    1
    34    27    28    1
    35     2     3   ar
    36     2     1   ar
    37     2     7    1
    38     3     9    1
    39     6     1    1
    40    17    18    1
    41     7     8    1
    42    34    40    1
    43    34    33   ar
    44    33    38    1
    45    38    39    1
