@<TRIPOS>MOLECULE
mol_data/noopt/geoms/mol2/12gh12gh.out
 22 23 0 0 0
SMALL
GASTEIGER

@<TRIPOS>ATOM
      1 C           0.1763    1.8460    0.0000 C.ar    1  LIG1        0.1077
      2 C           1.5558    1.8460    0.0000 C.ar    1  LIG1        0.0640
      3 C           1.9706    3.2334    0.0000 C.ar    1  LIG1        0.0874
      4 C           0.8165    3.9895   -0.0001 C.ar    1  LIG1        0.1924
      5 O          -0.3030    3.1567   -0.0002 O.2     1  LIG1       -0.4568
      6 H          -0.7504    0.9343    0.0000 H       1  LIG1        0.1041
      7 S           2.3514    0.8180    0.0001 S.3     1  LIG1       -0.1378
      8 H           3.5956    1.2280    0.0001 H       1  LIG1        0.1073
      9 N           3.1998    3.6567   -0.0000 N.pl3   1  LIG1       -0.3541
     10 H           3.7808    2.9932   -0.4714 H       1  LIG1        0.1425
     11 H           3.2491    4.5372   -0.4714 H       1  LIG1        0.1425
     12 C           0.5416    5.2601   -0.0001 C.ar    1  LIG1        0.1865
     13 C           1.2791    6.4258    0.0147 C.ar    1  LIG1        0.0745
     14 C           0.3286    7.5182    0.0040 C.ar    1  LIG1        0.0769
     15 C          -0.9273    6.9473   -0.0167 C.ar    1  LIG1        0.1144
     16 O          -0.8221    5.5559   -0.0197 O.2     1  LIG1       -0.4567
     17 H          -2.1478    7.3944   -0.0335 H       1  LIG1        0.1049
     18 S           2.5731    6.5484    0.0345 S.3     1  LIG1       -0.1371
     19 H           2.8919    7.8190    0.0412 H       1  LIG1        0.1073
     20 N           0.6281    8.7832    0.0126 N.pl3   1  LIG1       -0.3547
     21 H           1.5001    8.9225   -0.4566 H       1  LIG1        0.1424
     22 H          -0.0889    9.2987   -0.4567 H       1  LIG1        0.1424
@<TRIPOS>BOND
     1    11     9    1
     2    10     9    1
     3    22    20    1
     4    21    20    1
     5    17    15    1
     6    16    15   ar
     7    16    12   ar
     8    15    14   ar
     9     5     4   ar
    10     5     1   ar
    11    12     4    1
    12    12    13   ar
    13     4     3   ar
    14     9     3    1
    15     1     6    1
    16     1     2   ar
    17     3     2   ar
    18     2     7    1
    19     7     8    1
    20    14    20    1
    21    14    13   ar
    22    13    18    1
    23    18    19    1
