@<TRIPOS>MOLECULE
mol_data/noopt/geoms/mol2/12gi12gi-12gi12gi.out
 46 49 0 0 0
SMALL
GASTEIGER

@<TRIPOS>ATOM
      1 C           0.1763    1.8460    0.0000 C.ar    1  LIG1        0.1061
      2 C           1.5558    1.8460    0.0000 C.ar    1  LIG1        0.0462
      3 C           1.9706    3.2334    0.0000 C.ar    1  LIG1        0.0116
      4 C           0.8165    3.9895   -0.0001 C.ar    1  LIG1        0.1748
      5 O          -0.3030    3.1567   -0.0002 O.2     1  LIG1       -0.4584
      6 H          -0.7504    0.9343    0.0000 H       1  LIG1        0.1041
      7 S           2.3514    0.8180    0.0001 S.3     1  LIG1       -0.1393
      8 H           3.5956    1.2280    0.0001 H       1  LIG1        0.1072
      9 C           3.2001    3.6568    0.0000 C.3     1  LIG1       -0.0350
     10 H           3.2528    4.5990    0.5044 H       1  LIG1        0.0279
     11 H           3.5373    3.7730   -1.0088 H       1  LIG1        0.0279
     12 H           3.8217    2.9468    0.5044 H       1  LIG1        0.0279
     13 C           0.5416    5.2601   -0.0001 C.ar    1  LIG1        0.1843
     14 C           1.2792    6.4258   -0.0001 C.ar    1  LIG1        0.0573
     15 C           0.3286    7.5182   -0.0001 C.ar    1  LIG1        0.0123
     16 C          -0.9274    6.9472   -0.0002 C.ar    1  LIG1        0.1758
     17 O          -0.8223    5.5559   -0.0003 O.2     1  LIG1       -0.4472
     18 S           2.5734    6.5485   -0.0000 S.3     1  LIG1       -0.1386
     19 H           2.8922    7.8191    0.0000 H       1  LIG1        0.1072
     20 C           0.6283    8.7835   -0.0001 C.3     1  LIG1       -0.0349
     21 H          -0.1397    9.3319    0.5043 H       1  LIG1        0.0279
     22 H           0.7104    9.1306   -1.0089 H       1  LIG1        0.0279
     23 H           1.5606    8.9292    0.5043 H       1  LIG1        0.0279
     24 C          -2.1481    7.3943   -0.0002 C.ar    1  LIG1        0.1843
     25 C          -2.7387    8.6410   -0.0002 C.ar    1  LIG1        0.0573
     26 C          -4.1701    8.4218   -0.0002 C.ar    1  LIG1        0.0123
     27 C          -4.3593    7.0551   -0.0003 C.ar    1  LIG1        0.1758
     28 O          -3.1273    6.4000   -0.0004 O.2     1  LIG1       -0.4472
     29 S          -2.1504    9.8002   -0.0001 S.3     1  LIG1       -0.1386
     30 H          -3.0536   10.7490   -0.0001 H       1  LIG1        0.1072
     31 C          -5.0792    9.3516   -0.0002 C.3     1  LIG1       -0.0349
     32 H          -5.9532    8.9959    0.5042 H       1  LIG1        0.0279
     33 H          -5.3286    9.6066   -1.0090 H       1  LIG1        0.0279
     34 H          -4.7037   10.2174    0.5042 H       1  LIG1        0.0279
     35 C          -5.3898    6.2627   -0.0003 C.ar    1  LIG1        0.1833
     36 C          -6.7590    6.4301    0.0145 C.ar    1  LIG1        0.0566
     37 C          -7.3393    5.1034    0.0038 C.ar    1  LIG1        0.0012
     38 C          -6.2856    4.2129   -0.0169 C.ar    1  LIG1        0.0967
     39 O          -5.0733    4.9036   -0.0199 O.2     1  LIG1       -0.4584
     40 H          -6.1671    2.9184   -0.0337 H       1  LIG1        0.1032
     41 S          -7.4239    7.5470    0.0343 S.3     1  LIG1       -0.1386
     42 H          -8.7086    7.2910    0.0410 H       1  LIG1        0.1072
     43 C          -8.6110    4.8323    0.0124 C.3     1  LIG1       -0.0357
     44 H          -8.7745    3.9042    0.5192 H       1  LIG1        0.0279
     45 H          -8.9663    4.7565   -0.9941 H       1  LIG1        0.0279
     46 H          -9.1386    5.6132    0.5191 H       1  LIG1        0.0279
@<TRIPOS>BOND
     1    33    31    1
     2    22    20    1
     3    11     9    1
     4    45    43    1
     5    40    38    1
     6    39    38   ar
     7    39    35   ar
     8    38    37   ar
     9    28    27   ar
    10    28    24   ar
    11    17    16   ar
    12    17    13   ar
    13    35    27    1
    14    35    36   ar
    15    27    26   ar
    16    31    26    1
    17    31    34    1
    18    31    32    1
    19    16    24    1
    20    16    15   ar
    21    26    25   ar
    22    24    25   ar
    23     5     4   ar
    24     5     1   ar
    25    25    29    1
    26    13    14   ar
    27    13     4    1
    28    20    15    1
    29    20    23    1
    30    20    21    1
    31    29    30    1
    32    15    14   ar
    33    14    18    1
    34     4     3   ar
    35     1     2   ar
    36     1     6    1
    37     2     3   ar
    38     2     7    1
    39    18    19    1
    40     9     3    1
    41     9    12    1
    42     9    10    1
    43     7     8    1
    44    37    43    1
    45    37    36   ar
    46    43    46    1
    47    43    44    1
    48    36    41    1
    49    41    42    1
