@<TRIPOS>MOLECULE
mol_data/noopt/geoms/mol2/12gi.out
 13 13 0 0 0
SMALL
GASTEIGER

@<TRIPOS>ATOM
      1 C           0.1763    1.8460    0.0000 C.ar    1  LIG1        0.1051
      2 C           1.5558    1.8460    0.0000 C.ar    1  LIG1        0.0454
      3 C           1.9706    3.2334    0.0000 C.ar    1  LIG1        0.0004
      4 C           0.8165    3.9895   -0.0001 C.ar    1  LIG1        0.0957
      5 O          -0.3030    3.1567   -0.0002 O.2     1  LIG1       -0.4696
      6 H          -0.7504    0.9343    0.0000 H       1  LIG1        0.1041
      7 H           0.5416    5.2601   -0.0001 H       1  LIG1        0.1032
      8 S           2.3514    0.8180    0.0001 S.3     1  LIG1       -0.1393
      9 H           3.5956    1.2280    0.0001 H       1  LIG1        0.1072
     10 C           3.2001    3.6568    0.0000 C.3     1  LIG1       -0.0357
     11 H           3.2528    4.5990    0.5044 H       1  LIG1        0.0279
     12 H           3.5373    3.7730   -1.0088 H       1  LIG1        0.0279
     13 H           3.8217    2.9468    0.5044 H       1  LIG1        0.0279
@<TRIPOS>BOND
     1    12    10    1
     2     5     4   ar
     3     5     1   ar
     4     4     7    1
     5     4     3   ar
     6     1     2   ar
     7     1     6    1
     8     2     3   ar
     9     2     8    1
    10     3    10    1
    11    10    13    1
    12    10    11    1
    13     8     9    1
