@<TRIPOS>MOLECULE
mol_data/noopt/geoms/mol2/12gi12gi12gi12gi.out
 46 49 0 0 0
SMALL
GASTEIGER

@<TRIPOS>ATOM
      1 C           0.1763    1.8460    0.0000 C.ar    1  LIG1        0.1061
      2 C           1.5558    1.8460    0.0000 C.ar    1  LIG1        0.0462
      3 C           1.9706    3.2334    0.0000 C.ar    1  LIG1        0.0116
      4 C           0.8165    3.9895   -0.0001 C.ar    1  LIG1        0.1748
      5 O          -0.3030    3.1567   -0.0002 O.2     1  LIG1       -0.4584
      6 H          -0.7504    0.9343    0.0000 H       1  LIG1        0.1041
      7 S           2.3514    0.8180    0.0001 S.3     1  LIG1       -0.1393
      8 H           3.5956    1.2280    0.0001 H       1  LIG1        0.1072
      9 C           3.2001    3.6568    0.0000 C.3     1  LIG1       -0.0350
     10 H           3.2528    4.5990    0.5044 H       1  LIG1        0.0279
     11 H           3.5373    3.7730   -1.0088 H       1  LIG1        0.0279
     12 H           3.8217    2.9468    0.5044 H       1  LIG1        0.0279
     13 C           0.5416    5.2601   -0.0001 C.ar    1  LIG1        0.1843
     14 C           1.2791    6.4258    0.0147 C.ar    1  LIG1        0.0573
     15 C           0.3286    7.5182    0.0040 C.ar    1  LIG1        0.0123
     16 C          -0.9273    6.9473   -0.0167 C.ar    1  LIG1        0.1758
     17 O          -0.8221    5.5559   -0.0197 O.2     1  LIG1       -0.4472
     18 S           2.5731    6.5484    0.0345 S.3     1  LIG1       -0.1386
     19 H           2.8919    7.8190    0.0412 H       1  LIG1        0.1072
     20 C           0.6282    8.7835    0.0126 C.3     1  LIG1       -0.0349
     21 H          -0.1406    9.3286    0.5194 H       1  LIG1        0.0279
     22 H           0.7118    9.1371   -0.9939 H       1  LIG1        0.0279
     23 H           1.5598    8.9260    0.5193 H       1  LIG1        0.0279
     24 C          -2.1478    7.3944   -0.0335 C.ar    1  LIG1        0.1843
     25 C          -2.7383    8.6411   -0.0462 C.ar    1  LIG1        0.0573
     26 C          -4.1697    8.4219   -0.0626 C.ar    1  LIG1        0.0123
     27 C          -4.3589    7.0552   -0.0589 C.ar    1  LIG1        0.1758
     28 O          -3.1271    6.4001   -0.0412 O.2     1  LIG1       -0.4472
     29 S          -2.1499    9.8002   -0.0441 S.3     1  LIG1       -0.1386
     30 H          -3.0531   10.7491   -0.0434 H       1  LIG1        0.1072
     31 C          -5.0785    9.3517   -0.0777 C.3     1  LIG1       -0.0349
     32 H          -5.9567    9.0003    0.4225 H       1  LIG1        0.0279
     33 H          -5.3197    9.5983   -1.0907 H       1  LIG1        0.0279
     34 H          -4.7071   10.2217    0.4224 H       1  LIG1        0.0279
     35 C          -5.3894    6.2628   -0.0679 C.ar    1  LIG1        0.1833
     36 C          -6.7587    6.4302   -0.0599 C.ar    1  LIG1        0.0566
     37 C          -7.3389    5.1036   -0.0793 C.ar    1  LIG1        0.0012
     38 C          -6.2851    4.2131   -0.0980 C.ar    1  LIG1        0.0967
     39 O          -5.0728    4.9038   -0.0915 O.2     1  LIG1       -0.4584
     40 H          -6.1665    2.9187   -0.1196 H       1  LIG1        0.1032
     41 S          -7.4236    7.5470   -0.0390 S.3     1  LIG1       -0.1386
     42 H          -8.7084    7.2909   -0.0320 H       1  LIG1        0.1072
     43 C          -8.6106    4.8325   -0.0789 C.3     1  LIG1       -0.0357
     44 H          -8.7772    3.9038    0.4257 H       1  LIG1        0.0279
     45 H          -8.9598    4.7580   -1.0876 H       1  LIG1        0.0279
     46 H          -9.1414    5.6127    0.4256 H       1  LIG1        0.0279
@<TRIPOS>BOND
     1    33    31    1
     2    45    43    1
     3    11     9    1
     4    22    20    1
     5    40    38    1
     6    38    39   ar
     7    38    37   ar
     8    39    35   ar
     9    37    43    1
    10    37    36   ar
    11    43    46    1
    12    43    44    1
    13    31    26    1
    14    31    34    1
    15    31    32    1
    16    35    36   ar
    17    35    27    1
    18    26    27   ar
    19    26    25   ar
    20    36    41    1
    21    27    28   ar
    22    25    29    1
    23    25    24   ar
    24    29    30    1
    25    28    24   ar
    26    41    42    1
    27    24    16    1
    28    17    16   ar
    29    17    13   ar
    30    16    15   ar
    31     5     4   ar
    32     5     1   ar
    33    13     4    1
    34    13    14   ar
    35     4     3   ar
    36     1     2   ar
    37     1     6    1
    38     2     3   ar
    39     2     7    1
    40     9     3    1
    41     9    12    1
    42     9    10    1
    43     7     8    1
    44    15    20    1
    45    15    14   ar
    46    20    23    1
    47    20    21    1
    48    14    18    1
    49    18    19    1
