@<TRIPOS>MOLECULE
mol_data/noopt/geoms/mol2/12gi12gi-12gi.out
 35 37 0 0 0
SMALL
GASTEIGER

@<TRIPOS>ATOM
      1 C           0.1763    1.8460    0.0000 C.ar    1  LIG1        0.1061
      2 C           1.5558    1.8460    0.0000 C.ar    1  LIG1        0.0462
      3 C           1.9706    3.2334    0.0000 C.ar    1  LIG1        0.0116
      4 C           0.8165    3.9895   -0.0001 C.ar    1  LIG1        0.1748
      5 O          -0.3030    3.1567   -0.0002 O.2     1  LIG1       -0.4584
      6 H          -0.7504    0.9343    0.0000 H       1  LIG1        0.1041
      7 S           2.3514    0.8180    0.0001 S.3     1  LIG1       -0.1393
      8 H           3.5956    1.2280    0.0001 H       1  LIG1        0.1072
      9 C           3.2001    3.6568    0.0000 C.3     1  LIG1       -0.0350
     10 H           3.2528    4.5990    0.5044 H       1  LIG1        0.0279
     11 H           3.5373    3.7730   -1.0088 H       1  LIG1        0.0279
     12 H           3.8217    2.9468    0.5044 H       1  LIG1        0.0279
     13 C           0.5416    5.2601   -0.0001 C.ar    1  LIG1        0.1843
     14 C           1.2792    6.4258   -0.0001 C.ar    1  LIG1        0.0573
     15 C           0.3286    7.5182   -0.0001 C.ar    1  LIG1        0.0123
     16 C          -0.9274    6.9472   -0.0002 C.ar    1  LIG1        0.1758
     17 O          -0.8223    5.5559   -0.0003 O.2     1  LIG1       -0.4472
     18 S           2.5734    6.5485   -0.0000 S.3     1  LIG1       -0.1386
     19 H           2.8922    7.8191    0.0000 H       1  LIG1        0.1072
     20 C           0.6283    8.7835   -0.0001 C.3     1  LIG1       -0.0349
     21 H          -0.1397    9.3319    0.5043 H       1  LIG1        0.0279
     22 H           0.7104    9.1306   -1.0089 H       1  LIG1        0.0279
     23 H           1.5606    8.9292    0.5043 H       1  LIG1        0.0279
     24 C          -2.1481    7.3943   -0.0002 C.ar    1  LIG1        0.1833
     25 C          -2.7387    8.6410   -0.0002 C.ar    1  LIG1        0.0566
     26 C          -4.1701    8.4218   -0.0002 C.ar    1  LIG1        0.0012
     27 C          -4.3593    7.0551   -0.0003 C.ar    1  LIG1        0.0967
     28 O          -3.1273    6.4000   -0.0004 O.2     1  LIG1       -0.4584
     29 H          -5.3898    6.2627   -0.0003 H       1  LIG1        0.1032
     30 S          -2.1504    9.8002   -0.0001 S.3     1  LIG1       -0.1386
     31 H          -3.0536   10.7490   -0.0001 H       1  LIG1        0.1072
     32 C          -5.0792    9.3516   -0.0002 C.3     1  LIG1       -0.0357
     33 H          -5.9532    8.9959    0.5042 H       1  LIG1        0.0279
     34 H          -5.3286    9.6066   -1.0090 H       1  LIG1        0.0279
     35 H          -4.7037   10.2174    0.5042 H       1  LIG1        0.0279
@<TRIPOS>BOND
     1    34    32    1
     2    22    20    1
     3    11     9    1
     4    28    27   ar
     5    28    24   ar
     6    29    27    1
     7    27    26   ar
     8    17    16   ar
     9    17    13   ar
    10     5     4   ar
    11     5     1   ar
    12    32    26    1
    13    32    35    1
    14    32    33    1
    15    24    25   ar
    16    24    16    1
    17    26    25   ar
    18    25    30    1
    19    16    15   ar
    20    13    14   ar
    21    13     4    1
    22    20    15    1
    23    20    23    1
    24    20    21    1
    25    15    14   ar
    26    14    18    1
    27     4     3   ar
    28    30    31    1
    29     1     6    1
    30     1     2   ar
    31    18    19    1
    32     9     3    1
    33     9    12    1
    34     9    10    1
    35     3     2   ar
    36     2     7    1
    37     7     8    1
