@<TRIPOS>MOLECULE
mol_data/noopt/geoms/mol2/12gi12gi12gi.out
 35 37 0 0 0
SMALL
GASTEIGER

@<TRIPOS>ATOM
      1 C           0.1763    1.8460    0.0000 C.ar    1  LIG1        0.1061
      2 C           1.5558    1.8460    0.0000 C.ar    1  LIG1        0.0462
      3 C           1.9706    3.2334    0.0000 C.ar    1  LIG1        0.0116
      4 C           0.8165    3.9895   -0.0001 C.ar    1  LIG1        0.1748
      5 O          -0.3030    3.1567   -0.0002 O.2     1  LIG1       -0.4584
      6 H          -0.7504    0.9343    0.0000 H       1  LIG1        0.1041
      7 S           2.3514    0.8180    0.0001 S.3     1  LIG1       -0.1393
      8 H           3.5956    1.2280    0.0001 H       1  LIG1        0.1072
      9 C           3.2001    3.6568    0.0000 C.3     1  LIG1       -0.0350
     10 H           3.2528    4.5990    0.5044 H       1  LIG1        0.0279
     11 H           3.5373    3.7730   -1.0088 H       1  LIG1        0.0279
     12 H           3.8217    2.9468    0.5044 H       1  LIG1        0.0279
     13 C           0.5416    5.2601   -0.0001 C.ar    1  LIG1        0.1843
     14 C           1.2791    6.4258    0.0147 C.ar    1  LIG1        0.0573
     15 C           0.3286    7.5182    0.0040 C.ar    1  LIG1        0.0123
     16 C          -0.9273    6.9473   -0.0167 C.ar    1  LIG1        0.1758
     17 O          -0.8221    5.5559   -0.0197 O.2     1  LIG1       -0.4472
     18 S           2.5731    6.5484    0.0345 S.3     1  LIG1       -0.1386
     19 H           2.8919    7.8190    0.0412 H       1  LIG1        0.1072
     20 C           0.6282    8.7835    0.0126 C.3     1  LIG1       -0.0349
     21 H          -0.1406    9.3286    0.5194 H       1  LIG1        0.0279
     22 H           0.7118    9.1371   -0.9939 H       1  LIG1        0.0279
     23 H           1.5598    8.9260    0.5193 H       1  LIG1        0.0279
     24 C          -2.1478    7.3944   -0.0335 C.ar    1  LIG1        0.1833
     25 C          -2.7383    8.6411   -0.0462 C.ar    1  LIG1        0.0566
     26 C          -4.1697    8.4219   -0.0626 C.ar    1  LIG1        0.0012
     27 C          -4.3589    7.0552   -0.0589 C.ar    1  LIG1        0.0967
     28 O          -3.1271    6.4001   -0.0412 O.2     1  LIG1       -0.4584
     29 H          -5.3894    6.2628   -0.0679 H       1  LIG1        0.1032
     30 S          -2.1499    9.8002   -0.0441 S.3     1  LIG1       -0.1386
     31 H          -3.0531   10.7491   -0.0434 H       1  LIG1        0.1072
     32 C          -5.0785    9.3517   -0.0777 C.3     1  LIG1       -0.0357
     33 H          -5.9567    9.0003    0.4225 H       1  LIG1        0.0279
     34 H          -5.3197    9.5983   -1.0907 H       1  LIG1        0.0279
     35 H          -4.7071   10.2217    0.4224 H       1  LIG1        0.0279
@<TRIPOS>BOND
     1    34    32    1
     2    11     9    1
     3    22    20    1
     4    32    26    1
     5    32    35    1
     6    32    33    1
     7    29    27    1
     8    26    27   ar
     9    26    25   ar
    10    27    28   ar
    11    25    30    1
    12    25    24   ar
    13    30    31    1
    14    28    24   ar
    15    24    16    1
    16    17    16   ar
    17    17    13   ar
    18    16    15   ar
    19     5     4   ar
    20     5     1   ar
    21    13     4    1
    22    13    14   ar
    23     4     3   ar
    24     1     6    1
    25     1     2   ar
    26     9     3    1
    27     9    12    1
    28     9    10    1
    29     3     2   ar
    30     2     7    1
    31     7     8    1
    32    15    20    1
    33    15    14   ar
    34    20    23    1
    35    20    21    1
    36    14    18    1
    37    18    19    1
