@<TRIPOS>MOLECULE
mol_data/noopt/geoms/mol2/12gl12gl-.out
 26 27 0 0 0
SMALL
GASTEIGER

@<TRIPOS>ATOM
      1 C           0.1763    1.8460    0.0000 C.ar    1  LIG1        0.1096
      2 C           1.5558    1.8460    0.0000 C.ar    1  LIG1        0.0852
      3 C           1.9706    3.2334    0.0000 C.ar    1  LIG1        0.1819
      4 C           0.8165    3.9895   -0.0001 C.ar    1  LIG1        0.2133
      5 O          -0.3030    3.1567   -0.0002 O.2     1  LIG1       -0.4549
      6 H          -0.7504    0.9343    0.0000 H       1  LIG1        0.1042
      7 S           2.3514    0.8180    0.0001 S.3     1  LIG1       -0.1361
      8 H           3.5956    1.2280    0.0001 H       1  LIG1        0.1073
      9 O           3.1998    3.6567   -0.0000 O.3     1  LIG1       -0.4902
     10 C           4.0900    2.5376   -0.0001 C.3     1  LIG1        0.0790
     11 H           5.1015    2.8864   -0.0002 H       1  LIG1        0.0660
     12 H           3.9174    1.9445    0.8737 H       1  LIG1        0.0660
     13 H           3.9171    1.9444   -0.8736 H       1  LIG1        0.0660
     14 C           0.5416    5.2601   -0.0001 C.ar    1  LIG1        0.1901
     15 C           1.2792    6.4258   -0.0001 C.ar    1  LIG1        0.0956
     16 C           0.3286    7.5182   -0.0001 C.ar    1  LIG1        0.1715
     17 C          -0.9274    6.9472   -0.0002 C.ar    1  LIG1        0.1354
     18 O          -0.8223    5.5559   -0.0003 O.2     1  LIG1       -0.4548
     19 H          -2.1481    7.3943   -0.0002 H       1  LIG1        0.1068
     20 S           2.5734    6.5485   -0.0000 S.3     1  LIG1       -0.1354
     21 H           2.8922    7.8191    0.0000 H       1  LIG1        0.1073
     22 O           0.6282    8.7833   -0.0001 O.3     1  LIG1       -0.4908
     23 C           2.0499    8.9371   -0.0002 C.3     1  LIG1        0.0790
     24 H           2.2960    9.9784   -0.0003 H       1  LIG1        0.0660
     25 H           2.4588    8.4741    0.8736 H       1  LIG1        0.0660
     26 H           2.4588    8.4738   -0.8737 H       1  LIG1        0.0660
@<TRIPOS>BOND
     1    26    23    1
     2    13    10    1
     3    24    23    1
     4    18    17   ar
     5    18    14   ar
     6    11    10    1
     7     5     4   ar
     8     5     1   ar
     9    19    17    1
    10    17    16   ar
    11    23    22    1
    12    23    25    1
    13    14    15   ar
    14    14     4    1
    15    22    16    1
    16    16    15   ar
    17    15    20    1
    18     4     3   ar
    19    10     9    1
    20    10    12    1
    21     1     6    1
    22     1     2   ar
    23     9     3    1
    24    20    21    1
    25     3     2   ar
    26     2     7    1
    27     7     8    1
