@<TRIPOS>MOLECULE
mol_data/noopt/geoms/mol2/12gl12gl12gl-12gl-.out
 50 53 0 0 0
SMALL
GASTEIGER

@<TRIPOS>ATOM
      1 C           0.1763    1.8460    0.0000 C.ar    1  LIG1        0.1096
      2 C           1.5558    1.8460    0.0000 C.ar    1  LIG1        0.0852
      3 C           1.9706    3.2334    0.0000 C.ar    1  LIG1        0.1819
      4 C           0.8165    3.9895   -0.0001 C.ar    1  LIG1        0.2133
      5 O          -0.3030    3.1567   -0.0002 O.2     1  LIG1       -0.4549
      6 H          -0.7504    0.9343    0.0000 H       1  LIG1        0.1042
      7 S           2.3514    0.8180    0.0001 S.3     1  LIG1       -0.1361
      8 H           3.5956    1.2280    0.0001 H       1  LIG1        0.1073
      9 O           3.1998    3.6567   -0.0000 O.3     1  LIG1       -0.4902
     10 C           4.0900    2.5376   -0.0001 C.3     1  LIG1        0.0790
     11 H           5.1015    2.8864   -0.0002 H       1  LIG1        0.0660
     12 H           3.9174    1.9445    0.8737 H       1  LIG1        0.0660
     13 H           3.9171    1.9444   -0.8736 H       1  LIG1        0.0660
     14 C           0.5416    5.2601   -0.0001 C.ar    1  LIG1        0.1912
     15 C           1.2791    6.4258    0.0147 C.ar    1  LIG1        0.0964
     16 C           0.3286    7.5182    0.0040 C.ar    1  LIG1        0.1827
     17 C          -0.9273    6.9473   -0.0167 C.ar    1  LIG1        0.2144
     18 O          -0.8221    5.5559   -0.0197 O.2     1  LIG1       -0.4435
     19 S           2.5731    6.5484    0.0345 S.3     1  LIG1       -0.1353
     20 H           2.8919    7.8190    0.0412 H       1  LIG1        0.1073
     21 O           0.6281    8.7832    0.0126 O.3     1  LIG1       -0.4902
     22 C           2.0498    8.9371    0.0157 C.3     1  LIG1        0.0790
     23 H           2.2959    9.9784    0.0225 H       1  LIG1        0.0660
     24 H           2.4574    8.4686    0.8870 H       1  LIG1        0.0660
     25 H           2.4600    8.4795   -0.8602 H       1  LIG1        0.0660
     26 C          -2.1478    7.3944   -0.0335 C.ar    1  LIG1        0.1912
     27 C          -2.7386    8.6410   -0.0314 C.ar    1  LIG1        0.0964
     28 C          -4.1697    8.4219   -0.0585 C.ar    1  LIG1        0.1827
     29 C          -4.3586    7.0553   -0.0754 C.ar    1  LIG1        0.2143
     30 O          -3.1268    6.4002   -0.0606 O.2     1  LIG1       -0.4435
     31 S          -2.1504    9.8001   -0.0096 S.3     1  LIG1       -0.1353
     32 H          -3.0539   10.7487   -0.0022 H       1  LIG1        0.1073
     33 O          -5.0785    9.3515   -0.0651 O.3     1  LIG1       -0.4902
     34 C          -4.4483   10.6351   -0.0676 C.3     1  LIG1        0.0790
     35 H          -5.1966   11.3999   -0.0731 H       1  LIG1        0.0660
     36 H          -3.8415   10.7363    0.8080 H       1  LIG1        0.0660
     37 H          -3.8351   10.7297   -0.9393 H       1  LIG1        0.0660
     38 C          -5.3889    6.2629   -0.1012 C.ar    1  LIG1        0.1902
     39 C          -6.7581    6.4304   -0.1207 C.ar    1  LIG1        0.0956
     40 C          -7.3380    5.1038   -0.1458 C.ar    1  LIG1        0.1715
     41 C          -6.2842    4.2132   -0.1401 C.ar    1  LIG1        0.1354
     42 O          -5.0721    4.9038   -0.1128 O.2     1  LIG1       -0.4548
     43 H          -6.1654    2.9187   -0.1539 H       1  LIG1        0.1068
     44 S          -7.4231    7.5474   -0.1175 S.3     1  LIG1       -0.1354
     45 H          -8.7079    7.2913   -0.1165 H       1  LIG1        0.1073
     46 O          -8.6093    4.8329   -0.1691 O.3     1  LIG1       -0.4908
     47 C          -9.3569    6.0518   -0.1777 C.3     1  LIG1        0.0790
     48 H         -10.4031    5.8284   -0.1970 H       1  LIG1        0.0660
     49 H          -9.1289    6.6163    0.7023 H       1  LIG1        0.0660
     50 H          -9.0981    6.6229   -1.0447 H       1  LIG1        0.0660
@<TRIPOS>BOND
     1    50    47    1
     2    37    34    1
     3    13    10    1
     4    25    22    1
     5    48    47    1
     6    47    46    1
     7    47    49    1
     8    46    40    1
     9    43    41    1
    10    40    41   ar
    11    40    39   ar
    12    41    42   ar
    13    39    44    1
    14    39    38   ar
    15    44    45    1
    16    42    38   ar
    17    38    29    1
    18    29    30   ar
    19    29    28   ar
    20    35    34    1
    21    34    33    1
    22    34    36    1
    23    33    28    1
    24    30    26   ar
    25    28    27   ar
    26    26    27   ar
    27    26    17    1
    28    27    31    1
    29    18    17   ar
    30    18    14   ar
    31    17    16   ar
    32    31    32    1
    33    11    10    1
    34     5     4   ar
    35     5     1   ar
    36    14     4    1
    37    14    15   ar
    38     4     3   ar
    39    10     9    1
    40    10    12    1
    41     9     3    1
    42     6     1    1
    43     1     2   ar
    44     3     2   ar
    45     2     7    1
    46     7     8    1
    47    16    21    1
    48    16    15   ar
    49    21    22    1
    50    15    19    1
    51    22    23    1
    52    22    24    1
    53    19    20    1
