@<TRIPOS>MOLECULE
mol_data/noopt/geoms/mol2/12gl12gl-12gl12gl.out
 50 53 0 0 0
SMALL
GASTEIGER

@<TRIPOS>ATOM
      1 C           0.1763    1.8460    0.0000 C.ar    1  LIG1        0.1096
      2 C           1.5558    1.8460    0.0000 C.ar    1  LIG1        0.0852
      3 C           1.9706    3.2334    0.0000 C.ar    1  LIG1        0.1819
      4 C           0.8165    3.9895   -0.0001 C.ar    1  LIG1        0.2133
      5 O          -0.3030    3.1567   -0.0002 O.2     1  LIG1       -0.4549
      6 H          -0.7504    0.9343    0.0000 H       1  LIG1        0.1042
      7 S           2.3514    0.8180    0.0001 S.3     1  LIG1       -0.1361
      8 H           3.5956    1.2280    0.0001 H       1  LIG1        0.1073
      9 O           3.1998    3.6567   -0.0000 O.3     1  LIG1       -0.4902
     10 C           4.0900    2.5376   -0.0001 C.3     1  LIG1        0.0790
     11 H           5.1015    2.8864   -0.0002 H       1  LIG1        0.0660
     12 H           3.9174    1.9445    0.8737 H       1  LIG1        0.0660
     13 H           3.9171    1.9444   -0.8736 H       1  LIG1        0.0660
     14 C           0.5416    5.2601   -0.0001 C.ar    1  LIG1        0.1912
     15 C           1.2792    6.4258   -0.0001 C.ar    1  LIG1        0.0964
     16 C           0.3286    7.5182   -0.0001 C.ar    1  LIG1        0.1827
     17 C          -0.9274    6.9472   -0.0002 C.ar    1  LIG1        0.2144
     18 O          -0.8223    5.5559   -0.0003 O.2     1  LIG1       -0.4435
     19 S           2.5734    6.5485   -0.0000 S.3     1  LIG1       -0.1353
     20 H           2.8922    7.8191    0.0000 H       1  LIG1        0.1073
     21 O           0.6282    8.7833   -0.0001 O.3     1  LIG1       -0.4902
     22 C           2.0499    8.9371   -0.0002 C.3     1  LIG1        0.0790
     23 H           2.2960    9.9784   -0.0003 H       1  LIG1        0.0660
     24 H           2.4588    8.4741    0.8736 H       1  LIG1        0.0660
     25 H           2.4588    8.4738   -0.8737 H       1  LIG1        0.0660
     26 C          -2.1481    7.3943   -0.0002 C.ar    1  LIG1        0.1912
     27 C          -2.7387    8.6410   -0.0002 C.ar    1  LIG1        0.0964
     28 C          -4.1701    8.4218   -0.0002 C.ar    1  LIG1        0.1827
     29 C          -4.3593    7.0551   -0.0003 C.ar    1  LIG1        0.2143
     30 O          -3.1273    6.4000   -0.0004 O.2     1  LIG1       -0.4435
     31 S          -2.1504    9.8002   -0.0001 S.3     1  LIG1       -0.1353
     32 H          -3.0536   10.7490   -0.0001 H       1  LIG1        0.1073
     33 O          -5.0790    9.3514   -0.0002 O.3     1  LIG1       -0.4902
     34 C          -4.4487   10.6350   -0.0003 C.3     1  LIG1        0.0790
     35 H          -5.1971   11.3998   -0.0004 H       1  LIG1        0.0660
     36 H          -3.8389   10.7330    0.8735 H       1  LIG1        0.0660
     37 H          -3.8387   10.7328   -0.8738 H       1  LIG1        0.0660
     38 C          -5.3898    6.2627   -0.0003 C.ar    1  LIG1        0.1902
     39 C          -6.7590    6.4301    0.0145 C.ar    1  LIG1        0.0956
     40 C          -7.3393    5.1034    0.0038 C.ar    1  LIG1        0.1715
     41 C          -6.2856    4.2129   -0.0169 C.ar    1  LIG1        0.1354
     42 O          -5.0733    4.9036   -0.0199 O.2     1  LIG1       -0.4548
     43 H          -6.1671    2.9184   -0.0337 H       1  LIG1        0.1068
     44 S          -7.4239    7.5470    0.0343 S.3     1  LIG1       -0.1354
     45 H          -8.7086    7.2910    0.0410 H       1  LIG1        0.1073
     46 O          -8.6107    4.8324    0.0124 O.3     1  LIG1       -0.4908
     47 C          -9.3585    6.0513    0.0155 C.3     1  LIG1        0.0790
     48 H         -10.4049    5.8278    0.0223 H       1  LIG1        0.0660
     49 H          -9.1096    6.6203    0.8868 H       1  LIG1        0.0660
     50 H          -9.1206    6.6179   -0.8604 H       1  LIG1        0.0660
@<TRIPOS>BOND
     1    37    34    1
     2    25    22    1
     3    13    10    1
     4    50    47    1
     5    43    41    1
     6    42    41   ar
     7    42    38   ar
     8    41    40   ar
     9    35    34    1
    10    30    29   ar
    11    30    26   ar
    12    23    22    1
    13    38    29    1
    14    38    39   ar
    15    29    28   ar
    16    18    17   ar
    17    18    14   ar
    18    34    33    1
    19    34    36    1
    20    11    10    1
    21    33    28    1
    22    27    28   ar
    23    27    26   ar
    24    27    31    1
    25    26    17    1
    26     5     4   ar
    27     5     1   ar
    28    17    16   ar
    29    22    21    1
    30    22    24    1
    31    21    16    1
    32     4    14    1
    33     4     3   ar
    34    16    15   ar
    35    15    14   ar
    36    15    19    1
    37    31    32    1
    38    10     9    1
    39    10    12    1
    40     6     1    1
    41     9     3    1
    42     3     2   ar
    43     1     2   ar
    44     2     7    1
    45    19    20    1
    46     7     8    1
    47    40    46    1
    48    40    39   ar
    49    46    47    1
    50    39    44    1
    51    47    48    1
    52    47    49    1
    53    44    45    1
