@<TRIPOS>MOLECULE
mol_data/noopt/geoms/mol2/12gl12gl-12gl-12gl.out
 50 53 0 0 0
SMALL
GASTEIGER

@<TRIPOS>ATOM
      1 C           0.1763    1.8460    0.0000 C.ar    1  LIG1        0.1096
      2 C           1.5558    1.8460    0.0000 C.ar    1  LIG1        0.0852
      3 C           1.9706    3.2334    0.0000 C.ar    1  LIG1        0.1819
      4 C           0.8165    3.9895   -0.0001 C.ar    1  LIG1        0.2133
      5 O          -0.3030    3.1567   -0.0002 O.2     1  LIG1       -0.4549
      6 H          -0.7504    0.9343    0.0000 H       1  LIG1        0.1042
      7 S           2.3514    0.8180    0.0001 S.3     1  LIG1       -0.1361
      8 H           3.5956    1.2280    0.0001 H       1  LIG1        0.1073
      9 O           3.1998    3.6567   -0.0000 O.3     1  LIG1       -0.4902
     10 C           4.0900    2.5376   -0.0001 C.3     1  LIG1        0.0790
     11 H           5.1015    2.8864   -0.0002 H       1  LIG1        0.0660
     12 H           3.9174    1.9445    0.8737 H       1  LIG1        0.0660
     13 H           3.9171    1.9444   -0.8736 H       1  LIG1        0.0660
     14 C           0.5416    5.2601   -0.0001 C.ar    1  LIG1        0.1912
     15 C           1.2792    6.4258   -0.0001 C.ar    1  LIG1        0.0964
     16 C           0.3286    7.5182   -0.0001 C.ar    1  LIG1        0.1827
     17 C          -0.9274    6.9472   -0.0002 C.ar    1  LIG1        0.2144
     18 O          -0.8223    5.5559   -0.0003 O.2     1  LIG1       -0.4435
     19 S           2.5734    6.5485   -0.0000 S.3     1  LIG1       -0.1353
     20 H           2.8922    7.8191    0.0000 H       1  LIG1        0.1073
     21 O           0.6282    8.7833   -0.0001 O.3     1  LIG1       -0.4902
     22 C           2.0499    8.9371   -0.0002 C.3     1  LIG1        0.0790
     23 H           2.2960    9.9784   -0.0003 H       1  LIG1        0.0660
     24 H           2.4588    8.4741    0.8736 H       1  LIG1        0.0660
     25 H           2.4588    8.4738   -0.8737 H       1  LIG1        0.0660
     26 C          -2.1481    7.3943   -0.0002 C.ar    1  LIG1        0.1912
     27 C          -2.7388    8.6409    0.0146 C.ar    1  LIG1        0.0964
     28 C          -4.1701    8.4218    0.0039 C.ar    1  LIG1        0.1827
     29 C          -4.3592    7.0552   -0.0168 C.ar    1  LIG1        0.2143
     30 O          -3.1273    6.4001   -0.0198 O.2     1  LIG1       -0.4435
     31 S          -2.1505    9.7999    0.0344 S.3     1  LIG1       -0.1353
     32 H          -3.0537   10.7487    0.0411 H       1  LIG1        0.1073
     33 O          -5.0790    9.3513    0.0125 O.3     1  LIG1       -0.4902
     34 C          -4.4488   10.6350    0.0156 C.3     1  LIG1        0.0790
     35 H          -5.1972   11.3997    0.0224 H       1  LIG1        0.0660
     36 H          -3.8349   10.7289    0.8869 H       1  LIG1        0.0660
     37 H          -3.8428   10.7369   -0.8603 H       1  LIG1        0.0660
     38 C          -5.3897    6.2629   -0.0336 C.ar    1  LIG1        0.1902
     39 C          -6.7590    6.4303   -0.0315 C.ar    1  LIG1        0.0956
     40 C          -7.3391    5.1038   -0.0586 C.ar    1  LIG1        0.1715
     41 C          -6.2853    4.2134   -0.0755 C.ar    1  LIG1        0.1354
     42 O          -5.0730    4.9040   -0.0607 O.2     1  LIG1       -0.4548
     43 H          -6.1666    2.9191   -0.1013 H       1  LIG1        0.1068
     44 S          -7.4240    7.5471   -0.0097 S.3     1  LIG1       -0.1354
     45 H          -8.7087    7.2909   -0.0023 H       1  LIG1        0.1073
     46 O          -8.6106    4.8329   -0.0652 O.3     1  LIG1       -0.4908
     47 C          -9.3583    6.0518   -0.0677 C.3     1  LIG1        0.0790
     48 H         -10.4047    5.8284   -0.0732 H       1  LIG1        0.0660
     49 H          -9.1194    6.6186    0.8079 H       1  LIG1        0.0660
     50 H          -9.1104    6.6206   -0.9394 H       1  LIG1        0.0660
@<TRIPOS>BOND
     1    50    47    1
     2    25    22    1
     3    13    10    1
     4    37    34    1
     5    43    41    1
     6    41    42   ar
     7    41    40   ar
     8    48    47    1
     9    47    46    1
    10    47    49    1
    11    46    40    1
    12    42    38   ar
    13    40    39   ar
    14    38    39   ar
    15    38    29    1
    16    39    44    1
    17    30    29   ar
    18    30    26   ar
    19    29    28   ar
    20    44    45    1
    21    23    22    1
    22    18    17   ar
    23    18    14   ar
    24    11    10    1
    25    26    17    1
    26    26    27   ar
    27     5     4   ar
    28     5     1   ar
    29    17    16   ar
    30    22    21    1
    31    22    24    1
    32    21    16    1
    33     4    14    1
    34     4     3   ar
    35    14    15   ar
    36    15    16   ar
    37    15    19    1
    38    10     9    1
    39    10    12    1
    40     2     3   ar
    41     2     1   ar
    42     2     7    1
    43     3     9    1
    44     6     1    1
    45    19    20    1
    46     7     8    1
    47    28    33    1
    48    28    27   ar
    49    33    34    1
    50    27    31    1
    51    34    35    1
    52    34    36    1
    53    31    32    1
