@<TRIPOS>MOLECULE
mol_data/noopt/geoms/mol2/12ha12eh(180)13ld(320)12da(210).out
 43 45 0 0 0
SMALL
GASTEIGER

@<TRIPOS>ATOM
      1 C           0.1763    1.8460    0.0000 C.ar    1  LIG1        0.1131
      2 C           1.5558    1.8460    0.0000 C.ar    1  LIG1        0.0634
      3 C           1.9706    3.2334    0.0000 C.ar    1  LIG1        0.0049
      4 C           0.8165    3.9895   -0.0001 C.ar    1  LIG1        0.1386
      5 O          -0.3030    3.1567   -0.0002 O.2     1  LIG1       -0.4610
      6 H          -0.7504    0.9343    0.0000 H       1  LIG1        0.1049
      7 N           2.3515    0.8179    0.0001 N.pl3   1  LIG1       -0.3555
      8 H           1.9098    0.0546   -0.4713 H       1  LIG1        0.1424
      9 H           3.2012    1.0540   -0.4713 H       1  LIG1        0.1424
     10 H           3.1998    3.6567    0.0000 H       1  LIG1        0.0674
     11 C           0.5416    5.2601   -0.0001 C.2     1  LIG1        0.0464
     12 C          -0.6119    6.0167   -0.0001 C.2     1  LIG1        0.0604
     13 C          -0.1979    7.4043   -0.0001 C.2     1  LIG1        0.0904
     14 C           1.1818    7.4036   -0.0000 C.2     1  LIG1        0.2274
     15 O           1.6612    6.0932    0.0001 O.2     1  LIG1       -0.2836
     16 C          -1.8411    5.5934   -0.0002 C.1     1  LIG1       -0.0670
     17 C          -2.9768    5.2022   -0.0002 C.1     1  LIG1       -0.1138
     18 H          -3.9885    4.8538   -0.0003 H       1  LIG1        0.1232
     19 N          -0.9936    8.4324   -0.0001 N.pl3   1  LIG1       -0.3540
     20 H          -0.5519    9.1957   -0.4715 H       1  LIG1        0.1425
     21 H          -1.8433    8.1962   -0.4715 H       1  LIG1        0.1425
     22 C           2.1085    8.3153   -0.0000 C.ar    1  LIG1        0.1324
     23 C           3.3113    8.3503   -0.6325 C.ar    1  LIG1        0.1665
     24 C           3.9395    9.5903   -0.2885 C.ar    1  LIG1        0.1223
     25 C           3.0922   10.2593    0.5376 C.ar    1  LIG1        0.1051
     26 N           1.9702    9.4821    0.7172 N.ar    1  LIG1       -0.3452
     27 H           1.1846    9.7252    1.2757 H       1  LIG1        0.1662
     28 O           3.7989    7.4255   -1.4053 O.3     1  LIG1       -0.4916
     29 C           2.7854    6.4574   -1.6891 C.3     1  LIG1        0.0789
     30 H           3.1870    5.6966   -2.3253 H       1  LIG1        0.0660
     31 H           2.4477    6.0160   -0.7747 H       1  LIG1        0.0660
     32 H           1.9632    6.9350   -2.1796 H       1  LIG1        0.0660
     33 N           6.1323   10.3684   -1.0450 N.1     1  LIG1       -0.1907
     34 C           5.1046   10.0037   -0.6905 C.1     1  LIG1        0.1051
     35 C           3.2141   11.4197    1.1109 C.ar    1  LIG1        0.1695
     36 C           2.4677   12.5791    1.1527 C.ar    1  LIG1        0.0988
     37 C           3.1917   13.5083    1.9950 C.ar    1  LIG1       -0.0058
     38 C           4.3329   12.8547    2.4123 C.ar    1  LIG1        0.0939
     39 O           4.3692   11.5653    1.8804 O.2     1  LIG1       -0.4601
     40 H           5.3501   13.1553    3.1638 H       1  LIG1        0.1030
     41 N           0.3351   13.0281    0.0409 N.1     1  LIG1       -0.1907
     42 C           1.3345   12.8177    0.5620 C.1     1  LIG1        0.1030
     43 H           2.8160   14.7185    2.2854 H       1  LIG1        0.0662
@<TRIPOS>BOND
     1    30    29    1
     2    32    29    1
     3    29    28    1
     4    29    31    1
     5    28    23    1
     6    33    34    3
     7    34    24    1
     8    23    24   ar
     9    23    22   ar
    10    21    19    1
    11    20    19    1
    12     9     7    1
    13     8     7    1
    14    24    25   ar
    15    18    17    1
    16    17    16    3
    17     5     4   ar
    18     5     1   ar
    19    16    12    1
    20    11     4    1
    21    11    12    2
    22     4     3   ar
    23    13    19    1
    24    13    12    1
    25    13    14    2
    26    22    14    1
    27    22    26   ar
    28    14    15    1
    29     1     6    1
    30     1     2   ar
    31    10     3    1
    32     3     2   ar
    33     2     7    1
    34    41    42    3
    35    25    26   ar
    36    25    35    1
    37    42    36    1
    38    26    27    1
    39    35    36   ar
    40    35    39   ar
    41    36    37   ar
    42    39    38   ar
    43    37    43    1
    44    37    38   ar
    45    38    40    1
