@<TRIPOS>MOLECULE
mol_data/noopt/geoms/mol2/12ha12if(170)4la(10)6de(110).out
 48 48 0 0 0
SMALL
GASTEIGER

@<TRIPOS>ATOM
      1 C           0.1763    1.8460    0.0000 C.ar    1  LIG1        0.1131
      2 C           1.5558    1.8460    0.0000 C.ar    1  LIG1        0.0634
      3 C           1.9706    3.2334    0.0000 C.ar    1  LIG1        0.0049
      4 C           0.8165    3.9895   -0.0001 C.ar    1  LIG1        0.1377
      5 O          -0.3030    3.1567   -0.0002 O.2     1  LIG1       -0.4610
      6 H          -0.7504    0.9343    0.0000 H       1  LIG1        0.1049
      7 N           2.3515    0.8179    0.0001 N.pl3   1  LIG1       -0.3555
      8 H           1.9098    0.0546   -0.4713 H       1  LIG1        0.1424
      9 H           3.2012    1.0540   -0.4713 H       1  LIG1        0.1424
     10 H           3.1998    3.6567    0.0000 H       1  LIG1        0.0674
     11 C           0.5416    5.2601   -0.0001 C.2     1  LIG1        0.0347
     12 C          -0.6008    6.0191    0.1476 C.2     1  LIG1        0.0029
     13 C          -0.1948    7.4049    0.0410 C.2     1  LIG1        0.1289
     14 C           1.1695    7.4009   -0.1647 C.2     1  LIG1        0.0388
     15 O           1.6467    6.0901   -0.1939 O.3     2  HOH2       -0.2528
     16 C          -1.8155    5.5989    0.3446 C.3     1  LIG1       -0.0355
     17 H          -1.7909    4.6829    0.8973 H       1  LIG1        0.0279
     18 H          -2.2932    5.4336   -0.5985 H       1  LIG1        0.0279
     19 H          -2.3621    6.3343    0.8972 H       1  LIG1        0.0279
     20 O          -0.9841    8.4344    0.1266 O.2     1  LIG1       -0.5059
     21 H          -1.8968    8.1375    0.1476 H       1  LIG1        0.2922
     22 C           3.4458    7.9668   -0.2118 C.ar    1  LIG1        0.1873
     23 C           4.3972    8.9878   -0.4012 C.ar    1  LIG1       -0.0065
     24 C           2.0836    8.3099   -0.3324 C.ar    1  LIG1        0.0330
     25 C           4.0116   10.2930   -0.6981 C.ar    1  LIG1       -0.0115
     26 H           5.4537    8.7449   -0.3124 H       1  LIG1        0.0662
     27 C           1.6981    9.6128   -0.6289 C.ar    1  LIG1       -0.0497
     28 C           2.6583   10.6130   -0.8138 C.ar    1  LIG1       -0.0531
     29 H           0.6414    9.8523   -0.7165 H       1  LIG1        0.0625
     30 O           3.8666    6.7679    0.0629 O.3     1  LIG1       -0.2872
     31 C           2.7492    5.8812    0.1637 C.3     3  LIG3       -0.0531
     32 H           3.0961    4.8945    0.3897 H       1  LIG1        0.0265
     33 H           2.0966    6.2169    0.9424 H       1  LIG1        0.0265
     34 H           2.2188    5.8687   -0.7655 H       0  HOH0        0.2528
     35 H           2.2921   11.8292   -1.0906 H       1  LIG1        0.0624
     36 C           5.6037   11.3160   -2.0900 C.ar    1  LIG1        0.1477
     37 C           4.9167   11.2109   -0.8667 C.ar    1  LIG1        0.0193
     38 C           5.2298   12.1113    0.1533 C.ar    1  LIG1       -0.0344
     39 C           6.2098   13.0774   -0.0807 C.ar    1  LIG1        0.0434
     40 C           6.8416   13.1025   -1.3376 C.ar    1  LIG1        0.0444
     41 N           6.5517   12.2417   -2.3328 N.ar    1  LIG1       -0.2428
     42 H           4.7148   12.0593    1.1230 H       1  LIG1        0.0637
     43 H           7.7601   13.9832   -1.6033 H       1  LIG1        0.0842
     44 N           5.1210    9.7816   -3.9335 N.1     1  LIG1       -0.1893
     45 C           5.3472   10.5007   -3.0695 C.1     1  LIG1        0.1197
     46 C           6.5374   13.9383    0.8367 C.1     1  LIG1       -0.0681
     47 C           6.8401   14.7337    1.6844 C.1     1  LIG1       -0.1139
     48 H           7.1097   15.4422    2.4395 H       1  LIG1        0.1232
@<TRIPOS>BOND
     1    44    45    3
     2    45    36    1
     3    41    36   ar
     4    41    40   ar
     5    36    37   ar
     6    43    40    1
     7    40    39   ar
     8    35    28    1
     9    37    25    1
    10    37    38   ar
    11    28    25   ar
    12    28    27   ar
    13    34    15    1
    14    29    27    1
    15    25    23   ar
    16    27    24   ar
    17    18    16    1
    18     9     7    1
    19     8     7    1
    20    23    26    1
    21    23    22   ar
    22    24    22   ar
    23    24    14    1
    24    22    30    1
    25    14    13    2
    26    39    38   ar
    27    39    46    1
    28     5     4   ar
    29     5     1   ar
    30    11     4    1
    31    11    12    2
    32     4     3   ar
    33     1     2   ar
    34     1     6    1
    35     2     3   ar
    36     2     7    1
    37     3    10    1
    38    13    20    1
    39    13    12    1
    40    20    21    1
    41    12    16    1
    42    38    42    1
    43    31    32    1
    44    31    33    1
    45    16    19    1
    46    16    17    1
    47    46    47    3
    48    47    48    1
