@<TRIPOS>MOLECULE
mol_data/noopt/geoms/mol2/12ha6le(340)4ld(170)12if(220).out
 52 55 0 0 0
SMALL
GASTEIGER

@<TRIPOS>ATOM
      1 C           0.1763    1.8460    0.0000 C.ar    1  LIG1        0.1131
      2 C           1.5558    1.8460    0.0000 C.ar    1  LIG1        0.0634
      3 C           1.9706    3.2334    0.0000 C.ar    1  LIG1        0.0050
      4 C           0.8165    3.9895   -0.0001 C.ar    1  LIG1        0.1418
      5 O          -0.3030    3.1567   -0.0002 O.2     1  LIG1       -0.4609
      6 H          -0.7504    0.9343    0.0000 H       1  LIG1        0.1049
      7 N           2.3515    0.8179    0.0001 N.pl3   1  LIG1       -0.3555
      8 H           1.9098    0.0546   -0.4713 H       1  LIG1        0.1424
      9 H           3.2012    1.0540   -0.4713 H       1  LIG1        0.1424
     10 H           3.1998    3.6567    0.0000 H       1  LIG1        0.0674
     11 C          -0.7238    5.7139    0.4149 C.ar    1  LIG1        0.2260
     12 C           0.5416    5.2601   -0.0001 C.ar    1  LIG1        0.0799
     13 C           1.4870    6.2027   -0.4084 C.ar    1  LIG1       -0.0285
     14 C           1.1398    7.5546   -0.3889 C.ar    1  LIG1        0.0516
     15 C          -0.1513    7.9102    0.0426 C.ar    1  LIG1        0.0937
     16 N          -1.0755    7.0141    0.4401 N.ar    1  LIG1       -0.2110
     17 H           2.4859    5.8858   -0.7402 H       1  LIG1        0.0639
     18 O          -1.6372    4.8747    0.8040 O.3     1  LIG1       -0.4792
     19 C          -2.8846    5.5592    0.9468 C.3     1  LIG1        0.0804
     20 H          -3.6361    4.8681    1.2669 H       1  LIG1        0.0660
     21 H          -2.7831    6.3377    1.6739 H       1  LIG1        0.0660
     22 H          -3.1680    5.9840    0.0066 H       1  LIG1        0.0660
     23 C           1.9844    8.4708   -0.7595 C.1     1  LIG1       -0.0675
     24 C           2.7647    9.3173   -1.1020 C.1     1  LIG1       -0.1138
     25 H           3.4599   10.0714   -1.4071 H       1  LIG1        0.1232
     26 C          -1.8738    9.4804    0.3095 C.ar    1  LIG1        0.1300
     27 C          -2.2242   10.8441    0.3376 C.ar    1  LIG1       -0.0074
     28 C          -0.5214    9.1558    0.0786 C.ar    1  LIG1        0.0445
     29 C          -1.2717   11.8423    0.1452 C.ar    1  LIG1        0.0385
     30 H          -3.2623   11.1168    0.5140 H       1  LIG1        0.0662
     31 C           0.4300   10.1519   -0.1135 C.ar    1  LIG1       -0.0309
     32 C           0.0623   11.5011   -0.0815 C.ar    1  LIG1        0.0633
     33 H           1.4665    9.8761   -0.2899 H       1  LIG1        0.0638
     34 O          -2.8070    8.5947    0.4959 O.3     1  LIG1       -0.4944
     35 C          -4.0776    9.2473    0.5643 C.3     1  LIG1        0.0788
     36 H          -4.8454    8.5180    0.7176 H       1  LIG1        0.0660
     37 H          -4.0783    9.9423    1.3779 H       1  LIG1        0.0660
     38 H          -4.2599    9.7699   -0.3513 H       1  LIG1        0.0660
     39 N           1.7441   13.2452   -0.4211 N.1     1  LIG1       -0.1908
     40 C           0.9559   12.4278   -0.2619 C.1     1  LIG1        0.0999
     41 C          -1.6301   13.0914    0.1777 C.ar    1  LIG1        0.1427
     42 C          -2.6545   13.8351   -0.3705 C.ar    1  LIG1        0.0368
     43 C          -2.4608   15.1994    0.0746 C.ar    1  LIG1        0.1580
     44 C          -1.3304   15.1989    0.8657 C.ar    1  LIG1        0.1341
     45 O          -0.8003   13.9106    0.9445 O.2     1  LIG1       -0.4589
     46 H          -0.6667   16.0954    1.5334 H       1  LIG1        0.1068
     47 C          -3.6173   13.4188   -1.1388 C.3     1  LIG1       -0.0326
     48 H          -3.8083   12.3844   -0.9427 H       1  LIG1        0.0280
     49 H          -3.3343   13.5411   -2.1635 H       1  LIG1        0.0280
     50 H          -4.5018   13.9882   -0.9427 H       1  LIG1        0.0280
     51 O          -3.2205   16.2101   -0.2278 O.3     1  LIG1       -0.5034
     52 H          -4.1311   15.9155   -0.3024 H       1  LIG1        0.2923
@<TRIPOS>BOND
     1    49    47    1
     2    25    24    1
     3    47    50    1
     4    47    48    1
     5    47    42    1
     6    24    23    3
     7    23    14    1
     8    17    13    1
     9     9     7    1
    10     8     7    1
    11    39    40    3
    12    13    14   ar
    13    13    12   ar
    14    14    15   ar
    15    42    43   ar
    16    42    41   ar
    17    38    35    1
    18    52    51    1
    19    33    31    1
    20    40    32    1
    21    51    43    1
    22    31    32   ar
    23    31    28   ar
    24    32    29   ar
    25     5     4   ar
    26     5     1   ar
    27    12     4    1
    28    12    11   ar
    29     4     3   ar
    30     1     2   ar
    31     1     6    1
    32     2     3   ar
    33     2     7    1
    34     3    10    1
    35    22    19    1
    36    15    28    1
    37    15    16   ar
    38    43    44   ar
    39    28    26   ar
    40    29    41    1
    41    29    27   ar
    42    41    45   ar
    43    26    27   ar
    44    26    34    1
    45    27    30    1
    46    11    16   ar
    47    11    18    1
    48    34    35    1
    49    35    36    1
    50    35    37    1
    51    18    19    1
    52    44    45   ar
    53    44    46    1
    54    19    20    1
    55    19    21    1
