@<TRIPOS>MOLECULE
mol_data/noopt/geoms/mol2/12ha13hh(130)4ha(240)12ll(10).out
 50 53 0 0 0
SMALL
GASTEIGER

@<TRIPOS>ATOM
      1 C           0.1763    1.8460    0.0000 C.ar    1  LIG1        0.1132
      2 C           1.5558    1.8460    0.0000 C.ar    1  LIG1        0.0635
      3 C           1.9706    3.2334    0.0000 C.ar    1  LIG1        0.0064
      4 C           0.8165    3.9895   -0.0001 C.ar    1  LIG1        0.1546
      5 O          -0.3030    3.1567   -0.0002 O.2     1  LIG1       -0.4595
      6 H          -0.7504    0.9343    0.0000 H       1  LIG1        0.1049
      7 N           2.3515    0.8179    0.0001 N.pl3   1  LIG1       -0.3555
      8 H           1.9098    0.0546   -0.4713 H       1  LIG1        0.1424
      9 H           3.2012    1.0540   -0.4713 H       1  LIG1        0.1424
     10 H           3.1998    3.6567    0.0000 H       1  LIG1        0.0674
     11 C           0.5416    5.2601   -0.0001 C.ar    1  LIG1        0.1053
     12 C          -0.3258    5.9748    0.7646 C.ar    1  LIG1        0.0748
     13 C          -0.2358    7.3422    0.3490 C.ar    1  LIG1        0.0719
     14 C           0.6839    7.4033   -0.6502 C.ar    1  LIG1        0.0715
     15 N           1.1621    6.1307   -0.8674 N.ar    1  LIG1       -0.3487
     16 H           1.8470    5.8803   -1.5428 H       1  LIG1        0.1661
     17 N          -1.0951    5.5004    1.6991 N.pl3   1  LIG1       -0.3548
     18 H          -2.0093    5.8959    1.6110 H       1  LIG1        0.1424
     19 H          -1.1522    4.5060    1.6109 H       1  LIG1        0.1424
     20 N          -0.9076    8.3433    0.8353 N.pl3   1  LIG1       -0.3549
     21 H          -0.5002    9.2014    0.5228 H       1  LIG1        0.1424
     22 H          -1.8561    8.2915    0.5228 H       1  LIG1        0.1424
     23 C           0.5591    8.6811   -2.6138 C.ar    1  LIG1        0.0345
     24 C           1.0562    9.7900   -3.3254 C.ar    1  LIG1       -0.0296
     25 C           1.1104    8.4170   -1.3433 C.ar    1  LIG1        0.0208
     26 C           2.0574   10.6018   -2.7972 C.ar    1  LIG1        0.0228
     27 H           0.6449   10.0117   -4.3077 H       1  LIG1        0.0643
     28 C           2.1100    9.2271   -0.8155 C.ar    1  LIG1       -0.0501
     29 C           2.5903   10.3244   -1.5377 C.ar    1  LIG1       -0.0502
     30 H           2.5191    9.0026    0.1663 H       1  LIG1        0.0625
     31 N          -0.3760    7.9609   -3.1587 N.pl3   1  LIG1       -0.3574
     32 H          -0.9574    8.5437   -3.7264 H       1  LIG1        0.1423
     33 H           0.0391    7.2500   -3.7265 H       1  LIG1        0.1423
     34 H           3.5250   11.0781   -1.0393 H       1  LIG1        0.0625
     35 C           2.4929   11.6177   -3.4816 C.ar    1  LIG1        0.1801
     36 C           3.7317   12.0809   -3.8737 C.ar    1  LIG1        0.2078
     37 C           3.5004   13.2926   -4.6323 C.ar    1  LIG1        0.2003
     38 C           2.1350   13.4894   -4.6534 C.ar    1  LIG1        0.1379
     39 O           1.4921   12.4697   -3.9507 O.2     1  LIG1       -0.4554
     40 H           1.3352   14.3792   -5.1619 H       1  LIG1        0.1069
     41 O           4.8936   11.5535   -3.6251 O.3     1  LIG1       -0.4884
     42 C           4.7631   10.1324   -3.5340 C.3     1  LIG1        0.0791
     43 H           5.7197    9.6987   -3.3295 H       1  LIG1        0.0660
     44 H           4.0839    9.8865   -2.7445 H       1  LIG1        0.0660
     45 H           4.3879    9.7485   -4.4596 H       1  LIG1        0.0660
     46 O           4.4201   14.0325   -5.1771 O.3     1  LIG1       -0.4888
     47 C           5.6027   13.2538   -5.3772 C.3     1  LIG1        0.0791
     48 H           6.3593   13.8631   -5.8259 H       1  LIG1        0.0660
     49 H           5.9523   12.8875   -4.4346 H       1  LIG1        0.0660
     50 H           5.3815   12.4282   -6.0209 H       1  LIG1        0.0660
@<TRIPOS>BOND
     1    50    47    1
     2    48    47    1
     3    47    46    1
     4    47    49    1
     5    46    37    1
     6    40    38    1
     7    38    37   ar
     8    38    39   ar
     9    37    36   ar
    10    45    42    1
    11    27    24    1
    12    39    35   ar
    13    36    41    1
    14    36    35   ar
    15    33    31    1
    16    32    31    1
    17    41    42    1
    18    42    43    1
    19    42    44    1
    20    35    26    1
    21    24    26   ar
    22    24    23   ar
    23    31    23    1
    24    26    29   ar
    25    23    25   ar
    26    16    15    1
    27    29    34    1
    28    29    28   ar
    29    25    28   ar
    30    25    14    1
    31    15    14   ar
    32    15    11   ar
    33    28    30    1
    34    14    13   ar
    35     9     7    1
    36     8     7    1
    37     5     4   ar
    38     5     1   ar
    39    11     4    1
    40    11    12   ar
    41     4     3   ar
    42     6     1    1
    43     3    10    1
    44     3     2   ar
    45     2     1   ar
    46     2     7    1
    47    13    12   ar
    48    13    20    1
    49    22    20    1
    50    21    20    1
    51    12    17    1
    52    19    17    1
    53    18    17    1
