@<TRIPOS>MOLECULE
mol_data/noopt/geoms/mol2/12hd12hd12hd-12hd.out
 42 45 0 0 0
SMALL
GASTEIGER

@<TRIPOS>ATOM
      1 C           0.1763    1.8460    0.0000 C.ar    1  LIG1        0.1146
      2 C           1.5558    1.8460    0.0000 C.ar    1  LIG1        0.0812
      3 C           1.9706    3.2334    0.0000 C.ar    1  LIG1        0.1211
      4 C           0.8165    3.9895   -0.0001 C.ar    1  LIG1        0.1907
      5 O          -0.3030    3.1567   -0.0002 O.2     1  LIG1       -0.4565
      6 H          -0.7504    0.9343    0.0000 H       1  LIG1        0.1049
      7 N           2.3515    0.8179    0.0001 N.pl3   1  LIG1       -0.3545
      8 H           1.9098    0.0546   -0.4713 H       1  LIG1        0.1424
      9 H           3.2012    1.0540   -0.4713 H       1  LIG1        0.1424
     10 N           4.2839    4.0300    0.0000 N.1     1  LIG1       -0.1907
     11 C           3.1998    3.6567    0.0000 C.1     1  LIG1        0.1049
     12 C           0.5416    5.2601   -0.0001 C.ar    1  LIG1        0.1938
     13 C           1.2792    6.4258   -0.0001 C.ar    1  LIG1        0.0925
     14 C           0.3286    7.5182   -0.0001 C.ar    1  LIG1        0.1219
     15 C          -0.9274    6.9472   -0.0002 C.ar    1  LIG1        0.1918
     16 O          -0.8223    5.5559   -0.0003 O.2     1  LIG1       -0.4453
     17 N           2.5735    6.5485   -0.0000 N.pl3   1  LIG1       -0.3539
     18 H           2.9823    5.7671   -0.4714 H       1  LIG1        0.1425
     19 H           2.8283    7.3927   -0.4714 H       1  LIG1        0.1425
     20 N           0.8924    9.8990   -0.0001 N.1     1  LIG1       -0.1907
     21 C           0.6282    8.7832   -0.0001 C.1     1  LIG1        0.1050
     22 C          -2.1481    7.3943   -0.0002 C.ar    1  LIG1        0.1939
     23 C          -3.4042    6.8241   -0.0002 C.ar    1  LIG1        0.0925
     24 C          -4.3554    7.9160   -0.0002 C.ar    1  LIG1        0.1219
     25 C          -3.6171    9.0815   -0.0003 C.ar    1  LIG1        0.1917
     26 O          -2.2534    8.7859   -0.0004 O.2     1  LIG1       -0.4453
     27 N          -3.7038    5.5591   -0.0001 N.pl3   1  LIG1       -0.3539
     28 H          -4.5751    5.4229   -0.4715 H       1  LIG1        0.1425
     29 H          -2.9861    5.0466   -0.4716 H       1  LIG1        0.1425
     30 N          -6.7911    7.6851   -0.0002 N.1     1  LIG1       -0.1907
     31 C          -5.6496    7.7933   -0.0002 C.1     1  LIG1        0.1050
     32 C          -3.8920   10.3521   -0.0003 C.ar    1  LIG1        0.1928
     33 C          -3.1543   11.5178   -0.0002 C.ar    1  LIG1        0.0917
     34 C          -4.1049   12.6102   -0.0002 C.ar    1  LIG1        0.1107
     35 C          -5.3610   12.0393   -0.0003 C.ar    1  LIG1        0.1119
     36 O          -5.2558   10.6479   -0.0004 O.2     1  LIG1       -0.4566
     37 H          -6.5817   12.4864   -0.0003 H       1  LIG1        0.1043
     38 N          -1.8601   11.6405   -0.0001 N.pl3   1  LIG1       -0.3540
     39 H          -1.4512   10.8591   -0.4715 H       1  LIG1        0.1425
     40 H          -1.6053   12.4847   -0.4716 H       1  LIG1        0.1425
     41 N          -3.5412   14.9910   -0.0002 N.1     1  LIG1       -0.1907
     42 C          -3.8054   13.8752   -0.0002 C.1     1  LIG1        0.1042
@<TRIPOS>BOND
     1    29    27    1
     2    40    38    1
     3    28    27    1
     4    39    38    1
     5    19    17    1
     6    18    17    1
     7     9     7    1
     8     8     7    1
     9    36    35   ar
    10    36    32   ar
    11    26    25   ar
    12    26    22   ar
    13    35    37    1
    14    35    34   ar
    15    16    15   ar
    16    16    12   ar
    17    25    32    1
    18    25    24   ar
    19    32    33   ar
    20    33    34   ar
    21    33    38    1
    22    30    31    3
    23    23    24   ar
    24    23    22   ar
    25    23    27    1
    26    31    24    1
    27    34    42    1
    28    15    22    1
    29    15    14   ar
    30     5     4   ar
    31     5     1   ar
    32    42    41    3
    33    20    21    3
    34    21    14    1
    35    14    13   ar
    36    13    12   ar
    37    13    17    1
    38    12     4    1
    39     4     3   ar
    40     1     2   ar
    41     1     6    1
    42     2     3   ar
    43     2     7    1
    44     3    11    1
    45    10    11    3
