@<TRIPOS>MOLECULE
mol_data/noopt/geoms/mol2/12hd12hd12hd12hd.out
 42 45 0 0 0
SMALL
GASTEIGER

@<TRIPOS>ATOM
      1 C           0.1763    1.8460    0.0000 C.ar    1  LIG1        0.1146
      2 C           1.5558    1.8460    0.0000 C.ar    1  LIG1        0.0812
      3 C           1.9706    3.2334    0.0000 C.ar    1  LIG1        0.1211
      4 C           0.8165    3.9895   -0.0001 C.ar    1  LIG1        0.1907
      5 O          -0.3030    3.1567   -0.0002 O.2     1  LIG1       -0.4565
      6 H          -0.7504    0.9343    0.0000 H       1  LIG1        0.1049
      7 N           2.3515    0.8179    0.0001 N.pl3   1  LIG1       -0.3545
      8 H           1.9098    0.0546   -0.4713 H       1  LIG1        0.1424
      9 H           3.2012    1.0540   -0.4713 H       1  LIG1        0.1424
     10 N           4.2839    4.0300    0.0000 N.1     1  LIG1       -0.1907
     11 C           3.1998    3.6567    0.0000 C.1     1  LIG1        0.1049
     12 C           0.5416    5.2601   -0.0001 C.ar    1  LIG1        0.1938
     13 C           1.2792    6.4258   -0.0001 C.ar    1  LIG1        0.0925
     14 C           0.3286    7.5182   -0.0001 C.ar    1  LIG1        0.1219
     15 C          -0.9274    6.9472   -0.0002 C.ar    1  LIG1        0.1918
     16 O          -0.8223    5.5559   -0.0003 O.2     1  LIG1       -0.4453
     17 N           2.5735    6.5485   -0.0000 N.pl3   1  LIG1       -0.3539
     18 H           2.9823    5.7671   -0.4714 H       1  LIG1        0.1425
     19 H           2.8283    7.3927   -0.4714 H       1  LIG1        0.1425
     20 N           0.8924    9.8990   -0.0001 N.1     1  LIG1       -0.1907
     21 C           0.6282    8.7832   -0.0001 C.1     1  LIG1        0.1050
     22 C          -2.1481    7.3943   -0.0002 C.ar    1  LIG1        0.1939
     23 C          -2.7387    8.6410   -0.0002 C.ar    1  LIG1        0.0925
     24 C          -4.1701    8.4218   -0.0002 C.ar    1  LIG1        0.1219
     25 C          -4.3593    7.0551   -0.0003 C.ar    1  LIG1        0.1917
     26 O          -3.1273    6.4000   -0.0004 O.2     1  LIG1       -0.4453
     27 N          -2.1503    9.8002   -0.0001 N.pl3   1  LIG1       -0.3539
     28 H          -1.2714    9.7279   -0.4715 H       1  LIG1        0.1425
     29 H          -2.7275   10.4670   -0.4715 H       1  LIG1        0.1425
     30 N          -5.8805   10.1712   -0.0002 N.1     1  LIG1       -0.1907
     31 C          -5.0789    9.3514   -0.0002 C.1     1  LIG1        0.1050
     32 C          -5.3898    6.2627   -0.0003 C.ar    1  LIG1        0.1928
     33 C          -6.7591    6.4302   -0.0003 C.ar    1  LIG1        0.0917
     34 C          -7.3393    5.1034   -0.0003 C.ar    1  LIG1        0.1107
     35 C          -6.2855    4.2128   -0.0004 C.ar    1  LIG1        0.1119
     36 O          -5.0732    4.9035   -0.0005 O.2     1  LIG1       -0.4566
     37 H          -6.1669    2.9182   -0.0004 H       1  LIG1        0.1043
     38 N          -7.4241    7.5472   -0.0002 N.pl3   1  LIG1       -0.3540
     39 H          -6.8930    8.2513   -0.4716 H       1  LIG1        0.1425
     40 H          -8.2962    7.4161   -0.4716 H       1  LIG1        0.1425
     41 N          -9.7322    4.5935   -0.0003 N.1     1  LIG1       -0.1907
     42 C          -8.6107    4.8325   -0.0003 C.1     1  LIG1        0.1042
@<TRIPOS>BOND
     1    40    38    1
     2    39    38    1
     3    29    27    1
     4    28    27    1
     5    19    17    1
     6    18    17    1
     7     9     7    1
     8     8     7    1
     9    36    35   ar
    10    36    32   ar
    11    26    25   ar
    12    26    22   ar
    13    37    35    1
    14    35    34   ar
    15    34    33   ar
    16    34    42    1
    17    25    32    1
    18    25    24   ar
    19    16    15   ar
    20    16    12   ar
    21    32    33   ar
    22    33    38    1
    23    41    42    3
    24    31    30    3
    25    31    24    1
    26    22    23   ar
    27    22    15    1
    28    23    24   ar
    29    23    27    1
    30     5     4   ar
    31     5     1   ar
    32    15    14   ar
    33    13    12   ar
    34    13    14   ar
    35    13    17    1
    36     4    12    1
    37     4     3   ar
    38    14    21    1
    39    20    21    3
    40    11    10    3
    41    11     3    1
    42     6     1    1
    43     1     2   ar
    44     3     2   ar
    45     2     7    1
