@<TRIPOS>MOLECULE
mol_data/noopt/geoms/mol2/12hd6ae13he13hi.out
 48 51 0 0 0
SMALL
GASTEIGER

@<TRIPOS>ATOM
      1 C           0.1763    1.8460    0.0000 C.ar    1  LIG1        0.1145
      2 C           1.5558    1.8460    0.0000 C.ar    1  LIG1        0.0811
      3 C           1.9706    3.2334    0.0000 C.ar    1  LIG1        0.1180
      4 C           0.8165    3.9895   -0.0001 C.ar    1  LIG1        0.1554
      5 O          -0.3030    3.1567   -0.0002 O.2     1  LIG1       -0.4597
      6 H          -0.7504    0.9343    0.0000 H       1  LIG1        0.1049
      7 N           2.3515    0.8179    0.0001 N.pl3   1  LIG1       -0.3545
      8 H           1.9098    0.0546   -0.4713 H       1  LIG1        0.1424
      9 H           3.2012    1.0540   -0.4713 H       1  LIG1        0.1424
     10 N           4.2839    4.0300    0.0000 N.1     1  LIG1       -0.1907
     11 C           3.1998    3.6567    0.0000 C.1     1  LIG1        0.1048
     12 C          -0.7953    5.6985    0.0001 C.ar    1  LIG1        0.0391
     13 C           0.5416    5.2601   -0.0001 C.ar    1  LIG1        0.0379
     14 C           1.5573    6.2179    0.0001 C.ar    1  LIG1       -0.0320
     15 C           1.2067    7.5691    0.0002 C.ar    1  LIG1        0.0528
     16 C          -0.1587    7.9086    0.0001 C.ar    1  LIG1        0.1043
     17 N          -1.1514    6.9977    0.0002 N.ar    1  LIG1       -0.2515
     18 H           2.6135    5.9134   -0.0011 H       1  LIG1        0.0638
     19 H          -1.7757    4.8447    0.0000 H       1  LIG1        0.0837
     20 C           2.1151    8.4991    0.0002 C.1     1  LIG1       -0.0674
     21 C           2.9544    9.3584    0.0001 C.1     1  LIG1       -0.1138
     22 H           3.7021   10.1238    0.0001 H       1  LIG1        0.1232
     23 C          -0.5350    9.1530    0.0003 C.ar    1  LIG1        0.0888
     24 C           0.1997   10.2966    0.0167 C.ar    1  LIG1        0.0680
     25 C          -0.7188   11.3952    0.0092 C.ar    1  LIG1        0.0727
     26 C          -1.9744   10.8746   -0.0132 C.ar    1  LIG1        0.0826
     27 N          -1.8665    9.5021   -0.0182 N.ar    1  LIG1       -0.3493
     28 H          -2.6289    8.8646   -0.0335 H       1  LIG1        0.1661
     29 N           1.4972   10.3746    0.0371 N.pl3   1  LIG1       -0.3553
     30 H           1.8862    9.5800   -0.4291 H       1  LIG1        0.1424
     31 H           1.7883   11.2100   -0.4291 H       1  LIG1        0.1424
     32 C          -0.4124   12.6585    0.0211 C.1     1  LIG1       -0.0656
     33 C          -0.1293   13.8258    0.0321 C.1     1  LIG1       -0.1138
     34 H           0.1229   14.8656    0.0419 H       1  LIG1        0.1232
     35 C          -3.1324   11.4653   -0.0275 C.ar    1  LIG1        0.0853
     36 C          -3.4479   12.7875   -0.0377 C.ar    1  LIG1        0.0546
     37 C          -4.8764   12.8862   -0.0509 C.ar    1  LIG1       -0.0118
     38 C          -5.3710   11.6199   -0.0501 C.ar    1  LIG1        0.0069
     39 N          -4.3067   10.7469   -0.0353 N.ar    1  LIG1       -0.3578
     40 H          -4.3753    9.7553   -0.0316 H       1  LIG1        0.1654
     41 H          -6.5993   11.1941   -0.0595 H       1  LIG1        0.0810
     42 N          -2.6051   13.7773   -0.0342 N.pl3   1  LIG1       -0.3561
     43 H          -1.7666   13.5027   -0.5048 H       1  LIG1        0.1424
     44 H          -3.0099   14.5613   -0.5048 H       1  LIG1        0.1424
     45 C          -5.5752   13.9828   -0.0622 C.3     1  LIG1       -0.0365
     46 H          -6.5060   13.8177    0.4392 H       1  LIG1        0.0279
     47 H          -5.7622   14.2762   -1.0741 H       1  LIG1        0.0279
     48 H          -5.0324   14.7567    0.4391 H       1  LIG1        0.0279
@<TRIPOS>BOND
     1    47    45    1
     2    44    42    1
     3    43    42    1
     4     9     7    1
     5     8     7    1
     6    31    29    1
     7    30    29    1
     8    45    37    1
     9    45    48    1
    10    45    46    1
    11    41    38    1
    12    37    38   ar
    13    37    36   ar
    14    38    39   ar
    15    36    42    1
    16    36    35   ar
    17    39    40    1
    18    39    35   ar
    19    28    27    1
    20    35    26    1
    21    27    26   ar
    22    27    23   ar
    23    26    25   ar
    24    18    14    1
    25     5     4   ar
    26     5     1   ar
    27    13     4    1
    28    13    12   ar
    29    13    14   ar
    30     4     3   ar
    31     1     6    1
    32     1     2   ar
    33    11    10    3
    34    11     3    1
    35     3     2   ar
    36     2     7    1
    37    19    12    1
    38    12    17   ar
    39    14    15   ar
    40    22    21    1
    41    21    20    3
    42    16    17   ar
    43    16    15   ar
    44    16    23    1
    45    20    15    1
    46    23    24   ar
    47    25    24   ar
    48    25    32    1
    49    24    29    1
    50    32    33    3
    51    33    34    1
