@<TRIPOS>MOLECULE
mol_data/noopt/geoms/mol2/12hd12hd-4hd12hd.out
 45 48 0 0 0
SMALL
GASTEIGER

@<TRIPOS>ATOM
      1 C           0.1763    1.8460    0.0000 C.ar    1  LIG1        0.1146
      2 C           1.5558    1.8460    0.0000 C.ar    1  LIG1        0.0812
      3 C           1.9706    3.2334    0.0000 C.ar    1  LIG1        0.1211
      4 C           0.8165    3.9895   -0.0001 C.ar    1  LIG1        0.1907
      5 O          -0.3030    3.1567   -0.0002 O.2     1  LIG1       -0.4565
      6 H          -0.7504    0.9343    0.0000 H       1  LIG1        0.1049
      7 N           2.3515    0.8179    0.0001 N.pl3   1  LIG1       -0.3545
      8 H           1.9098    0.0546   -0.4713 H       1  LIG1        0.1424
      9 H           3.2012    1.0540   -0.4713 H       1  LIG1        0.1424
     10 N           4.2839    4.0300    0.0000 N.1     1  LIG1       -0.1907
     11 C           3.1998    3.6567    0.0000 C.1     1  LIG1        0.1049
     12 C           0.5416    5.2601   -0.0001 C.ar    1  LIG1        0.1937
     13 C          -0.6119    6.0167   -0.0001 C.ar    1  LIG1        0.0924
     14 C          -0.1979    7.4043   -0.0001 C.ar    1  LIG1        0.1188
     15 C           1.1818    7.4036   -0.0002 C.ar    1  LIG1        0.1568
     16 O           1.6612    6.0932   -0.0003 O.2     1  LIG1       -0.4484
     17 N          -1.8411    5.5934   -0.0000 N.pl3   1  LIG1       -0.3539
     18 H          -2.4221    6.2568   -0.4714 H       1  LIG1        0.1425
     19 H          -1.8904    4.7129   -0.4715 H       1  LIG1        0.1425
     20 N          -1.6953    9.3391   -0.0001 N.1     1  LIG1       -0.1907
     21 C          -0.9936    8.4323   -0.0001 C.1     1  LIG1        0.1049
     22 C           3.4666    7.9365    0.0006 C.ar    1  LIG1        0.0361
     23 C           4.4321    8.9616    0.0022 C.ar    1  LIG1       -0.0284
     24 C           2.1085    8.3153   -0.0002 C.ar    1  LIG1        0.0405
     25 C           4.0641   10.3052    0.0023 C.ar    1  LIG1        0.0382
     26 H           5.4858    8.6915    0.0030 H       1  LIG1        0.0644
     27 C           1.7405    9.6564   -0.0000 C.ar    1  LIG1       -0.0312
     28 C           2.7146   10.6603    0.0011 C.ar    1  LIG1        0.0633
     29 H           0.6867    9.9230   -0.0005 H       1  LIG1        0.0638
     30 N           3.8714    6.7011    0.0003 N.pl3   1  LIG1       -0.3574
     31 H           3.1992    6.1302   -0.4712 H       1  LIG1        0.1423
     32 H           4.7510    6.6387   -0.4712 H       1  LIG1        0.1423
     33 N           2.0560   13.0165    0.0017 N.1     1  LIG1       -0.1908
     34 C           2.3647   11.9123    0.0014 C.1     1  LIG1        0.0999
     35 C           4.9819   11.2258    0.0036 C.ar    1  LIG1        0.1579
     36 C           6.3613   11.2392    0.0046 C.ar    1  LIG1        0.0886
     37 C           6.7627   12.6306    0.0059 C.ar    1  LIG1        0.1106
     38 C           5.6013   13.3755    0.0055 C.ar    1  LIG1        0.1118
     39 O           4.4899   12.5318    0.0040 O.2     1  LIG1       -0.4597
     40 H           5.3141   14.6433    0.0062 H       1  LIG1        0.1043
     41 N           7.1670   10.2189    0.0046 N.pl3   1  LIG1       -0.3540
     42 H           6.7327    9.4514   -0.4669 H       1  LIG1        0.1425
     43 H           8.0143   10.4633   -0.4669 H       1  LIG1        0.1425
     44 N           9.0681   13.4496    0.0082 N.1     1  LIG1       -0.1907
     45 C           7.9877   13.0658    0.0071 C.1     1  LIG1        0.1042
@<TRIPOS>BOND
     1    19    17    1
     2    18    17    1
     3     9     7    1
     4     8     7    1
     5    32    30    1
     6    31    30    1
     7    43    41    1
     8    42    41    1
     9    29    27    1
    10    16    15   ar
    11    16    12   ar
    12     5     4   ar
    13     5     1   ar
    14    15    24    1
    15    15    14   ar
    16    24    27   ar
    17    24    22   ar
    18    20    21    3
    19    13    14   ar
    20    13    12   ar
    21    13    17    1
    22    21    14    1
    23    12     4    1
    24     4     3   ar
    25    27    28   ar
    26     1     6    1
    27     1     2   ar
    28    11    10    3
    29    11     3    1
    30     3     2   ar
    31     2     7    1
    32    30    22    1
    33    22    23   ar
    34    28    34    1
    35    28    25   ar
    36    34    33    3
    37    23    25   ar
    38    23    26    1
    39    25    35    1
    40    35    39   ar
    41    35    36   ar
    42    39    38   ar
    43    41    36    1
    44    36    37   ar
    45    38    37   ar
    46    38    40    1
    47    37    45    1
    48    45    44    3
