@<TRIPOS>MOLECULE
mol_data/noopt/geoms/mol2/12hd4ea-12af-4ie6hh6ea4ea13il.out
 98 106 0 0 0
SMALL
GASTEIGER

@<TRIPOS>ATOM
      1 C           0.1763    1.8460    0.0000 C.ar    1  LIG1        0.1135
      2 C           1.5558    1.8460    0.0000 C.ar    1  LIG1        0.0690
      3 C           1.9706    3.2334    0.0000 C.ar    1  LIG1        0.0491
      4 C           0.8165    3.9895   -0.0001 C.ar    1  LIG1        0.1429
      5 O          -0.3030    3.1567   -0.0002 O.2     1  LIG1       -0.4607
      6 H          -0.7504    0.9343    0.0000 H       1  LIG1        0.1049
      7 N           2.3515    0.8179    0.0001 N.pl3   1  LIG1       -0.3553
      8 H           1.9098    0.0546   -0.4713 H       1  LIG1        0.1424
      9 H           3.2012    1.0540   -0.4713 H       1  LIG1        0.1424
     10 N           4.2839    4.0300    0.0000 N.pl3   1  LIG1       -0.2334
     11 C           3.1998    3.6567    0.0000 C.3     1  LIG1        0.1428
     12 C           1.5877    6.2051    0.0220 C.2     1  LIG1        0.0291
     13 C           1.2377    7.5692    0.0226 C.2     1  LIG1       -0.0389
     14 C           0.5416    5.2600   -0.0001 C.2     1  LIG1        0.0292
     15 C          -0.0943    7.9766    0.0015 C.2     1  LIG1        0.0039
     16 H           2.0291    8.3151    0.0396 H       1  LIG1        0.0634
     17 C          -0.7883    5.6663   -0.0212 C.2     1  LIG1       -0.0638
     18 C          -1.1157    7.0262   -0.0206 C.3     1  LIG1        0.0171
     19 H          -1.5769    4.9183   -0.0379 H       1  LIG1        0.0586
     20 C           2.8479    5.8865    0.0420 C.1     1  LIG1       -0.0946
     21 C           4.0123    5.5922    0.0605 C.2     1  LIG1        0.0551
     22 H           5.0496    5.3300    0.0769 H       1  LIG1        0.0888
     23 H          -2.3607    7.3999   -0.0402 H       1  LIG1        0.0402
     24 C          -0.3815    9.2445    0.0026 C.ar    1  LIG1        0.1360
     25 C           0.3447   10.4173    0.0034 C.ar    1  LIG1        0.0261
     26 C          -0.6164   11.5004    0.0044 C.ar    1  LIG1        0.1632
     27 C          -1.8669   10.9173    0.0041 C.ar    1  LIG1        0.1771
     28 O          -1.7482    9.5271    0.0028 O.2     1  LIG1       -0.4513
     29 H           1.6377   10.5525    0.0034 H       1  LIG1        0.0692
     30 O          -0.3292   12.7683    0.0054 O.3     1  LIG1       -0.5032
     31 H          -1.1410   13.2808    0.0056 H       1  LIG1        0.2923
     32 C          -3.3445   12.7396    0.0057 C.ar    1  LIG1       -0.0391
     33 C          -4.6885   13.1602    0.0079 C.ar    1  LIG1       -0.0501
     34 C          -3.0918   11.3525    0.0047 C.ar    1  LIG1        0.0241
     35 C          -5.7362   12.2421    0.0083 C.ar    1  LIG1       -0.0107
     36 H          -4.9059   14.2260    0.0089 H       1  LIG1        0.0627
     37 C          -4.1374   10.4355    0.0051 C.ar    1  LIG1       -0.0467
     38 C          -5.4659   10.8731    0.0068 C.ar    1  LIG1       -0.0349
     39 H          -3.9167    9.3711    0.0043 H       1  LIG1        0.0628
     40 C          -2.4099   13.6437    0.0052 C.3     1  LIG1       -0.0390
     41 H          -2.7608   14.5197    0.5094 H       1  LIG1        0.0278
     42 H          -2.1539   13.8914   -1.0038 H       1  LIG1        0.0278
     43 H          -1.5459   13.2638    0.5094 H       1  LIG1        0.0278
     44 C          -6.4392   10.0113    0.0074 C.3     1  LIG1       -0.0048
     45 C          -7.3386    9.2150    0.0079 C.3     1  LIG1       -0.0263
     46 H          -8.1396    8.5056    0.0084 H       1  LIG1        0.0313
     47 C          -8.0330   11.7492    0.0114 C.ar    1  LIG1        0.1434
     48 C          -6.9653   12.6654    0.0102 C.ar    1  LIG1        0.0253
     49 C          -7.2582   14.0304    0.0114 C.ar    1  LIG1       -0.0279
     50 C          -8.5955   14.4308    0.0135 C.ar    1  LIG1        0.0517
     51 C          -9.5934   13.4390    0.0144 C.ar    1  LIG1        0.0964
     52 N          -9.3287   12.1179    0.0134 N.ar    1  LIG1       -0.2282
     53 H          -6.4504   14.7759    0.0095 H       1  LIG1        0.0644
     54 N          -7.8109   10.4683    0.0104 N.pl3   1  LIG1       -0.2488
     55 H          -8.5585   10.0007   -0.4612 H       1  LIG1        0.1715
     56 H          -6.9496   10.2797   -0.4613 H       1  LIG1        0.0358
     57 N          -8.9201   15.6896    0.0145 N.pl3   1  LIG1       -0.3563
     58 H          -8.2128   16.2166   -0.4566 H       1  LIG1        0.1424
     59 H          -9.7940   15.8089   -0.4567 H       1  LIG1        0.1424
     60 C         -11.8430   12.7627    0.0177 C.ar    1  LIG1        0.1230
     61 C         -10.8526   13.7619    0.0164 C.ar    1  LIG1        0.0361
     62 C         -11.2545   15.0989    0.0178 C.ar    1  LIG1       -0.0478
     63 C         -12.6196   15.3903    0.0201 C.ar    1  LIG1       -0.0350
     64 C         -13.5344   14.3213    0.0210 C.ar    1  LIG1        0.0736
     65 N         -13.1642   13.0258    0.0200 N.ar    1  LIG1       -0.2377
     66 H         -10.5094   15.9071    0.0158 H       1  LIG1        0.0626
     67 C         -11.5185   11.5039    0.0167 C.1     1  LIG1       -0.0491
     68 C         -11.2186   10.3407    0.0157 C.1     1  LIG1       -0.1124
     69 H         -10.9514    9.3046    0.0149 H       1  LIG1        0.1232
     70 H         -13.0446   16.6189    0.0212 H       1  LIG1        0.0639
     71 C         -15.3005   15.8656    0.0253 C.ar    1  LIG1        0.0345
     72 C         -16.6965   16.0514    0.0292 C.ar    1  LIG1       -0.0366
     73 C         -14.8155   14.5418    0.0233 C.ar    1  LIG1        0.0158
     74 C         -17.5727   14.9685    0.0306 C.ar    1  LIG1       -0.0001
     75 H         -17.0921   17.0647    0.0310 H       1  LIG1        0.0636
     76 C         -15.6899   13.4603    0.0246 C.ar    1  LIG1       -0.0508
     77 C         -17.0735   13.6654    0.0281 C.ar    1  LIG1       -0.0519
     78 H         -15.2913   12.4489    0.0231 H       1  LIG1        0.0625
     79 C         -14.5336   16.9153    0.0239 C.1     1  LIG1       -0.0690
     80 C         -13.8249   17.8852    0.0227 C.1     1  LIG1       -0.1139
     81 H         -13.1937   18.7492    0.0216 H       1  LIG1        0.1232
     82 H         -17.8860   12.6506    0.0295 H       1  LIG1        0.0624
     83 C         -18.8560   15.1765    0.0341 C.ar    1  LIG1        0.0530
     84 C         -19.5610   16.3387    0.0362 C.ar    1  LIG1        0.0164
     85 C         -20.9513   15.9956    0.0411 C.ar    1  LIG1        0.1408
     86 C         -21.0347   14.6387    0.0401 C.ar    1  LIG1        0.0446
     87 N         -19.7542   14.1332    0.0363 N.ar    1  LIG1       -0.3574
     88 H         -19.5160   13.1682    0.0346 H       1  LIG1        0.1655
     89 H         -22.0737   13.8574    0.0431 H       1  LIG1        0.0844
     90 C         -19.0614   17.5393    0.0354 C.3     1  LIG1       -0.0342
     91 H         -19.7309   18.2045    0.5397 H       1  LIG1        0.0279
     92 H         -18.9247   17.8681   -0.9736 H       1  LIG1        0.0279
     93 H         -18.1177   17.5331    0.5396 H       1  LIG1        0.0279
     94 O         -21.9519   16.8255    0.0453 O.3     1  LIG1       -0.4933
     95 C         -21.4587   18.1678    0.0468 C.3     1  LIG1        0.0789
     96 H         -22.2826   18.8506    0.0501 H       1  LIG1        0.0660
     97 H         -20.8602   18.3269    0.9194 H       1  LIG1        0.0660
     98 H         -20.8643   18.3303   -0.8279 H       1  LIG1        0.0660
@<TRIPOS>BOND
     1    42    40    1
     2    92    90    1
     3    98    95    1
     4     9     7    1
     5     8     7    1
     6    56    44    1
     7    55    54    1
     8    59    57    1
     9    58    57    1
    10    23    18    1
    11    19    17    1
    12    17    18    1
    13    17    14    2
    14    18    15    1
    15     5     4   ar
    16     5     1   ar
    17    14     4    1
    18    14    12    1
    19     4     3   ar
    20     1     2   ar
    21     1     6    1
    22     2     3   ar
    23     2     7    1
    24     3    11    1
    25    10    11    1
    26    10    21    1
    27    15    24    1
    28    15    13    2
    29    24    28   ar
    30    24    25   ar
    31    28    27   ar
    32    29    25    1
    33    25    26   ar
    34    27    26   ar
    35    27    34    1
    36    39    37    1
    37    26    30    1
    38    34    37   ar
    39    34    32   ar
    40    37    38   ar
    41    40    32    1
    42    40    43    1
    43    40    41    1
    44    30    31    1
    45    32    33   ar
    46    38    44    1
    47    38    35   ar
    48    44    45    1
    49    33    35   ar
    50    33    36    1
    51    45    46    1
    52    35    48    1
    53    53    49    1
    54    48    47   ar
    55    48    49   ar
    56    54    47    1
    57    47    52   ar
    58    49    50   ar
    59    52    51   ar
    60    50    51   ar
    61    50    57    1
    62    51    61    1
    63    69    68    1
    64    68    67    3
    65    66    62    1
    66    61    60   ar
    67    61    62   ar
    68    67    60    1
    69    60    65   ar
    70    62    63   ar
    71    65    64   ar
    72    63    64   ar
    73    63    70    1
    74    64    73    1
    75    81    80    1
    76    12    13    1
    77    12    20    2
    78    13    16    1
    79    80    79    3
    80    78    76    1
    81    73    76   ar
    82    73    71   ar
    83    79    71    1
    84    76    77   ar
    85    71    72   ar
    86    77    82    1
    87    77    74   ar
    88    72    74   ar
    89    72    75    1
    90    74    83    1
    91    83    84   ar
    92    83    87   ar
    93    88    87    1
    94    90    84    1
    95    90    93    1
    96    90    91    1
    97    84    85   ar
    98    87    86   ar
    99    86    85   ar
   100    86    89    1
   101    85    94    1
   102    20    21    2
   103    94    95    1
   104    95    96    1
   105    95    97    1
   106    21    22    1
