@<TRIPOS>MOLECULE
mol_data/noopt/geoms/mol2/12hd4ef(240)6al(20)12fe(190).out
 48 51 0 0 0
SMALL
GASTEIGER

@<TRIPOS>ATOM
      1 C           0.1763    1.8460    0.0000 C.ar    1  LIG1        0.1145
      2 C           1.5558    1.8460    0.0000 C.ar    1  LIG1        0.0811
      3 C           1.9706    3.2334    0.0000 C.ar    1  LIG1        0.1180
      4 C           0.8165    3.9895   -0.0001 C.ar    1  LIG1        0.1552
      5 O          -0.3030    3.1567   -0.0002 O.2     1  LIG1       -0.4597
      6 H          -0.7504    0.9343    0.0000 H       1  LIG1        0.1049
      7 N           2.3515    0.8179    0.0001 N.pl3   1  LIG1       -0.3545
      8 H           1.9098    0.0546   -0.4713 H       1  LIG1        0.1424
      9 H           3.2012    1.0540   -0.4713 H       1  LIG1        0.1424
     10 N           4.2839    4.0300    0.0000 N.1     1  LIG1       -0.1907
     11 C           3.1998    3.6567    0.0000 C.1     1  LIG1        0.1048
     12 C          -0.2037    5.8175   -1.0591 C.ar    1  LIG1        0.0362
     13 C          -0.4738    7.1989   -1.0134 C.ar    1  LIG1       -0.0344
     14 C           0.5416    5.2600   -0.0001 C.ar    1  LIG1        0.0374
     15 C          -0.0233    7.9920    0.0395 C.ar    1  LIG1        0.0263
     16 H          -1.0472    7.6495   -1.8205 H       1  LIG1        0.0637
     17 C           0.9917    6.0514    1.0513 C.ar    1  LIG1       -0.0077
     18 C           0.7128    7.4218    1.0788 C.ar    1  LIG1        0.1253
     19 H           1.5646    5.5980    1.8561 H       1  LIG1        0.0662
     20 C          -0.6509    5.1296   -2.0674 C.1     1  LIG1       -0.0689
     21 C          -1.0642    4.4939   -2.9991 C.1     1  LIG1       -0.1139
     22 H          -1.4323    3.9277   -3.8291 H       1  LIG1        0.1232
     23 O           1.1362    8.1565    2.0642 O.3     1  LIG1       -0.5061
     24 H           0.4565    8.7895    2.3070 H       1  LIG1        0.2922
     25 C          -1.5544    9.7283   -0.3593 C.ar    1  LIG1        0.0364
     26 C          -0.2909    9.2641    0.0497 C.ar    1  LIG1        0.0072
     27 C           0.6605   10.1981    0.4640 C.ar    1  LIG1       -0.0084
     28 C           0.3209   11.5521    0.4557 C.ar    1  LIG1        0.1497
     29 C          -0.9688   11.9184    0.0291 C.ar    1  LIG1        0.1511
     30 N          -1.8989   11.0306   -0.3737 N.ar    1  LIG1       -0.2475
     31 H           1.6588    9.8731    0.7896 H       1  LIG1        0.0661
     32 H          -2.4732    8.8974   -0.7535 H       1  LIG1        0.0836
     33 O           1.1714   12.4605    0.8320 O.3     1  LIG1       -0.4928
     34 C           2.4677   11.8729    0.9700 C.3     1  LIG1        0.0789
     35 H           3.1673   12.6209    1.2795 H       1  LIG1        0.0660
     36 H           2.4302   11.0944    1.7033 H       1  LIG1        0.0660
     37 H           2.7756   11.4634    0.0307 H       1  LIG1        0.0660
     38 C          -1.3320   13.1663    0.0037 C.ar    1  LIG1        0.1989
     39 C          -2.5239   13.8404   -0.1631 C.ar    1  LIG1        0.1800
     40 C          -2.2165   15.2531   -0.0813 C.ar    1  LIG1        0.1045
     41 C          -0.8564   15.3486    0.1302 C.ar    1  LIG1        0.1117
     42 O          -0.2888   14.0752    0.1865 O.2     1  LIG1       -0.4562
     43 H          -0.0091   16.3224    0.2843 H       1  LIG1        0.1043
     44 O          -3.7048   13.3326   -0.3572 O.3     1  LIG1       -0.5024
     45 H          -3.6384   12.3761   -0.4050 H       1  LIG1        0.2923
     46 C          -3.0754   16.2229   -0.1897 C.1     1  LIG1       -0.0628
     47 C          -3.8691   17.1190   -0.2899 C.1     1  LIG1       -0.1137
     48 H          -4.5760   17.9173   -0.3791 H       1  LIG1        0.1232
@<TRIPOS>BOND
     1    22    21    1
     2    21    20    3
     3    20    12    1
     4    16    13    1
     5    12    13   ar
     6    12    14   ar
     7    13    15   ar
     8    32    25    1
     9     9     7    1
    10     8     7    1
    11    45    44    1
    12    48    47    1
    13    30    25   ar
    14    30    29   ar
    15    25    26   ar
    16    44    39    1
    17    47    46    3
    18    46    40    1
    19    39    40   ar
    20    39    38   ar
    21    40    41   ar
    22     5     4   ar
    23     5     1   ar
    24    14     4    1
    25    14    17   ar
    26     4     3   ar
    27     2     3   ar
    28     2     1   ar
    29     2     7    1
    30     3    11    1
    31     1     6    1
    32    11    10    3
    33    38    29    1
    34    38    42   ar
    35    29    28   ar
    36    37    34    1
    37    15    26    1
    38    15    18   ar
    39    26    27   ar
    40    41    42   ar
    41    41    43    1
    42    28    27   ar
    43    28    33    1
    44    27    31    1
    45    33    34    1
    46    34    35    1
    47    34    36    1
    48    17    18   ar
    49    17    19    1
    50    18    23    1
    51    23    24    1
