@<TRIPOS>MOLECULE
mol_data/noopt/geoms/mol2/12hd4eh(20)12ia(90)12ae(100).out
 45 48 0 0 0
SMALL
GASTEIGER

@<TRIPOS>ATOM
      1 C           0.1763    1.8460    0.0000 C.ar    1  LIG1        0.1145
      2 C           1.5558    1.8460    0.0000 C.ar    1  LIG1        0.0811
      3 C           1.9706    3.2334    0.0000 C.ar    1  LIG1        0.1180
      4 C           0.8165    3.9895   -0.0001 C.ar    1  LIG1        0.1552
      5 O          -0.3030    3.1567   -0.0002 O.2     1  LIG1       -0.4597
      6 H          -0.7504    0.9343    0.0000 H       1  LIG1        0.1049
      7 N           2.3515    0.8179    0.0001 N.pl3   1  LIG1       -0.3545
      8 H           1.9098    0.0546   -0.4713 H       1  LIG1        0.1424
      9 H           3.2012    1.0540   -0.4713 H       1  LIG1        0.1424
     10 N           4.2839    4.0300    0.0000 N.1     1  LIG1       -0.1907
     11 C           3.1998    3.6567    0.0000 C.1     1  LIG1        0.1048
     12 C           1.5156    6.1895    0.4187 C.ar    1  LIG1        0.0361
     13 C           1.1682    7.5542    0.4018 C.ar    1  LIG1       -0.0332
     14 C           0.5416    5.2600   -0.0001 C.ar    1  LIG1        0.0357
     15 C          -0.0923    7.9771   -0.0139 C.ar    1  LIG1        0.0393
     16 H           1.9047    8.2882    0.7211 H       1  LIG1        0.0638
     17 C          -0.7170    5.6817   -0.4152 C.ar    1  LIG1       -0.0285
     18 C          -1.0429    7.0419   -0.4253 C.ar    1  LIG1        0.0361
     19 H          -1.4508    4.9456   -0.7334 H       1  LIG1        0.0644
     20 C           2.7074    5.8562    0.8167 C.1     1  LIG1       -0.0689
     21 C           3.8087    5.5482    1.1844 C.1     1  LIG1       -0.1139
     22 H           4.7897    5.2738    1.5119 H       1  LIG1        0.1232
     23 N          -2.2210    7.4302   -0.8142 N.pl3   1  LIG1       -0.3574
     24 H          -2.1336    8.2611   -1.3637 H       1  LIG1        0.1423
     25 H          -2.6447    6.7102   -1.3638 H       1  LIG1        0.1423
     26 C          -0.3792    9.2450   -0.0170 C.ar    1  LIG1        0.1405
     27 C          -0.5968   10.2064    0.9481 C.ar    1  LIG1       -0.0039
     28 C          -0.8764   11.4422    0.2470 C.ar    1  LIG1       -0.0092
     29 C          -0.8110   11.1538   -1.1007 C.ar    1  LIG1        0.1708
     30 O          -0.5058    9.8054   -1.2889 O.2     1  LIG1       -0.4514
     31 C          -0.5636   10.0593    2.2396 C.3     1  LIG1       -0.0361
     32 H           0.1875   10.6999    2.6524 H       1  LIG1        0.0279
     33 H          -0.3339    9.0415    2.4770 H       1  LIG1        0.0279
     34 H          -1.5170   10.3154    2.6523 H       1  LIG1        0.0279
     35 H          -1.1356   12.5876    0.8045 H       1  LIG1        0.0659
     36 C          -0.9639   11.8293   -2.2009 C.ar    1  LIG1        0.1709
     37 C          -1.4428   13.0809   -2.5279 C.ar    1  LIG1        0.0027
     38 C          -1.3298   13.2056   -3.9662 C.ar    1  LIG1        0.0630
     39 C          -0.7889   12.0213   -4.4228 C.ar    1  LIG1        0.1081
     40 O          -0.5544   11.1567   -3.3531 O.2     1  LIG1       -0.4586
     41 H          -0.4581   11.5414   -5.5848 H       1  LIG1        0.1042
     42 H          -1.9096   13.9894   -1.7236 H       1  LIG1        0.0669
     43 C          -1.6781   14.2441   -4.6663 C.1     1  LIG1       -0.0665
     44 C          -2.0000   15.2036   -5.3133 C.1     1  LIG1       -0.1138
     45 H          -2.2867   16.0584   -5.8896 H       1  LIG1        0.1232
@<TRIPOS>BOND
     1    45    44    1
     2    41    39    1
     3    44    43    3
     4    43    38    1
     5    39    38   ar
     6    39    40   ar
     7    38    37   ar
     8    40    36   ar
     9    37    36   ar
    10    37    42    1
    11    36    29    1
    12    25    23    1
    13    24    23    1
    14    30    29   ar
    15    30    26   ar
    16    29    28   ar
    17    23    18    1
    18    19    17    1
    19     9     7    1
    20     8     7    1
    21    18    17   ar
    22    18    15   ar
    23    17    14   ar
    24    26    15    1
    25    26    27   ar
    26    15    13   ar
    27     5     4   ar
    28     5     1   ar
    29     4    14    1
    30     4     3   ar
    31    14    12   ar
    32    11    10    3
    33    11     3    1
    34     6     1    1
    35     1     2   ar
    36     3     2   ar
    37     2     7    1
    38    28    35    1
    39    28    27   ar
    40    13    12   ar
    41    13    16    1
    42    12    20    1
    43    20    21    3
    44    27    31    1
    45    21    22    1
    46    31    33    1
    47    31    34    1
    48    31    32    1
