@<TRIPOS>MOLECULE
mol_data/noopt/geoms/mol2/12hd12hd-12hd12hd-.out
 42 45 0 0 0
SMALL
GASTEIGER

@<TRIPOS>ATOM
      1 C           0.1763    1.8460    0.0000 C.ar    1  LIG1        0.1146
      2 C           1.5558    1.8460    0.0000 C.ar    1  LIG1        0.0812
      3 C           1.9706    3.2334    0.0000 C.ar    1  LIG1        0.1211
      4 C           0.8165    3.9895   -0.0001 C.ar    1  LIG1        0.1907
      5 O          -0.3030    3.1567   -0.0002 O.2     1  LIG1       -0.4565
      6 H          -0.7504    0.9343    0.0000 H       1  LIG1        0.1049
      7 N           2.3515    0.8179    0.0001 N.pl3   1  LIG1       -0.3545
      8 H           1.9098    0.0546   -0.4713 H       1  LIG1        0.1424
      9 H           3.2012    1.0540   -0.4713 H       1  LIG1        0.1424
     10 N           4.2839    4.0300    0.0000 N.1     1  LIG1       -0.1907
     11 C           3.1998    3.6567    0.0000 C.1     1  LIG1        0.1049
     12 C           0.5416    5.2601   -0.0001 C.ar    1  LIG1        0.1938
     13 C          -0.6119    6.0167   -0.0001 C.ar    1  LIG1        0.0925
     14 C          -0.1979    7.4043   -0.0001 C.ar    1  LIG1        0.1219
     15 C           1.1818    7.4036   -0.0002 C.ar    1  LIG1        0.1918
     16 O           1.6612    6.0932   -0.0003 O.2     1  LIG1       -0.4453
     17 N          -1.8411    5.5934   -0.0000 N.pl3   1  LIG1       -0.3539
     18 H          -2.4221    6.2568   -0.4714 H       1  LIG1        0.1425
     19 H          -1.8904    4.7129   -0.4715 H       1  LIG1        0.1425
     20 N          -1.6953    9.3391   -0.0001 N.1     1  LIG1       -0.1907
     21 C          -0.9936    8.4323   -0.0001 C.1     1  LIG1        0.1050
     22 C           2.1085    8.3153   -0.0002 C.ar    1  LIG1        0.1939
     23 C           3.4880    8.3153   -0.0001 C.ar    1  LIG1        0.0925
     24 C           3.9028    9.7027   -0.0001 C.ar    1  LIG1        0.1219
     25 C           2.7487   10.4588   -0.0002 C.ar    1  LIG1        0.1917
     26 O           1.6292    9.6260   -0.0003 O.2     1  LIG1       -0.4453
     27 N           4.2837    7.2872   -0.0000 N.pl3   1  LIG1       -0.3539
     28 H           3.8420    6.5239   -0.4714 H       1  LIG1        0.1425
     29 H           5.1334    7.5233   -0.4715 H       1  LIG1        0.1425
     30 N           6.2161   10.4993   -0.0001 N.1     1  LIG1       -0.1907
     31 C           5.1320   10.1260   -0.0001 C.1     1  LIG1        0.1050
     32 C           2.4738   11.7294   -0.0002 C.ar    1  LIG1        0.1928
     33 C           1.3203   12.4859   -0.0002 C.ar    1  LIG1        0.0917
     34 C           1.7343   13.8736   -0.0002 C.ar    1  LIG1        0.1107
     35 C           3.1141   13.8729   -0.0003 C.ar    1  LIG1        0.1119
     36 O           3.5935   12.5625   -0.0004 O.2     1  LIG1       -0.4566
     37 H           4.0408   14.7846   -0.0002 H       1  LIG1        0.1043
     38 N           0.0911   12.0626   -0.0001 N.pl3   1  LIG1       -0.3540
     39 H          -0.4899   12.7261   -0.4715 H       1  LIG1        0.1425
     40 H           0.0418   11.1821   -0.4716 H       1  LIG1        0.1425
     41 N           0.2369   15.8084   -0.0002 N.1     1  LIG1       -0.1907
     42 C           0.9387   14.9016   -0.0002 C.1     1  LIG1        0.1042
@<TRIPOS>BOND
     1    40    38    1
     2    39    38    1
     3    19    17    1
     4    29    27    1
     5    18    17    1
     6    28    27    1
     7     9     7    1
     8     8     7    1
     9    36    35   ar
    10    36    32   ar
    11    26    25   ar
    12    26    22   ar
    13    16    15   ar
    14    16    12   ar
    15    35    37    1
    16    35    34   ar
    17    25    32    1
    18    25    24   ar
    19    33    32   ar
    20    33    34   ar
    21    33    38    1
    22     5     4   ar
    23     5     1   ar
    24    41    42    3
    25    34    42    1
    26    15    22    1
    27    15    14   ar
    28    22    23   ar
    29    23    24   ar
    30    23    27    1
    31    20    21    3
    32    13    14   ar
    33    13    12   ar
    34    13    17    1
    35    21    14    1
    36    24    31    1
    37    12     4    1
    38     4     3   ar
    39    31    30    3
    40     1     6    1
    41     1     2   ar
    42    11    10    3
    43    11     3    1
    44     3     2   ar
    45     2     7    1
