@<TRIPOS>MOLECULE
mol_data/noopt/geoms/mol2/12hd12hd-.out
 22 23 0 0 0
SMALL
GASTEIGER

@<TRIPOS>ATOM
      1 C           0.1763    1.8460    0.0000 C.ar    1  LIG1        0.1146
      2 C           1.5558    1.8460    0.0000 C.ar    1  LIG1        0.0812
      3 C           1.9706    3.2334    0.0000 C.ar    1  LIG1        0.1211
      4 C           0.8165    3.9895   -0.0001 C.ar    1  LIG1        0.1907
      5 O          -0.3030    3.1567   -0.0002 O.2     1  LIG1       -0.4565
      6 H          -0.7504    0.9343    0.0000 H       1  LIG1        0.1049
      7 N           2.3515    0.8179    0.0001 N.pl3   1  LIG1       -0.3545
      8 H           1.9098    0.0546   -0.4713 H       1  LIG1        0.1424
      9 H           3.2012    1.0540   -0.4713 H       1  LIG1        0.1424
     10 N           4.2839    4.0300    0.0000 N.1     1  LIG1       -0.1907
     11 C           3.1998    3.6567    0.0000 C.1     1  LIG1        0.1049
     12 C           0.5416    5.2601   -0.0001 C.ar    1  LIG1        0.1928
     13 C          -0.6119    6.0167   -0.0001 C.ar    1  LIG1        0.0917
     14 C          -0.1979    7.4043   -0.0001 C.ar    1  LIG1        0.1107
     15 C           1.1818    7.4036   -0.0002 C.ar    1  LIG1        0.1119
     16 O           1.6612    6.0932   -0.0003 O.2     1  LIG1       -0.4566
     17 H           2.1085    8.3153   -0.0002 H       1  LIG1        0.1043
     18 N          -1.8411    5.5934   -0.0000 N.pl3   1  LIG1       -0.3540
     19 H          -2.4221    6.2568   -0.4714 H       1  LIG1        0.1425
     20 H          -1.8904    4.7129   -0.4715 H       1  LIG1        0.1425
     21 N          -1.6953    9.3391   -0.0001 N.1     1  LIG1       -0.1907
     22 C          -0.9936    8.4323   -0.0001 C.1     1  LIG1        0.1042
@<TRIPOS>BOND
     1    20    18    1
     2    19    18    1
     3     9     7    1
     4     8     7    1
     5    16    15   ar
     6    16    12   ar
     7     5     4   ar
     8     5     1   ar
     9    15    17    1
    10    15    14   ar
    11    21    22    3
    12    13    14   ar
    13    13    12   ar
    14    13    18    1
    15    22    14    1
    16    12     4    1
    17     4     3   ar
    18     1     6    1
    19     1     2   ar
    20    11    10    3
    21    11     3    1
    22     3     2   ar
    23     2     7    1
