@<TRIPOS>MOLECULE
mol_data/noopt/geoms/mol2/12hd12hd12hd.out
 32 34 0 0 0
SMALL
GASTEIGER

@<TRIPOS>ATOM
      1 C           0.1763    1.8460    0.0000 C.ar    1  LIG1        0.1146
      2 C           1.5558    1.8460    0.0000 C.ar    1  LIG1        0.0812
      3 C           1.9706    3.2334    0.0000 C.ar    1  LIG1        0.1211
      4 C           0.8165    3.9895   -0.0001 C.ar    1  LIG1        0.1907
      5 O          -0.3030    3.1567   -0.0002 O.2     1  LIG1       -0.4565
      6 H          -0.7504    0.9343    0.0000 H       1  LIG1        0.1049
      7 N           2.3515    0.8179    0.0001 N.pl3   1  LIG1       -0.3545
      8 H           1.9098    0.0546   -0.4713 H       1  LIG1        0.1424
      9 H           3.2012    1.0540   -0.4713 H       1  LIG1        0.1424
     10 N           4.2839    4.0300    0.0000 N.1     1  LIG1       -0.1907
     11 C           3.1998    3.6567    0.0000 C.1     1  LIG1        0.1049
     12 C           0.5416    5.2601   -0.0001 C.ar    1  LIG1        0.1938
     13 C           1.2792    6.4258   -0.0001 C.ar    1  LIG1        0.0925
     14 C           0.3286    7.5182   -0.0001 C.ar    1  LIG1        0.1219
     15 C          -0.9274    6.9472   -0.0002 C.ar    1  LIG1        0.1917
     16 O          -0.8223    5.5559   -0.0003 O.2     1  LIG1       -0.4453
     17 N           2.5735    6.5485   -0.0000 N.pl3   1  LIG1       -0.3539
     18 H           2.9823    5.7671   -0.4714 H       1  LIG1        0.1425
     19 H           2.8283    7.3927   -0.4714 H       1  LIG1        0.1425
     20 N           0.8924    9.8990   -0.0001 N.1     1  LIG1       -0.1907
     21 C           0.6282    8.7832   -0.0001 C.1     1  LIG1        0.1050
     22 C          -2.1481    7.3943   -0.0002 C.ar    1  LIG1        0.1928
     23 C          -2.7387    8.6410   -0.0002 C.ar    1  LIG1        0.0917
     24 C          -4.1701    8.4218   -0.0002 C.ar    1  LIG1        0.1107
     25 C          -4.3593    7.0551   -0.0003 C.ar    1  LIG1        0.1119
     26 O          -3.1273    6.4000   -0.0004 O.2     1  LIG1       -0.4566
     27 H          -5.3898    6.2627   -0.0003 H       1  LIG1        0.1043
     28 N          -2.1503    9.8002   -0.0001 N.pl3   1  LIG1       -0.3540
     29 H          -1.2714    9.7279   -0.4715 H       1  LIG1        0.1425
     30 H          -2.7275   10.4670   -0.4715 H       1  LIG1        0.1425
     31 N          -5.8805   10.1712   -0.0002 N.1     1  LIG1       -0.1907
     32 C          -5.0789    9.3514   -0.0002 C.1     1  LIG1        0.1042
@<TRIPOS>BOND
     1    30    28    1
     2    29    28    1
     3    19    17    1
     4    18    17    1
     5     9     7    1
     6     8     7    1
     7    26    25   ar
     8    26    22   ar
     9    25    27    1
    10    25    24   ar
    11    16    15   ar
    12    16    12   ar
    13    24    23   ar
    14    24    32    1
    15    15    22    1
    16    15    14   ar
    17    22    23   ar
    18    23    28    1
    19     5     4   ar
    20     5     1   ar
    21    31    32    3
    22    21    20    3
    23    21    14    1
    24    13    14   ar
    25    13    12   ar
    26    13    17    1
    27    12     4    1
    28     4     3   ar
    29     1     6    1
    30     1     2   ar
    31    11    10    3
    32    11     3    1
    33     3     2   ar
    34     2     7    1
