@<TRIPOS>MOLECULE
mol_data/noopt/geoms/mol2/12hd13id-12id-12ed.out
 45 48 0 0 0
SMALL
GASTEIGER

@<TRIPOS>ATOM
      1 C           0.1763    1.8460    0.0000 C.ar    1  LIG1        0.1145
      2 C           1.5558    1.8460    0.0000 C.ar    1  LIG1        0.0811
      3 C           1.9706    3.2334    0.0000 C.ar    1  LIG1        0.1194
      4 C           0.8165    3.9895   -0.0001 C.ar    1  LIG1        0.1703
      5 O          -0.3030    3.1567   -0.0002 O.2     1  LIG1       -0.4582
      6 H          -0.7504    0.9343    0.0000 H       1  LIG1        0.1049
      7 N           2.3515    0.8179    0.0001 N.pl3   1  LIG1       -0.3545
      8 H           1.9098    0.0546   -0.4713 H       1  LIG1        0.1424
      9 H           3.2012    1.0540   -0.4713 H       1  LIG1        0.1424
     10 N           4.2839    4.0300    0.0000 N.1     1  LIG1       -0.1907
     11 C           3.1998    3.6567    0.0000 C.1     1  LIG1        0.1049
     12 C           0.5416    5.2601   -0.0001 C.ar    1  LIG1        0.0882
     13 C           1.3662    6.3409   -0.0005 C.ar    1  LIG1       -0.0040
     14 C           0.5391    7.5098    0.0008 C.ar    1  LIG1        0.0836
     15 C          -0.7546    7.0920    0.0002 C.ar    1  LIG1        0.1007
     16 N          -0.7576    5.7154    0.0001 N.ar    1  LIG1       -0.3481
     17 H          -1.5690    5.1412   -0.0005 H       1  LIG1        0.1661
     18 C           2.6662    6.3141   -0.0004 C.3     1  LIG1       -0.0364
     19 H           3.0408    7.1802    0.5041 H       1  LIG1        0.0279
     20 H           3.0229    6.3068   -1.0092 H       1  LIG1        0.0279
     21 H           3.0048    5.4333    0.5040 H       1  LIG1        0.0279
     22 N           1.3056    9.8333    0.0030 N.1     1  LIG1       -0.1908
     23 C           0.9463    8.7444    0.0020 C.1     1  LIG1        0.1017
     24 C          -1.8613    7.7741    0.0007 C.ar    1  LIG1        0.1573
     25 C          -2.1910    9.1135    0.0159 C.ar    1  LIG1        0.0149
     26 C          -3.6372    9.1849    0.0058 C.ar    1  LIG1        0.1041
     27 C          -4.0956    7.8837   -0.0150 C.ar    1  LIG1        0.1894
     28 O          -3.0194    6.9956   -0.0186 O.2     1  LIG1       -0.4486
     29 C          -1.3827   10.1319    0.0357 C.3     1  LIG1       -0.0348
     30 H          -1.8500   10.9483    0.5455 H       1  LIG1        0.0279
     31 H          -1.1515   10.4233   -0.9676 H       1  LIG1        0.0279
     32 H          -0.4814    9.8620    0.5454 H       1  LIG1        0.0279
     33 N          -4.9636   11.2407    0.0229 N.1     1  LIG1       -0.1907
     34 C          -4.3420   10.2772    0.0149 C.1     1  LIG1        0.1034
     35 C          -5.2637    7.3132   -0.0315 C.ar    1  LIG1        0.1876
     36 C          -6.5719    7.7509   -0.0292 C.ar    1  LIG1        0.0908
     37 C          -7.4054    6.5671   -0.0560 C.ar    1  LIG1        0.1055
     38 C          -6.5508    5.4840   -0.0730 C.ar    1  LIG1        0.1113
     39 O          -5.2249    5.9185   -0.0585 O.2     1  LIG1       -0.4572
     40 H          -6.6931    4.1921   -0.0986 H       1  LIG1        0.1043
     41 C          -7.0003    8.9781   -0.0074 C.1     1  LIG1       -0.0645
     42 C          -7.3962   10.1120    0.0127 C.1     1  LIG1       -0.1138
     43 H          -7.7488   11.1221    0.0306 H       1  LIG1        0.1232
     44 N          -9.8519    6.5457   -0.0679 N.1     1  LIG1       -0.1907
     45 C          -8.7053    6.5557   -0.0623 C.1     1  LIG1        0.1036
@<TRIPOS>BOND
     1    20    18    1
     2    31    29    1
     3     9     7    1
     4     8     7    1
     5    40    38    1
     6    38    39   ar
     7    38    37   ar
     8    44    45    3
     9    45    37    1
    10    39    35   ar
    11    37    36   ar
    12    35    36   ar
    13    35    27    1
    14    36    41    1
    15    28    27   ar
    16    28    24   ar
    17    27    26   ar
    18    41    42    3
    19    17    16    1
    20    13    18    1
    21    13    12   ar
    22    13    14   ar
    23    18    21    1
    24    18    19    1
    25     5     4   ar
    26     5     1   ar
    27    12     4    1
    28    12    16   ar
    29     4     3   ar
    30     1     2   ar
    31     1     6    1
    32     2     3   ar
    33     2     7    1
    34     3    11    1
    35    10    11    3
    36    16    15   ar
    37    15    24    1
    38    15    14   ar
    39    24    25   ar
    40    14    23    1
    41    23    22    3
    42    26    34    1
    43    26    25   ar
    44    42    43    1
    45    34    33    3
    46    25    29    1
    47    29    32    1
    48    29    30    1
