@<TRIPOS>MOLECULE
mol_data/noopt/geoms/mol2/12hd12hd-12hd-12hd-.out
 42 45 0 0 0
SMALL
GASTEIGER

@<TRIPOS>ATOM
      1 C           0.1763    1.8460    0.0000 C.ar    1  LIG1        0.1146
      2 C           1.5558    1.8460    0.0000 C.ar    1  LIG1        0.0812
      3 C           1.9706    3.2334    0.0000 C.ar    1  LIG1        0.1211
      4 C           0.8165    3.9895   -0.0001 C.ar    1  LIG1        0.1907
      5 O          -0.3030    3.1567   -0.0002 O.2     1  LIG1       -0.4565
      6 H          -0.7504    0.9343    0.0000 H       1  LIG1        0.1049
      7 N           2.3515    0.8179    0.0001 N.pl3   1  LIG1       -0.3545
      8 H           1.9098    0.0546   -0.4713 H       1  LIG1        0.1424
      9 H           3.2012    1.0540   -0.4713 H       1  LIG1        0.1424
     10 N           4.2839    4.0300    0.0000 N.1     1  LIG1       -0.1907
     11 C           3.1998    3.6567    0.0000 C.1     1  LIG1        0.1049
     12 C           0.5416    5.2601   -0.0001 C.ar    1  LIG1        0.1938
     13 C          -0.6119    6.0167   -0.0001 C.ar    1  LIG1        0.0925
     14 C          -0.1979    7.4043   -0.0001 C.ar    1  LIG1        0.1219
     15 C           1.1818    7.4036   -0.0002 C.ar    1  LIG1        0.1918
     16 O           1.6612    6.0932   -0.0003 O.2     1  LIG1       -0.4453
     17 N          -1.8411    5.5934   -0.0000 N.pl3   1  LIG1       -0.3539
     18 H          -2.4221    6.2568   -0.4714 H       1  LIG1        0.1425
     19 H          -1.8904    4.7129   -0.4715 H       1  LIG1        0.1425
     20 N          -1.6953    9.3391   -0.0001 N.1     1  LIG1       -0.1907
     21 C          -0.9936    8.4323   -0.0001 C.1     1  LIG1        0.1050
     22 C           2.1085    8.3153   -0.0002 C.ar    1  LIG1        0.1939
     23 C           2.1310    9.6946   -0.0002 C.ar    1  LIG1        0.0925
     24 C           3.5250   10.0867   -0.0001 C.ar    1  LIG1        0.1219
     25 C           4.2622    8.9204   -0.0002 C.ar    1  LIG1        0.1917
     26 O           3.4112    7.8147   -0.0003 O.2     1  LIG1       -0.4453
     27 N           1.1161   10.5070   -0.0001 N.pl3   1  LIG1       -0.3539
     28 H           1.3661   11.3527   -0.4715 H       1  LIG1        0.1425
     29 H           0.3456   10.0778   -0.4715 H       1  LIG1        0.1425
     30 N           4.3593   12.3867   -0.0001 N.1     1  LIG1       -0.1907
     31 C           3.9683   11.3088   -0.0001 C.1     1  LIG1        0.1050
     32 C           5.5281    8.6248   -0.0002 C.ar    1  LIG1        0.1928
     33 C           6.7057    9.3433   -0.0002 C.ar    1  LIG1        0.0917
     34 C           7.7825    8.3750   -0.0001 C.ar    1  LIG1        0.1107
     35 C           7.1911    7.1285   -0.0002 C.ar    1  LIG1        0.1119
     36 O           5.8017    7.2563   -0.0003 O.2     1  LIG1       -0.4566
     37 H           7.6182    5.9007   -0.0001 H       1  LIG1        0.1043
     38 N           6.8495   10.6354   -0.0001 N.pl3   1  LIG1       -0.3540
     39 H           7.6978   10.8764   -0.4715 H       1  LIG1        0.1425
     40 H           6.0749   11.0570   -0.4715 H       1  LIG1        0.1425
     41 N          10.1721    8.8999   -0.0001 N.1     1  LIG1       -0.1907
     42 C           9.0522    8.6539   -0.0001 C.1     1  LIG1        0.1042
@<TRIPOS>BOND
     1    29    27    1
     2    40    38    1
     3    28    27    1
     4    39    38    1
     5    19    17    1
     6    18    17    1
     7     9     7    1
     8     8     7    1
     9    26    25   ar
    10    26    22   ar
    11    36    35   ar
    12    36    32   ar
    13    16    15   ar
    14    16    12   ar
    15     5     4   ar
    16     5     1   ar
    17    25    32    1
    18    25    24   ar
    19    35    37    1
    20    35    34   ar
    21    15    22    1
    22    15    14   ar
    23    32    33   ar
    24    23    22   ar
    25    23    24   ar
    26    23    27    1
    27    33    34   ar
    28    33    38    1
    29    20    21    3
    30    13    14   ar
    31    13    12   ar
    32    13    17    1
    33    24    31    1
    34    21    14    1
    35    31    30    3
    36    34    42    1
    37    12     4    1
    38     4     3   ar
    39    42    41    3
    40    11    10    3
    41    11     3    1
    42     6     1    1
    43     3     2   ar
    44     2     1   ar
    45     2     7    1
