@<TRIPOS>MOLECULE
mol_data/noopt/geoms/mol2/12hd13df(30)4fe(40)13fh(40).out
 46 49 0 0 0
SMALL
GASTEIGER

@<TRIPOS>ATOM
      1 C           0.1763    1.8460    0.0000 C.ar    1  LIG1        0.1145
      2 C           1.5558    1.8460    0.0000 C.ar    1  LIG1        0.0811
      3 C           1.9706    3.2334    0.0000 C.ar    1  LIG1        0.1195
      4 C           0.8165    3.9895   -0.0001 C.ar    1  LIG1        0.1714
      5 O          -0.3030    3.1567   -0.0002 O.2     1  LIG1       -0.4582
      6 H          -0.7504    0.9343    0.0000 H       1  LIG1        0.1049
      7 N           2.3515    0.8179    0.0001 N.pl3   1  LIG1       -0.3545
      8 H           1.9098    0.0546   -0.4713 H       1  LIG1        0.1424
      9 H           3.2012    1.0540   -0.4713 H       1  LIG1        0.1424
     10 N           4.2839    4.0300    0.0000 N.1     1  LIG1       -0.1907
     11 C           3.1998    3.6567    0.0000 C.1     1  LIG1        0.1049
     12 C           0.5416    5.2601   -0.0001 C.ar    1  LIG1        0.1051
     13 C           1.2482    6.3153    0.4848 C.ar    1  LIG1        0.1219
     14 C           0.4846    7.4981    0.2227 C.ar    1  LIG1        0.1603
     15 C          -0.6543    7.1137   -0.4124 C.ar    1  LIG1        0.0939
     16 N          -0.6236    5.7443   -0.5504 N.ar    1  LIG1       -0.3477
     17 H          -1.3304    5.1929   -0.9799 H       1  LIG1        0.1661
     18 N           3.4224    6.2062    1.6014 N.1     1  LIG1       -0.1907
     19 C           2.4035    6.2573    1.0781 C.1     1  LIG1        0.1051
     20 O           0.8161    8.7163    0.5329 O.3     1  LIG1       -0.5034
     21 H           0.0246    9.2541    0.6094 H       1  LIG1        0.2923
     22 C          -1.8722    9.1179   -0.3489 C.ar    1  LIG1        0.1268
     23 C          -2.9697    9.8404   -0.8558 C.ar    1  LIG1       -0.0091
     24 C          -1.6541    7.8188   -0.8516 C.ar    1  LIG1        0.0445
     25 C          -3.8137    9.2957   -1.8210 C.ar    1  LIG1        0.0208
     26 H          -3.1562   10.8445   -0.4815 H       1  LIG1        0.0661
     27 C          -2.4964    7.2746   -1.8152 C.ar    1  LIG1       -0.0330
     28 C          -3.5812    8.0083   -2.3065 C.ar    1  LIG1        0.0347
     29 H          -2.3074    6.2708   -2.1869 H       1  LIG1        0.0638
     30 O          -1.1201    9.6794    0.5506 O.3     1  LIG1       -0.5061
     31 H          -1.4761   10.5430    0.7723 H       1  LIG1        0.2922
     32 C          -4.3653    7.4943   -3.2071 C.1     1  LIG1       -0.0690
     33 C          -5.0898    7.0194   -4.0393 C.1     1  LIG1       -0.1139
     34 H          -5.7351    6.5964   -4.7805 H       1  LIG1        0.1232
     35 C          -4.8176    9.9909   -2.2669 C.ar    1  LIG1        0.0917
     36 C          -5.2106   11.2593   -1.9759 C.ar    1  LIG1        0.1629
     37 C          -6.3850   11.5311   -2.7490 C.ar    1  LIG1        0.0848
     38 C          -6.6570   10.4174   -3.4797 C.ar    1  LIG1        0.0267
     39 N          -5.7001    9.4718   -3.1872 N.ar    1  LIG1       -0.3561
     40 H          -5.6535    8.5595   -3.5788 H       1  LIG1        0.1655
     41 H          -7.6137   10.1768   -4.3263 H       1  LIG1        0.0827
     42 O          -4.6263   12.0723   -1.1467 O.3     1  LIG1       -0.5031
     43 H          -5.2171   12.8008   -0.9424 H       1  LIG1        0.2923
     44 N          -7.0676   12.6375   -2.7542 N.pl3   1  LIG1       -0.3540
     45 H          -6.5467   13.3482   -3.2269 H       1  LIG1        0.1425
     46 H          -7.9364   12.4909   -3.2270 H       1  LIG1        0.1425
@<TRIPOS>BOND
     1    34    33    1
     2    41    38    1
     3    33    32    3
     4    40    39    1
     5    38    39   ar
     6    38    37   ar
     7    46    44    1
     8    45    44    1
     9    32    28    1
    10    39    35   ar
    11    44    37    1
    12    37    36   ar
    13    28    25   ar
    14    28    27   ar
    15    35    36   ar
    16    35    25    1
    17    29    27    1
    18    36    42    1
    19    25    23   ar
    20    27    24   ar
    21    42    43    1
    22    17    16    1
    23    23    26    1
    24    23    22   ar
    25    24    15    1
    26    24    22   ar
    27    16    15   ar
    28    16    12   ar
    29     9     7    1
    30     8     7    1
    31    15    14   ar
    32    22    30    1
    33     5     4   ar
    34     5     1   ar
    35     4    12    1
    36     4     3   ar
    37    12    13   ar
    38     2     3   ar
    39     2     1   ar
    40     2     7    1
    41     3    11    1
    42     6     1    1
    43    10    11    3
    44    14    13   ar
    45    14    20    1
    46    13    19    1
    47    20    21    1
    48    30    31    1
    49    19    18    3
