@<TRIPOS>MOLECULE
mol_data/noopt/geoms/mol2/12hd12hd-12hd.out
 32 34 0 0 0
SMALL
GASTEIGER

@<TRIPOS>ATOM
      1 C           0.1763    1.8460    0.0000 C.ar    1  LIG1        0.1146
      2 C           1.5558    1.8460    0.0000 C.ar    1  LIG1        0.0812
      3 C           1.9706    3.2334    0.0000 C.ar    1  LIG1        0.1211
      4 C           0.8165    3.9895   -0.0001 C.ar    1  LIG1        0.1907
      5 O          -0.3030    3.1567   -0.0002 O.2     1  LIG1       -0.4565
      6 H          -0.7504    0.9343    0.0000 H       1  LIG1        0.1049
      7 N           2.3515    0.8179    0.0001 N.pl3   1  LIG1       -0.3545
      8 H           1.9098    0.0546   -0.4713 H       1  LIG1        0.1424
      9 H           3.2012    1.0540   -0.4713 H       1  LIG1        0.1424
     10 N           4.2839    4.0300    0.0000 N.1     1  LIG1       -0.1907
     11 C           3.1998    3.6567    0.0000 C.1     1  LIG1        0.1049
     12 C           0.5416    5.2601   -0.0001 C.ar    1  LIG1        0.1938
     13 C          -0.6119    6.0167   -0.0001 C.ar    1  LIG1        0.0925
     14 C          -0.1979    7.4043   -0.0001 C.ar    1  LIG1        0.1219
     15 C           1.1818    7.4036   -0.0002 C.ar    1  LIG1        0.1917
     16 O           1.6612    6.0932   -0.0003 O.2     1  LIG1       -0.4453
     17 N          -1.8411    5.5934   -0.0000 N.pl3   1  LIG1       -0.3539
     18 H          -2.4221    6.2568   -0.4714 H       1  LIG1        0.1425
     19 H          -1.8904    4.7129   -0.4715 H       1  LIG1        0.1425
     20 N          -1.6953    9.3391   -0.0001 N.1     1  LIG1       -0.1907
     21 C          -0.9936    8.4323   -0.0001 C.1     1  LIG1        0.1050
     22 C           2.1085    8.3153   -0.0002 C.ar    1  LIG1        0.1928
     23 C           3.4880    8.3153   -0.0001 C.ar    1  LIG1        0.0917
     24 C           3.9028    9.7027   -0.0001 C.ar    1  LIG1        0.1107
     25 C           2.7487   10.4588   -0.0002 C.ar    1  LIG1        0.1119
     26 O           1.6292    9.6260   -0.0003 O.2     1  LIG1       -0.4566
     27 H           2.4738   11.7294   -0.0002 H       1  LIG1        0.1043
     28 N           4.2837    7.2872   -0.0000 N.pl3   1  LIG1       -0.3540
     29 H           3.8420    6.5239   -0.4714 H       1  LIG1        0.1425
     30 H           5.1334    7.5233   -0.4715 H       1  LIG1        0.1425
     31 N           6.2161   10.4993   -0.0001 N.1     1  LIG1       -0.1907
     32 C           5.1320   10.1260   -0.0001 C.1     1  LIG1        0.1042
@<TRIPOS>BOND
     1    19    17    1
     2    30    28    1
     3    18    17    1
     4    29    28    1
     5     9     7    1
     6     8     7    1
     7    26    25   ar
     8    26    22   ar
     9    16    15   ar
    10    16    12   ar
    11    25    27    1
    12    25    24   ar
    13     5     4   ar
    14     5     1   ar
    15    15    22    1
    16    15    14   ar
    17    22    23   ar
    18    23    24   ar
    19    23    28    1
    20    20    21    3
    21    13    14   ar
    22    13    12   ar
    23    13    17    1
    24    21    14    1
    25    24    32    1
    26    12     4    1
    27     4     3   ar
    28    32    31    3
    29     1     6    1
    30     1     2   ar
    31    11    10    3
    32    11     3    1
    33     3     2   ar
    34     2     7    1
