@<TRIPOS>MOLECULE
mol_data/noopt/geoms/mol2/12he12ie13dl-6ld-.out
 52 55 0 0 0
SMALL
GASTEIGER

@<TRIPOS>ATOM
      1 C           0.1763    1.8460    0.0000 C.ar    1  LIG1        0.1145
      2 C           1.5558    1.8460    0.0000 C.ar    1  LIG1        0.0792
      3 C           1.9706    3.2334    0.0000 C.ar    1  LIG1        0.0940
      4 C           0.8165    3.9895   -0.0001 C.ar    1  LIG1        0.1871
      5 O          -0.3030    3.1567   -0.0002 O.2     1  LIG1       -0.4567
      6 H          -0.7504    0.9343    0.0000 H       1  LIG1        0.1049
      7 N           2.3515    0.8179    0.0001 N.pl3   1  LIG1       -0.3546
      8 H           1.9098    0.0546   -0.4713 H       1  LIG1        0.1424
      9 H           3.2012    1.0540   -0.4713 H       1  LIG1        0.1424
     10 C           3.1998    3.6567    0.0000 C.1     1  LIG1       -0.0639
     11 C           4.3355    4.0478    0.0000 C.1     1  LIG1       -0.1137
     12 H           5.3472    4.3962    0.0000 H       1  LIG1        0.1232
     13 C           0.5416    5.2601   -0.0001 C.ar    1  LIG1        0.1760
     14 C           1.2791    6.4258    0.0147 C.ar    1  LIG1        0.0145
     15 C           0.3286    7.5182    0.0040 C.ar    1  LIG1        0.0755
     16 C          -0.9273    6.9473   -0.0167 C.ar    1  LIG1        0.1688
     17 O          -0.8221    5.5559   -0.0197 O.2     1  LIG1       -0.4486
     18 C           2.5735    6.5484    0.0345 C.3     1  LIG1       -0.0348
     19 H           2.8385    7.4511    0.5443 H       1  LIG1        0.0279
     20 H           2.9439    6.5836   -0.9688 H       1  LIG1        0.0279
     21 H           3.0033    5.7116    0.5443 H       1  LIG1        0.0279
     22 C           0.6281    8.7832    0.0126 C.1     1  LIG1       -0.0655
     23 C           0.9048    9.9521    0.0205 C.1     1  LIG1       -0.1138
     24 H           1.1513   10.9932    0.0276 H       1  LIG1        0.1232
     25 C          -2.1479    7.3944   -0.0335 C.ar    1  LIG1        0.1050
     26 C          -2.6203    8.6690   -0.0286 C.ar    1  LIG1        0.1222
     27 C          -4.0502    8.5952   -0.0534 C.ar    1  LIG1        0.1634
     28 C          -4.3886    7.2788   -0.0740 C.ar    1  LIG1        0.0957
     29 N          -3.2270    6.5401   -0.0615 N.ar    1  LIG1       -0.3476
     30 H          -3.1755    5.5475   -0.0717 H       1  LIG1        0.1661
     31 N          -1.2704   10.7090    0.0171 N.1     1  LIG1       -0.1907
     32 C          -1.9030    9.7530   -0.0044 C.1     1  LIG1        0.1051
     33 O          -4.8757    9.5995   -0.0561 O.3     1  LIG1       -0.4917
     34 C          -4.1375   10.8242   -0.0572 C.3     1  LIG1        0.0789
     35 H          -4.8173   11.6505   -0.0597 H       1  LIG1        0.0660
     36 H          -3.5226   10.8708    0.8173 H       1  LIG1        0.0660
     37 H          -3.5201   10.8677   -0.9300 H       1  LIG1        0.0660
     38 C          -5.6622    5.3058   -0.1354 C.ar    1  LIG1        0.2240
     39 C          -5.5565    6.7083   -0.1001 C.ar    1  LIG1        0.0646
     40 C          -6.7294    7.4654   -0.0936 C.ar    1  LIG1       -0.0285
     41 C          -7.9574    6.8022   -0.1226 C.ar    1  LIG1        0.0707
     42 C          -7.9604    5.3957   -0.1571 C.ar    1  LIG1        0.0488
     43 N          -6.8384    4.6497   -0.1636 N.ar    1  LIG1       -0.2195
     44 H          -6.6864    8.5634   -0.0674 H       1  LIG1        0.0639
     45 H          -9.0784    4.7330   -0.1848 H       1  LIG1        0.0844
     46 O          -4.5987    4.5581   -0.1427 O.3     1  LIG1       -0.4792
     47 C          -4.9836    3.1809   -0.1455 C.3     1  LIG1        0.0804
     48 H          -4.1081    2.5658   -0.1516 H       1  LIG1        0.0660
     49 H          -5.5613    2.9702    0.7303 H       1  LIG1        0.0660
     50 H          -5.5695    2.9760   -1.0170 H       1  LIG1        0.0660
     51 N         -10.0657    8.0435   -0.1142 N.1     1  LIG1       -0.1908
     52 C          -9.0777    7.4618   -0.1181 C.1     1  LIG1        0.1007
@<TRIPOS>BOND
     1    50    47    1
     2    20    18    1
     3    37    34    1
     4     9     7    1
     5     8     7    1
     6    45    42    1
     7    43    42   ar
     8    43    38   ar
     9    42    41   ar
    10    48    47    1
    11    47    46    1
    12    47    49    1
    13    46    38    1
    14    38    39   ar
    15    41    52    1
    16    41    40   ar
    17    52    51    3
    18    39    40   ar
    19    39    28    1
    20    40    44    1
    21    28    29   ar
    22    28    27   ar
    23    30    29    1
    24    29    25   ar
    25    35    34    1
    26    34    33    1
    27    34    36    1
    28    33    27    1
    29    27    26   ar
    30    25    26   ar
    31    25    16    1
    32    26    32    1
    33    17    16   ar
    34    17    13   ar
    35    16    15   ar
    36    32    31    3
    37     5     4   ar
    38     5     1   ar
    39     4    13    1
    40     4     3   ar
    41    13    14   ar
    42     2     3   ar
    43     2     1   ar
    44     2     7    1
    45     3    10    1
    46     6     1    1
    47    10    11    3
    48    12    11    1
    49    15    22    1
    50    15    14   ar
    51    22    23    3
    52    14    18    1
    53    23    24    1
    54    18    21    1
    55    18    19    1
