@<TRIPOS>MOLECULE
mol_data/noopt/geoms/mol2/12he4id(330)4ee(70)12df(130).out
 50 53 0 0 0
SMALL
GASTEIGER

@<TRIPOS>ATOM
      1 C           0.1763    1.8460    0.0000 C.ar    1  LIG1        0.1144
      2 C           1.5558    1.8460    0.0000 C.ar    1  LIG1        0.0791
      3 C           1.9706    3.2334    0.0000 C.ar    1  LIG1        0.0910
      4 C           0.8165    3.9895   -0.0001 C.ar    1  LIG1        0.1522
      5 O          -0.3030    3.1567   -0.0002 O.2     1  LIG1       -0.4598
      6 H          -0.7504    0.9343    0.0000 H       1  LIG1        0.1049
      7 N           2.3515    0.8179    0.0001 N.pl3   1  LIG1       -0.3546
      8 H           1.9098    0.0546   -0.4713 H       1  LIG1        0.1424
      9 H           3.2012    1.0540   -0.4713 H       1  LIG1        0.1424
     10 C           3.1998    3.6567    0.0000 C.1     1  LIG1       -0.0640
     11 C           4.3355    4.0478    0.0000 C.1     1  LIG1       -0.1137
     12 H           5.3472    4.3962    0.0000 H       1  LIG1        0.1232
     13 C           1.4282    6.1706   -0.6106 C.ar    1  LIG1       -0.0391
     14 C           1.0859    7.5364   -0.5825 C.ar    1  LIG1       -0.0492
     15 C           0.5416    5.2600   -0.0001 C.ar    1  LIG1        0.0227
     16 C          -0.0869    7.9782    0.0255 C.ar    1  LIG1        0.0010
     17 H           1.7560    8.2560   -1.0475 H       1  LIG1        0.0627
     18 C          -0.6294    5.7006    0.6070 C.ar    1  LIG1       -0.0328
     19 C          -0.9521    7.0616    0.6242 C.ar    1  LIG1        0.0602
     20 H          -1.2968    4.9789    1.0711 H       1  LIG1        0.0638
     21 C           2.5362    5.8190   -1.1933 C.3     1  LIG1       -0.0390
     22 H           3.3198    6.4869   -0.9022 H       1  LIG1        0.0278
     23 H           2.4093    5.8593   -2.2550 H       1  LIG1        0.0278
     24 H           2.7912    4.8214   -0.9022 H       1  LIG1        0.0278
     25 N          -3.0147    7.8257    1.6954 N.1     1  LIG1       -0.1908
     26 C          -2.0481    7.4676    1.1934 C.1     1  LIG1        0.0998
     27 C          -0.1171   10.0170    1.1859 C.ar    1  LIG1        0.0332
     28 C          -0.4449   11.3860    1.1441 C.ar    1  LIG1       -0.0339
     29 C          -0.3719    9.2465    0.0329 C.ar    1  LIG1       -0.0001
     30 C          -1.0012   11.9645    0.0055 C.ar    1  LIG1        0.0352
     31 H          -0.2568   11.9988    2.0228 H       1  LIG1        0.0637
     32 C          -0.9273    9.8236   -1.1040 C.ar    1  LIG1       -0.0367
     33 C          -1.2456   11.1855   -1.1261 C.ar    1  LIG1        0.0360
     34 H          -1.1143    9.2084   -1.9804 H       1  LIG1        0.0636
     35 C           0.3998    9.5345    2.2768 C.1     1  LIG1       -0.0690
     36 C           0.8775    9.0887    3.2847 C.1     1  LIG1       -0.1139
     37 H           1.3030    8.6915    4.1826 H       1  LIG1        0.1232
     38 C          -1.7648   11.7194   -2.1917 C.1     1  LIG1       -0.0689
     39 C          -2.2444   12.2127   -3.1763 C.1     1  LIG1       -0.1139
     40 H          -2.6717   12.6521   -4.0534 H       1  LIG1        0.1232
     41 C          -1.2916   13.2317    0.0015 C.ar    1  LIG1        0.1570
     42 C          -2.1640   14.0428    0.6972 C.ar    1  LIG1        0.1387
     43 C          -1.9763   15.3858    0.1891 C.ar    1  LIG1        0.1728
     44 C          -1.0011   15.3062   -0.7836 C.ar    1  LIG1        0.1352
     45 O          -0.5631   13.9882   -0.9176 O.2     1  LIG1       -0.4578
     46 H          -0.4151   16.1511   -1.5791 H       1  LIG1        0.1068
     47 N          -3.7387   13.3906    2.4523 N.1     1  LIG1       -0.1906
     48 C          -3.0007   13.6963    1.6298 C.1     1  LIG1        0.1067
     49 O          -2.6163   16.4439    0.5902 O.3     1  LIG1       -0.5028
     50 H          -3.5484   16.2363    0.6890 H       1  LIG1        0.2923
@<TRIPOS>BOND
     1    40    39    1
     2    39    38    3
     3    23    21    1
     4    38    33    1
     5    34    32    1
     6    46    44    1
     7    21    24    1
     8    21    22    1
     9    21    13    1
    10    33    32   ar
    11    33    30   ar
    12    32    29   ar
    13    17    14    1
    14    45    44   ar
    15    45    41   ar
    16    44    43   ar
    17    13    14   ar
    18    13    15   ar
    19    14    16   ar
    20     9     7    1
    21     8     7    1
    22     5     4   ar
    23     5     1   ar
    24    15     4    1
    25    15    18   ar
    26     4     3   ar
    27     1     6    1
    28     1     2   ar
    29    12    11    1
    30    11    10    3
    31    10     3    1
    32     3     2   ar
    33     2     7    1
    34    41    30    1
    35    41    42   ar
    36    30    28   ar
    37    16    29    1
    38    16    19   ar
    39    29    27   ar
    40    43    49    1
    41    43    42   ar
    42    49    50    1
    43    18    19   ar
    44    18    20    1
    45    19    26    1
    46    42    48    1
    47    28    27   ar
    48    28    31    1
    49    27    35    1
    50    26    25    3
    51    48    47    3
    52    35    36    3
    53    36    37    1
