@<TRIPOS>MOLECULE
mol_data/noopt/geoms/mol2/12he4hd-13dd-12ld.out
 48 50 0 0 0
SMALL
GASTEIGER

@<TRIPOS>ATOM
      1 C           0.1763    1.8460    0.0000 C.ar    1  LIG1        0.1144
      2 C           1.5558    1.8460    0.0000 C.ar    1  LIG1        0.0791
      3 C           1.9706    3.2334    0.0000 C.ar    1  LIG1        0.0910
      4 C           0.8165    3.9895   -0.0001 C.ar    1  LIG1        0.1537
      5 O          -0.3030    3.1567   -0.0002 O.2     1  LIG1       -0.4597
      6 H          -0.7504    0.9343    0.0000 H       1  LIG1        0.1049
      7 N           2.3515    0.8179    0.0001 N.pl3   1  LIG1       -0.3546
      8 H           1.9098    0.0546   -0.4713 H       1  LIG1        0.1424
      9 H           3.2012    1.0540   -0.4713 H       1  LIG1        0.1424
     10 C           3.1998    3.6567    0.0000 C.1     1  LIG1       -0.0640
     11 C           4.3355    4.0478    0.0000 C.1     1  LIG1       -0.1137
     12 H           5.3472    4.3962    0.0000 H       1  LIG1        0.1232
     13 C           1.5877    6.2051    0.0220 C.ar    1  LIG1        0.0361
     14 C           1.2377    7.5692    0.0226 C.ar    1  LIG1       -0.0300
     15 C           0.5416    5.2600   -0.0001 C.ar    1  LIG1        0.0404
     16 C          -0.0943    7.9766    0.0015 C.ar    1  LIG1        0.0187
     17 H           2.0291    8.3151    0.0396 H       1  LIG1        0.0643
     18 C          -0.7883    5.6663   -0.0212 C.ar    1  LIG1       -0.0312
     19 C          -1.1157    7.0262   -0.0206 C.ar    1  LIG1        0.0617
     20 H          -1.5769    4.9183   -0.0379 H       1  LIG1        0.0638
     21 N           2.8479    5.8865    0.0420 N.pl3   1  LIG1       -0.3574
     22 H           2.9779    5.0115   -0.4242 H       1  LIG1        0.1423
     23 H           3.3781    6.5946   -0.4243 H       1  LIG1        0.1423
     24 N          -3.4587    7.7296   -0.0575 N.1     1  LIG1       -0.1908
     25 C          -2.3607    7.3999   -0.0402 C.1     1  LIG1        0.0998
     26 C          -0.3816    9.2445    0.0026 C.ar    1  LIG1        0.0662
     27 C           0.4325   10.3332    0.0029 C.ar    1  LIG1        0.0828
     28 C          -0.4059   11.4941    0.0053 C.ar    1  LIG1        0.0246
     29 C          -1.6955   11.0638    0.0046 C.ar    1  LIG1        0.0929
     30 N          -1.6851    9.6871    0.0033 N.ar    1  LIG1       -0.3503
     31 H          -2.4909    9.1052    0.0025 H       1  LIG1        0.1660
     32 N           2.8789   10.3067    0.0026 N.1     1  LIG1       -0.1908
     33 C           1.7324   10.3191    0.0028 C.1     1  LIG1        0.1016
     34 N           0.3379   13.8249    0.0092 N.3     1  LIG1       -0.2406
     35 C          -0.0107   12.7326    0.0074 C.3     1  LIG1        0.1126
     36 C          -2.8087   11.7350    0.0059 C.ar    1  LIG1        0.1989
     37 C          -3.1514   13.0713    0.0068 C.ar    1  LIG1        0.2431
     38 C          -4.5983   13.1285    0.0081 C.ar    1  LIG1        0.1367
     39 C          -5.0441   11.8228    0.0077 C.ar    1  LIG1        0.1139
     40 O          -3.9593   10.9452    0.0062 O.2     1  LIG1       -0.4561
     41 H          -6.2066   11.2409    0.0084 H       1  LIG1        0.1044
     42 O          -2.3531   14.0974    0.0068 O.3     1  LIG1       -0.2824
     43 C          -0.9961   13.6464    0.0067 C.3     2  LIG2       -0.0531
     44 H          -0.3394   14.4912    0.0065 H       1  LIG1        0.1417
     45 H          -0.8166   13.0553    0.8805 H       1  LIG1        0.0265
     46 H          -0.8168   13.0551   -0.8668 H       1  LIG1        0.0265
     47 N          -5.9445   15.1714    0.0103 N.1     1  LIG1       -0.1906
     48 C          -5.3136   14.2140    0.0093 C.1     1  LIG1        0.1062
@<TRIPOS>BOND
     1    46    43    1
     2     9     7    1
     3     8     7    1
     4    23    21    1
     5    22    21    1
     6    24    25    3
     7    25    19    1
     8    20    18    1
     9    18    19   ar
    10    18    15   ar
    11    19    16   ar
    12     5     4   ar
    13     5     1   ar
    14     4    15    1
    15     4     3   ar
    16    15    13   ar
    17     1     2   ar
    18     1     6    1
    19     2     3   ar
    20     2     7    1
    21     3    10    1
    22    12    11    1
    23    11    10    3
    24    16    26    1
    25    16    14   ar
    26    31    30    1
    27    26    27   ar
    28    26    30   ar
    29    32    33    3
    30    33    27    1
    31    27    28   ar
    32    30    29   ar
    33    29    28   ar
    34    29    36    1
    35    28    35    1
    36    36    40   ar
    37    36    37   ar
    38    40    39   ar
    39    44    34    1
    40    43    45    1
    41    42    37    1
    42    37    38   ar
    43    35    34    1
    44    39    38   ar
    45    39    41    1
    46    38    48    1
    47    48    47    3
    48    13    14   ar
    49    13    21    1
    50    14    17    1
