@<TRIPOS>MOLECULE
mol_data/noopt/geoms/mol2/12he4ah(60)6ah(150)4hf(300).out
 49 52 0 0 0
SMALL
GASTEIGER

@<TRIPOS>ATOM
      1 C           0.1763    1.8460    0.0000 C.ar    1  LIG1        0.1144
      2 C           1.5558    1.8460    0.0000 C.ar    1  LIG1        0.0791
      3 C           1.9706    3.2334    0.0000 C.ar    1  LIG1        0.0910
      4 C           0.8165    3.9895   -0.0001 C.ar    1  LIG1        0.1520
      5 O          -0.3030    3.1567   -0.0002 O.2     1  LIG1       -0.4598
      6 H          -0.7504    0.9343    0.0000 H       1  LIG1        0.1049
      7 N           2.3515    0.8179    0.0001 N.pl3   1  LIG1       -0.3546
      8 H           1.9098    0.0546   -0.4713 H       1  LIG1        0.1424
      9 H           3.2012    1.0540   -0.4713 H       1  LIG1        0.1424
     10 C           3.1998    3.6567    0.0000 C.1     1  LIG1       -0.0640
     11 C           4.3355    4.0478    0.0000 C.1     1  LIG1       -0.1137
     12 H           5.3472    4.3962    0.0000 H       1  LIG1        0.1232
     13 C           0.9899    6.0757    1.0589 C.ar    1  LIG1       -0.0504
     14 C           0.6648    7.4452    1.0132 C.ar    1  LIG1       -0.0516
     15 C           0.5416    5.2600   -0.0001 C.ar    1  LIG1        0.0203
     16 C          -0.0733    7.9812   -0.0397 C.ar    1  LIG1        0.0043
     17 H           1.0006    8.0926    1.8203 H       1  LIG1        0.0624
     18 C          -0.1953    5.7946   -1.0515 C.ar    1  LIG1       -0.0297
     19 C          -0.5078    7.1577   -1.0790 C.ar    1  LIG1        0.0331
     20 H          -0.5296    5.1449   -1.8563 H       1  LIG1        0.0643
     21 H           1.6814    5.6342    2.0672 H       1  LIG1        0.0625
     22 N          -1.1971    7.6517   -2.0644 N.pl3   1  LIG1       -0.3575
     23 H          -0.6078    8.2339   -2.6245 H       1  LIG1        0.1423
     24 H          -1.5590    6.9066   -2.6245 H       1  LIG1        0.1423
     25 C           0.5176   10.1678   -0.6622 C.ar    1  LIG1        0.0361
     26 C          -0.3555    9.2501   -0.0499 C.ar    1  LIG1        0.0038
     27 C          -1.5238    9.7342    0.5414 C.ar    1  LIG1       -0.0297
     28 C          -1.7784   11.1061    0.5019 C.ar    1  LIG1        0.0515
     29 C          -0.8443   11.9444   -0.1339 C.ar    1  LIG1        0.0934
     30 N           0.2877   11.4944   -0.7096 N.ar    1  LIG1       -0.2525
     31 H          -2.2295    9.0475    1.0301 H       1  LIG1        0.0643
     32 H           1.6176    9.7654   -1.2262 H       1  LIG1        0.0836
     33 N          -2.8520   11.6061    1.0381 N.pl3   1  LIG1       -0.3563
     34 H          -2.9587   12.5566    0.7462 H       1  LIG1        0.1424
     35 H          -3.6482   11.0764    0.7462 H       1  LIG1        0.1424
     36 C          -0.5284   13.9626   -1.2875 C.ar    1  LIG1        0.0341
     37 C          -0.7626   15.3512   -1.3083 C.ar    1  LIG1       -0.0370
     38 C          -1.0370   13.2284   -0.1966 C.ar    1  LIG1        0.0262
     39 C          -1.4720   15.9828   -0.2893 C.ar    1  LIG1       -0.0184
     40 H          -0.3788   15.9367   -2.1407 H       1  LIG1        0.0637
     41 C          -1.7453   13.8585    0.8209 C.ar    1  LIG1       -0.0092
     42 C          -1.9679   15.2389    0.7821 C.ar    1  LIG1        0.1176
     43 H          -2.1273   13.2705    1.6516 H       1  LIG1        0.0661
     44 H          -1.6699   17.2666   -0.3405 H       1  LIG1        0.0655
     45 N           0.1400   13.4301   -2.2672 N.pl3   1  LIG1       -0.3575
     46 H          -0.4752   12.8763   -2.8282 H       1  LIG1        0.1423
     47 H           0.5423   14.1535   -2.8283 H       1  LIG1        0.1423
     48 O          -2.6306   15.8225    1.7363 O.3     1  LIG1       -0.5067
     49 H          -3.3920   15.2871    1.9714 H       1  LIG1        0.2921
@<TRIPOS>BOND
     1    47    45    1
     2    46    45    1
     3    24    22    1
     4    23    22    1
     5    45    36    1
     6    40    37    1
     7    22    19    1
     8    20    18    1
     9    37    36   ar
    10    37    39   ar
    11    36    38   ar
    12    32    25    1
    13    19    18   ar
    14    19    16   ar
    15    18    15   ar
    16    30    25   ar
    17    30    29   ar
    18    25    26   ar
    19     9     7    1
    20     8     7    1
    21    44    39    1
    22    39    42   ar
    23    38    29    1
    24    38    41   ar
    25    29    28   ar
    26    26    16    1
    27    26    27   ar
    28    16    14   ar
    29     5     4   ar
    30     5     1   ar
    31    15     4    1
    32    15    13   ar
    33     4     3   ar
    34     1     2   ar
    35     1     6    1
    36     2     3   ar
    37     2     7    1
    38     3    10    1
    39    10    11    3
    40    11    12    1
    41    28    27   ar
    42    28    33    1
    43    27    31    1
    44    35    33    1
    45    34    33    1
    46    42    41   ar
    47    42    48    1
    48    41    43    1
    49    14    13   ar
    50    14    17    1
    51    13    21    1
    52    48    49    1
