@<TRIPOS>MOLECULE
mol_data/noopt/geoms/mol2/12he6el13ei-13if4ie13ff12hd-12la-.out
 99 105 0 0 0
SMALL
GASTEIGER

@<TRIPOS>ATOM
      1 C           0.1763    1.8460    0.0000 C.ar    1  LIG1        0.1144
      2 C           1.5558    1.8460    0.0000 C.ar    1  LIG1        0.0791
      3 C           1.9706    3.2334    0.0000 C.ar    1  LIG1        0.0910
      4 C           0.8165    3.9895   -0.0001 C.ar    1  LIG1        0.1547
      5 O          -0.3030    3.1567   -0.0002 O.2     1  LIG1       -0.4597
      6 H          -0.7504    0.9343    0.0000 H       1  LIG1        0.1049
      7 N           2.3515    0.8179    0.0001 N.pl3   1  LIG1       -0.3546
      8 H           1.9098    0.0546   -0.4713 H       1  LIG1        0.1424
      9 H           3.2012    1.0540   -0.4713 H       1  LIG1        0.1424
     10 C           3.1998    3.6567    0.0000 C.1     1  LIG1       -0.0640
     11 C           4.3355    4.0478    0.0000 C.1     1  LIG1       -0.1137
     12 H           5.3472    4.3962    0.0000 H       1  LIG1        0.1232
     13 C          -0.7953    5.6985    0.0001 C.ar    1  LIG1        0.1248
     14 C           0.5416    5.2601   -0.0001 C.ar    1  LIG1        0.0558
     15 C           1.5573    6.2179    0.0001 C.ar    1  LIG1       -0.0044
     16 C           1.2067    7.5691    0.0002 C.ar    1  LIG1        0.1482
     17 C          -0.1587    7.9086    0.0001 C.ar    1  LIG1        0.1312
     18 N          -1.1514    6.9977    0.0002 N.ar    1  LIG1       -0.2325
     19 H           2.6135    5.9134   -0.0011 H       1  LIG1        0.0663
     20 C          -1.7757    4.8447    0.0000 C.1     1  LIG1       -0.0491
     21 C          -2.6815    4.0559   -0.0000 C.1     1  LIG1       -0.1124
     22 H          -3.4885    3.3532   -0.0001 H       1  LIG1        0.1232
     23 O           2.1151    8.4991    0.0002 O.3     1  LIG1       -0.4929
     24 C           3.4129    7.8986    0.0001 C.3     1  LIG1        0.0789
     25 H           4.1603    8.6644   -0.0001 H       1  LIG1        0.0660
     26 H           3.5250    7.2912    0.8738 H       1  LIG1        0.0660
     27 H           3.5248    7.2909   -0.8735 H       1  LIG1        0.0660
     28 C          -0.5350    9.1530    0.0003 C.ar    1  LIG1        0.0849
     29 C           0.1998   10.2966    0.0001 C.ar    1  LIG1        0.0551
     30 C          -0.7188   11.3952    0.0016 C.ar    1  LIG1       -0.0077
     31 C          -1.9745   10.8745    0.0009 C.ar    1  LIG1        0.0678
     32 N          -1.8666    9.5021    0.0006 N.ar    1  LIG1       -0.3505
     33 H          -2.6292    8.8645    0.0000 H       1  LIG1        0.1660
     34 C           1.4975   10.3747    0.0001 C.1     1  LIG1       -0.0672
     35 C           2.6965   10.4468    0.0002 C.1     1  LIG1       -0.1138
     36 H           3.7646   10.5110    0.0002 H       1  LIG1        0.1232
     37 C          -0.4122   12.6588    0.0029 C.3     1  LIG1       -0.0365
     38 H          -1.1772   13.2110    0.5077 H       1  LIG1        0.0279
     39 H          -0.3279   13.0065   -1.0056 H       1  LIG1        0.0279
     40 H           0.5209   12.7989    0.5076 H       1  LIG1        0.0279
     41 C          -3.1326   11.4652    0.0016 C.ar    1  LIG1        0.0672
     42 C          -3.4482   12.7874    0.0017 C.ar    1  LIG1       -0.0154
     43 C          -4.8768   12.8861    0.0037 C.ar    1  LIG1        0.0132
     44 C          -5.3714   11.6198    0.0030 C.ar    1  LIG1        0.0554
     45 N          -4.3069   10.7468    0.0022 N.ar    1  LIG1       -0.3523
     46 H          -4.3754    9.7551    0.0014 H       1  LIG1        0.1660
     47 C          -2.6053   13.7775    0.0017 C.3     1  LIG1       -0.0371
     48 H          -3.0393   14.6155    0.5061 H       1  LIG1        0.0278
     49 H          -2.3742   14.0491   -1.0072 H       1  LIG1        0.0278
     50 H          -1.7089   13.4827    0.5060 H       1  LIG1        0.0278
     51 O          -5.5756   13.9824    0.0054 O.3     2  HOH2       -0.2528
     52 H          -6.5109   13.7662    0.0059 H       0  HOH0        0.2528
     53 C          -7.6638   12.1187    0.0053 C.ar    1  LIG1       -0.0406
     54 C          -8.9758   11.6070    0.0080 C.ar    1  LIG1       -0.0478
     55 C          -6.5996   11.1939    0.0040 C.ar    1  LIG1        0.0030
     56 C          -9.2198   10.2355    0.0086 C.ar    1  LIG1        0.0177
     57 H          -9.8117   12.3030    0.0092 H       1  LIG1        0.0627
     58 C          -6.8426    9.8246    0.0047 C.ar    1  LIG1       -0.0363
     59 C          -8.1532    9.3357    0.0069 C.ar    1  LIG1        0.0345
     60 H          -6.0051    9.1316    0.0037 H       1  LIG1        0.0637
     61 C          -7.4993   13.4086    0.0046 C.3     1  LIG1       -0.0391
     62 H          -8.3208   13.8732    0.5088 H       1  LIG1        0.0278
     63 H          -7.4544   13.7618   -1.0045 H       1  LIG1        0.0278
     64 H          -6.5875   13.6522    0.5087 H       1  LIG1        0.0278
     65 C          -8.3743    8.0547    0.0077 C.1     1  LIG1       -0.0690
     66 C          -8.5786    6.8710    0.0084 C.1     1  LIG1       -0.1139
     67 H          -8.7605    5.8166    0.0090 H       1  LIG1        0.1232
     68 C         -10.4439    9.7977    0.0109 C.ar    1  LIG1        0.0940
     69 C         -11.6226   10.4746    0.0288 C.ar    1  LIG1        0.1849
     70 C         -12.6741    9.5025    0.0234 C.ar    1  LIG1        0.1879
     71 C         -12.0917    8.2743    0.0008 C.ar    1  LIG1        0.1302
     72 N         -10.7264    8.4504   -0.0064 N.ar    1  LIG1       -0.3458
     73 H         -10.0517    7.7207   -0.0224 H       1  LIG1        0.1662
     74 O         -11.7651   11.7666    0.0486 O.3     1  LIG1       -0.5019
     75 H         -12.6997   11.9859    0.0535 H       1  LIG1        0.2924
     76 O         -13.9512    9.7457    0.0371 O.3     1  LIG1       -0.5018
     77 H         -14.4352    8.9166    0.0405 H       1  LIG1        0.2924
     78 C         -12.6241    7.0884   -0.0121 C.ar    1  LIG1        0.1774
     79 C         -13.9094    6.5874   -0.0071 C.ar    1  LIG1        0.0909
     80 C         -13.7921    5.1442   -0.0303 C.ar    1  LIG1        0.1219
     81 C         -12.4422    4.8591   -0.0481 C.ar    1  LIG1        0.1934
     82 O         -11.7016    6.0415   -0.0375 O.2     1  LIG1       -0.4468
     83 N         -15.0240    7.2561    0.0143 N.pl3   1  LIG1       -0.3540
     84 H         -14.8964    8.1317   -0.4516 H       1  LIG1        0.1425
     85 H         -15.7365    6.7314   -0.4516 H       1  LIG1        0.1425
     86 N         -15.6581    3.5619   -0.0361 N.1     1  LIG1       -0.1907
     87 C         -14.7836    4.3034   -0.0334 C.1     1  LIG1        0.1050
     88 C         -11.7248    3.7753   -0.0718 C.ar    1  LIG1        0.2123
     89 C         -11.9887    2.4214   -0.0898 C.ar    1  LIG1        0.1687
     90 C         -10.7064    1.7490   -0.1129 C.ar    1  LIG1        0.0187
     91 C          -9.7435    2.7371   -0.1076 C.ar    1  LIG1        0.0964
     92 O         -10.3466    3.9951   -0.0826 O.2     1  LIG1       -0.4560
     93 H          -8.4438    2.7640   -0.1203 H       1  LIG1        0.1031
     94 O         -13.1500    1.8370   -0.0868 O.3     1  LIG1       -0.4912
     95 C         -14.1823    2.8266   -0.0859 C.3     1  LIG1        0.0790
     96 H         -15.1379    2.3452   -0.0836 H       1  LIG1        0.0660
     97 H         -14.0891    3.4384    0.7871 H       1  LIG1        0.0660
     98 H         -14.0923    3.4367   -0.9602 H       1  LIG1        0.0660
     99 H         -10.5262    0.4617   -0.1343 H       1  LIG1        0.0686
@<TRIPOS>BOND
     1    49    47    1
     2    39    37    1
     3    63    61    1
     4    98    95    1
     5    27    24    1
     6     9     7    1
     7     8     7    1
     8    85    83    1
     9    84    83    1
    10    99    90    1
    11    93    91    1
    12    90    91   ar
    13    90    89   ar
    14    91    92   ar
    15    89    94    1
    16    89    88   ar
    17    94    95    1
    18    95    96    1
    19    95    97    1
    20    92    88   ar
    21    88    81    1
    22    81    82   ar
    23    81    80   ar
    24    82    78   ar
    25    86    87    3
    26    87    80    1
    27    80    79   ar
    28    73    72    1
    29    78    79   ar
    30    78    71    1
    31    79    83    1
    32    72    71   ar
    33    72    68   ar
    34    19    15    1
    35     5     4   ar
    36     5     1   ar
    37    25    24    1
    38    14     4    1
    39    14    13   ar
    40    14    15   ar
    41     4     3   ar
    42    22    21    1
    43    21    20    3
    44     1     2   ar
    45     1     6    1
    46     2     3   ar
    47     2     7    1
    48     3    10    1
    49    12    11    1
    50    11    10    3
    51    33    32    1
    52    20    13    1
    53    13    18   ar
    54    15    16   ar
    55    24    23    1
    56    24    26    1
    57    29    34    1
    58    29    28   ar
    59    29    30   ar
    60    17    18   ar
    61    17    16   ar
    62    17    28    1
    63    34    35    3
    64    23    16    1
    65    35    36    1
    66    28    32   ar
    67    32    31   ar
    68    71    70   ar
    69    31    30   ar
    70    31    41    1
    71    46    45    1
    72    30    37    1
    73    41    42   ar
    74    41    45   ar
    75    47    42    1
    76    47    50    1
    77    47    48    1
    78    42    43   ar
    79    45    44   ar
    80    37    40    1
    81    37    38    1
    82    44    43   ar
    83    44    55    1
    84    60    58    1
    85    55    58   ar
    86    55    53   ar
    87    61    53    1
    88    61    64    1
    89    61    62    1
    90    58    59   ar
    91    53    54   ar
    92    51    52    1
    93    59    65    1
    94    59    56   ar
    95    65    66    3
    96    54    56   ar
    97    54    57    1
    98    66    67    1
    99    56    68    1
   100    68    69   ar
   101    70    69   ar
   102    70    76    1
   103    69    74    1
   104    76    77    1
   105    74    75    1
