@<TRIPOS>MOLECULE
mol_data/noopt/geoms/mol2/12hf4hh-6dd13hh.out
 49 53 0 0 0
SMALL
GASTEIGER

@<TRIPOS>ATOM
      1 C           0.1763    1.8460    0.0000 C.ar    1  LIG1        0.1169
      2 C           1.5558    1.8460    0.0000 C.ar    1  LIG1        0.1056
      3 C           1.9706    3.2334    0.0000 C.ar    1  LIG1        0.1838
      4 C           0.8165    3.9895   -0.0001 C.ar    1  LIG1        0.1797
      5 O          -0.3030    3.1567   -0.0002 O.2     1  LIG1       -0.4572
      6 H          -0.7504    0.9343    0.0000 H       1  LIG1        0.1050
      7 N           2.3515    0.8179    0.0001 N.pl3   1  LIG1       -0.3527
      8 H           1.9098    0.0546   -0.4713 H       1  LIG1        0.1425
      9 H           3.2012    1.0540   -0.4713 H       1  LIG1        0.1425
     10 O           3.1998    3.6567    0.0000 O.3     1  LIG1       -0.5020
     11 H           3.2081    4.6167    0.0000 H       1  LIG1        0.2924
     12 C           1.5877    6.2051    0.0220 C.ar    1  LIG1        0.0361
     13 C           1.2377    7.5692    0.0226 C.ar    1  LIG1       -0.0308
     14 C           0.5416    5.2600   -0.0001 C.ar    1  LIG1        0.0434
     15 C          -0.0943    7.9766    0.0015 C.ar    1  LIG1        0.0078
     16 H           2.0291    8.3151    0.0396 H       1  LIG1        0.0643
     17 C          -0.7883    5.6663   -0.0212 C.ar    1  LIG1       -0.0264
     18 C          -1.1157    7.0262   -0.0206 C.ar    1  LIG1        0.0513
     19 H          -1.5769    4.9183   -0.0379 H       1  LIG1        0.0644
     20 N           2.8479    5.8865    0.0420 N.pl3   1  LIG1       -0.3574
     21 H           2.9779    5.0115   -0.4242 H       1  LIG1        0.1423
     22 H           3.3781    6.5946   -0.4243 H       1  LIG1        0.1423
     23 N          -2.3607    7.4000   -0.0402 N.pl3   1  LIG1       -0.2620
     24 H          -2.4383    8.2758   -0.5166 H       1  LIG1        0.0581
     25 H          -2.9079    6.7118   -0.5166 H       1  LIG1        0.1679
     26 C          -1.7226    9.6698    0.0033 C.ar    1  LIG1        0.0721
     27 C          -0.3816    9.2445    0.0026 C.ar    1  LIG1        0.0083
     28 C           0.6248   10.2121    0.0033 C.ar    1  LIG1       -0.0327
     29 C           0.2611   11.5599    0.0046 C.ar    1  LIG1        0.0798
     30 C          -1.1075   11.8861    0.0051 C.ar    1  LIG1        0.1066
     31 N          -2.0913   10.9656    0.0045 N.ar    1  LIG1       -0.2464
     32 H           1.6839    9.9179    0.0018 H       1  LIG1        0.0638
     33 N          -3.5520    8.0453    0.0023 N.3     1  LIG1       -0.1333
     34 C          -2.6947    8.8066    0.0028 C.3     1  LIG1        0.1119
     35 N           1.9536   13.3266    0.0057 N.1     1  LIG1       -0.1908
     36 C           1.1604   12.4986    0.0052 C.1     1  LIG1        0.1014
     37 C          -1.4959   13.1267    0.0063 C.ar    1  LIG1        0.0890
     38 C          -0.7724   14.2774    0.0235 C.ar    1  LIG1        0.0727
     39 C          -1.7015   15.3670    0.0170 C.ar    1  LIG1        0.0637
     40 C          -2.9520   14.8343   -0.0055 C.ar    1  LIG1        0.0249
     41 N          -2.8307   13.4629   -0.0116 N.ar    1  LIG1       -0.3563
     42 H          -3.5869   12.8180   -0.0272 H       1  LIG1        0.1655
     43 H          -4.1157   15.4137   -0.0191 H       1  LIG1        0.0826
     44 N           0.5244   14.3680    0.0436 N.pl3   1  LIG1       -0.3549
     45 H           0.9210   13.5772   -0.4226 H       1  LIG1        0.1424
     46 H           0.8072   15.2062   -0.4227 H       1  LIG1        0.1424
     47 N          -1.4074   16.6333    0.0299 N.pl3   1  LIG1       -0.3554
     48 H          -0.5356   16.7777   -0.4382 H       1  LIG1        0.1424
     49 H          -2.1262   17.1472   -0.4383 H       1  LIG1        0.1424
@<TRIPOS>BOND
     1    25    23    1
     2    24    34    1
     3     9     7    1
     4     8     7    1
     5    49    47    1
     6    48    47    1
     7    22    20    1
     8    21    20    1
     9    46    44    1
    10    45    44    1
    11    23    18    1
    12    23    33    1
    13    19    17    1
    14    42    41    1
    15    17    18   ar
    16    17    14   ar
    17    18    15   ar
    18    43    40    1
    19    41    40   ar
    20    41    37   ar
    21    40    39   ar
    22     5     4   ar
    23     5     1   ar
    24    14     4    1
    25    14    12   ar
    26     4     3   ar
    27     2     1   ar
    28     2     3   ar
    29     2     7    1
    30     6     1    1
    31     3    10    1
    32    10    11    1
    33    15    27    1
    34    15    13   ar
    35    32    28    1
    36    33    34    1
    37    27    26   ar
    38    27    28   ar
    39    34    26    1
    40    26    31   ar
    41    28    29   ar
    42    31    30   ar
    43    29    30   ar
    44    29    36    1
    45    30    37    1
    46    36    35    3
    47    37    38   ar
    48    39    38   ar
    49    39    47    1
    50    12    13   ar
    51    12    20    1
    52    13    16    1
    53    38    44    1
