@<TRIPOS>MOLECULE
mol_data/noopt/geoms/mol2/12hf6if(190)4df(90)4dd(170).out
 49 52 0 0 0
SMALL
GASTEIGER

@<TRIPOS>ATOM
      1 C           0.1763    1.8460    0.0000 C.ar    1  LIG1        0.1169
      2 C           1.5558    1.8460    0.0000 C.ar    1  LIG1        0.1056
      3 C           1.9706    3.2334    0.0000 C.ar    1  LIG1        0.1838
      4 C           0.8165    3.9895   -0.0001 C.ar    1  LIG1        0.1797
      5 O          -0.3030    3.1567   -0.0002 O.2     1  LIG1       -0.4572
      6 H          -0.7504    0.9343    0.0000 H       1  LIG1        0.1050
      7 N           2.3515    0.8179    0.0001 N.pl3   1  LIG1       -0.3527
      8 H           1.9098    0.0546   -0.4713 H       1  LIG1        0.1425
      9 H           3.2012    1.0540   -0.4713 H       1  LIG1        0.1425
     10 O           3.1998    3.6567    0.0000 O.3     1  LIG1       -0.5020
     11 H           3.2081    4.6167    0.0000 H       1  LIG1        0.2924
     12 C           1.5597    6.2080    0.2103 C.ar    1  LIG1        0.0499
     13 C           0.5416    5.2601   -0.0001 C.ar    1  LIG1        0.0454
     14 C          -0.7614    5.7162   -0.2076 C.ar    1  LIG1       -0.0055
     15 C          -1.0016    7.0913   -0.1979 C.ar    1  LIG1        0.1434
     16 C           0.0826    7.9608    0.0212 C.ar    1  LIG1        0.1139
     17 N           1.3459    7.5380    0.2229 N.ar    1  LIG1       -0.2475
     18 H          -1.5831    5.0054   -0.3744 H       1  LIG1        0.0662
     19 C           2.7888    5.8321    0.4080 C.3     1  LIG1       -0.0216
     20 H           3.3081    6.5869    0.9608 H       1  LIG1        0.0293
     21 H           3.2726    5.6842   -0.5349 H       1  LIG1        0.0293
     22 H           2.7970    4.9160    0.9607 H       1  LIG1        0.0293
     23 O          -2.1971    7.5661   -0.3860 O.3     1  LIG1       -0.5046
     24 H          -2.8258    6.8421   -0.4323 H       1  LIG1        0.2922
     25 C          -0.1826    9.9283    1.2712 C.ar    1  LIG1        0.0618
     26 C          -0.3717   11.3235    1.2371 C.ar    1  LIG1       -0.0325
     27 C          -0.0905    9.2491    0.0392 C.ar    1  LIG1        0.0248
     28 C          -0.4646   12.0139    0.0307 C.ar    1  LIG1        0.0261
     29 H          -0.4456   11.8672    2.1762 H       1  LIG1        0.0638
     30 C          -0.1833    9.9378   -1.1654 C.ar    1  LIG1       -0.0090
     31 C          -0.3707   11.3239   -1.1785 C.ar    1  LIG1        0.1253
     32 H          -0.1093    9.3914   -2.1022 H       1  LIG1        0.0661
     33 N          -0.0331    8.8207    3.4476 N.1     1  LIG1       -0.1908
     34 C          -0.1031    9.3398    2.4277 C.1     1  LIG1        0.0998
     35 O          -0.4568   11.9624   -2.3077 O.3     1  LIG1       -0.5061
     36 H          -1.3749   11.9988   -2.5860 H       1  LIG1        0.2922
     37 C          -1.9264   13.8357    0.2505 C.ar    1  LIG1        0.0596
     38 C          -2.0632   15.2373    0.2455 C.ar    1  LIG1       -0.0425
     39 C          -0.6391   13.3020    0.0361 C.ar    1  LIG1        0.0042
     40 C          -0.9680   16.0726    0.0370 C.ar    1  LIG1       -0.0431
     41 H          -3.0477   15.6701    0.4088 H       1  LIG1        0.0631
     42 C           0.4546   14.1355   -0.1721 C.ar    1  LIG1       -0.0353
     43 C           0.2984   15.5255   -0.1730 C.ar    1  LIG1        0.0524
     44 H           1.4370   13.6998   -0.3352 H       1  LIG1        0.0637
     45 H          -1.1304   17.3625    0.0389 H       1  LIG1        0.0631
     46 N          -3.9189   12.4668    0.6272 N.1     1  LIG1       -0.1909
     47 C          -2.9851   13.1083    0.4507 C.1     1  LIG1        0.0998
     48 N           2.2293   16.9824   -0.5405 N.1     1  LIG1       -0.1909
     49 C           1.3243   16.2996   -0.3683 C.1     1  LIG1        0.0992
@<TRIPOS>BOND
     1    36    35    1
     2    35    31    1
     3    32    30    1
     4    31    30   ar
     5    31    28   ar
     6    30    27   ar
     7    48    49    3
     8    21    19    1
     9     9     7    1
    10     8     7    1
    11    24    23    1
    12    23    15    1
    13    18    14    1
    14    49    43    1
    15    44    42    1
    16    14    15   ar
    17    14    13   ar
    18    15    16   ar
    19    43    42   ar
    20    43    40   ar
    21    42    39   ar
    22     5     4   ar
    23     5     1   ar
    24    13     4    1
    25    13    12   ar
    26     4     3   ar
    27     1     2   ar
    28     1     6    1
    29    11    10    1
    30     2     3   ar
    31     2     7    1
    32     3    10    1
    33    16    27    1
    34    16    17   ar
    35    28    39    1
    36    28    26   ar
    37    39    37   ar
    38    40    45    1
    39    40    38   ar
    40    27    25   ar
    41    12    17   ar
    42    12    19    1
    43    38    37   ar
    44    38    41    1
    45    37    47    1
    46    19    22    1
    47    19    20    1
    48    47    46    3
    49    26    25   ar
    50    26    29    1
    51    25    34    1
    52    34    33    3
