@<TRIPOS>MOLECULE
mol_data/noopt/geoms/mol2/12hf12lf(60)6ed(130)12ea(130).out
 45 49 0 0 0
SMALL
GASTEIGER

@<TRIPOS>ATOM
      1 C           0.1763    1.8460    0.0000 C.ar    1  LIG1        0.1171
      2 C           1.5558    1.8460    0.0000 C.ar    1  LIG1        0.1057
      3 C           1.9706    3.2334    0.0000 C.ar    1  LIG1        0.1871
      4 C           0.8165    3.9895   -0.0001 C.ar    1  LIG1        0.2165
      5 O          -0.3030    3.1567   -0.0002 O.2     1  LIG1       -0.4540
      6 H          -0.7504    0.9343    0.0000 H       1  LIG1        0.1050
      7 N           2.3515    0.8179    0.0001 N.pl3   1  LIG1       -0.3527
      8 H           1.9098    0.0546   -0.4713 H       1  LIG1        0.1425
      9 H           3.2012    1.0540   -0.4713 H       1  LIG1        0.1425
     10 O           3.1998    3.6567    0.0000 O.3     1  LIG1       -0.5019
     11 H           3.2081    4.6167    0.0000 H       1  LIG1        0.2924
     12 C           0.5416    5.2601   -0.0001 C.ar    1  LIG1        0.2194
     13 C           0.8540    6.3338    0.8077 C.ar    1  LIG1        0.2116
     14 C           0.2103    7.4926    0.2248 C.ar    1  LIG1        0.2062
     15 C          -0.4531    7.0499   -0.9011 C.ar    1  LIG1        0.1835
     16 O          -0.2637    5.6768   -1.0610 O.2     1  LIG1       -0.4439
     17 O           1.5808    6.3337    1.8856 O.3     1  LIG1       -0.4883
     18 C           1.8474    4.9856    2.2813 C.3     1  LIG1        0.0791
     19 H           2.4458    4.9860    3.1684 H       1  LIG1        0.0660
     20 H           0.9237    4.4812    2.4743 H       1  LIG1        0.0660
     21 H           2.3723    4.4810    1.4973 H       1  LIG1        0.0660
     22 O           0.2636    8.7044    0.6926 O.3     1  LIG1       -0.5008
     23 H          -0.6274    9.0428    0.8079 H       1  LIG1        0.2924
     24 C          -0.6018    8.1356   -2.9789 C.ar    1  LIG1        0.1244
     25 C          -1.1909    7.6014   -1.8183 C.ar    1  LIG1        0.0552
     26 C          -2.5779    7.6783   -1.6788 C.ar    1  LIG1       -0.0410
     27 C          -3.3230    8.2809   -2.6938 C.ar    1  LIG1        0.0092
     28 C          -2.6426    8.7862   -3.8169 C.ar    1  LIG1        0.1012
     29 N          -1.3053    8.7203   -3.9679 N.ar    1  LIG1       -0.2377
     30 H          -3.0736    7.2728   -0.7854 H       1  LIG1        0.0629
     31 C           0.6854    8.0878   -3.1544 C.1     1  LIG1       -0.0491
     32 C           1.8748    8.0436   -3.3165 C.1     1  LIG1       -0.1124
     33 H           2.9343    8.0042   -3.4609 H       1  LIG1        0.1232
     34 N          -5.7579    8.4623   -2.5381 N.pl3   1  LIG1       -0.2336
     35 C          -4.6168    8.3773   -2.6111 C.3     1  LIG1        0.1392
     36 C          -3.2924    9.3559   -4.7880 C.3     1  LIG1        0.2330
     37 C          -4.6176    9.6276   -5.0582 C.2     1  LIG1        0.0526
     38 C          -4.6503   10.2984   -6.3411 C.2     1  LIG1       -0.0121
     39 C          -3.3422   10.3922   -6.7699 C.2     1  LIG1        0.0876
     40 O          -2.4863    9.8182   -5.8293 O.2     1  LIG1       -0.4768
     41 H          -2.7431   10.8776   -7.8166 H       1  LIG1        0.1024
     42 C          -5.6530    9.3477   -4.3237 C.1     1  LIG1       -0.0950
     43 C          -6.6098    9.0891   -3.6450 C.2     1  LIG1        0.0549
     44 H          -7.4620    8.8588   -3.0404 H       1  LIG1        0.0888
     45 H          -5.7194   10.7203   -6.9485 H       1  LIG1        0.0658
@<TRIPOS>BOND
     1    41    39    1
     2    45    38    1
     3    39    38    2
     4    39    40    1
     5    38    37    1
     6    40    36    1
     7    37    36    1
     8    37    42    2
     9    36    28    1
    10    42    43    2
    11    29    28   ar
    12    29    24   ar
    13    28    27   ar
    14    43    44    1
    15    43    34    1
    16    33    32    1
    17    32    31    3
    18    31    24    1
    19    24    25   ar
    20    27    35    1
    21    27    26   ar
    22    35    34    1
    23    25    26   ar
    24    25    15    1
    25    26    30    1
    26    16    15   ar
    27    16    12   ar
    28    15    14   ar
    29     9     7    1
    30     8     7    1
    31     5     4   ar
    32     5     1   ar
    33    12     4    1
    34    12    13   ar
    35     4     3   ar
    36     1     6    1
    37     1     2   ar
    38    11    10    1
    39    10     3    1
    40     3     2   ar
    41     2     7    1
    42    14    22    1
    43    14    13   ar
    44    22    23    1
    45    13    17    1
    46    21    18    1
    47    17    18    1
    48    18    20    1
    49    18    19    1
