@<TRIPOS>MOLECULE
mol_data/noopt/geoms/mol2/12hf4ha-4ia13ie-4ff-12ai-6fa-12df.out
 91 97 0 0 0
SMALL
GASTEIGER

@<TRIPOS>ATOM
      1 C           0.1763    1.8460    0.0000 C.ar    1  LIG1        0.1169
      2 C           1.5558    1.8460    0.0000 C.ar    1  LIG1        0.1056
      3 C           1.9706    3.2334    0.0000 C.ar    1  LIG1        0.1838
      4 C           0.8165    3.9895   -0.0001 C.ar    1  LIG1        0.1796
      5 O          -0.3030    3.1567   -0.0002 O.2     1  LIG1       -0.4572
      6 H          -0.7504    0.9343    0.0000 H       1  LIG1        0.1050
      7 N           2.3515    0.8179    0.0001 N.pl3   1  LIG1       -0.3527
      8 H           1.9098    0.0546   -0.4713 H       1  LIG1        0.1425
      9 H           3.2012    1.0540   -0.4713 H       1  LIG1        0.1425
     10 O           3.1998    3.6567    0.0000 O.3     1  LIG1       -0.5020
     11 H           3.2081    4.6167    0.0000 H       1  LIG1        0.2924
     12 C           1.5877    6.2051    0.0220 C.ar    1  LIG1        0.0360
     13 C           1.2377    7.5692    0.0226 C.ar    1  LIG1       -0.0326
     14 C           0.5416    5.2600   -0.0001 C.ar    1  LIG1        0.0416
     15 C          -0.0943    7.9766    0.0015 C.ar    1  LIG1       -0.0159
     16 H           2.0291    8.3151    0.0396 H       1  LIG1        0.0642
     17 C          -0.7883    5.6663   -0.0212 C.ar    1  LIG1       -0.0486
     18 C          -1.1157    7.0262   -0.0206 C.ar    1  LIG1       -0.0532
     19 H          -1.5769    4.9183   -0.0379 H       1  LIG1        0.0625
     20 N           2.8479    5.8865    0.0420 N.pl3   1  LIG1       -0.3574
     21 H           2.9779    5.0115   -0.4242 H       1  LIG1        0.1423
     22 H           3.3781    6.5946   -0.4243 H       1  LIG1        0.1423
     23 H          -2.3607    7.3999   -0.0402 H       1  LIG1        0.0624
     24 C           0.6555   10.1996    0.0039 C.ar    1  LIG1       -0.0421
     25 C           0.2922   11.5603    0.0066 C.ar    1  LIG1       -0.0491
     26 C          -0.3815    9.2445    0.0026 C.ar    1  LIG1       -0.0149
     27 C          -1.0438   11.9547    0.0073 C.ar    1  LIG1       -0.0011
     28 H           1.0766   12.3139    0.0079 H       1  LIG1        0.0627
     29 C          -1.7155    9.6377    0.0033 C.ar    1  LIG1       -0.0532
     30 C          -2.0561   10.9943    0.0055 C.ar    1  LIG1       -0.0520
     31 H          -2.4969    8.8821    0.0023 H       1  LIG1        0.0624
     32 C           1.9192    9.8933    0.0031 C.3     1  LIG1       -0.0391
     33 H           2.4720   10.6583    0.5073 H       1  LIG1        0.0278
     34 H           2.2653    9.8095   -1.0060 H       1  LIG1        0.0278
     35 H           2.0603    8.9601    0.5072 H       1  LIG1        0.0278
     36 H          -3.3048   11.3560    0.0063 H       1  LIG1        0.0624
     37 C          -1.3433   13.2198    0.0097 C.ar    1  LIG1        0.0511
     38 C          -0.5399   14.3163    0.0109 C.ar    1  LIG1       -0.0092
     39 C          -1.3895   15.4690    0.0146 C.ar    1  LIG1        0.0535
     40 C          -2.6748   15.0262    0.0137 C.ar    1  LIG1        0.0664
     41 N          -2.6511   13.6497    0.0112 N.ar    1  LIG1       -0.3529
     42 H          -3.4512   13.0600    0.0099 H       1  LIG1        0.1659
     43 C           0.7604   14.3148    0.0104 C.3     1  LIG1       -0.0365
     44 H           1.1183   15.1880    0.5147 H       1  LIG1        0.0279
     45 H           1.1168   14.3145   -0.9985 H       1  LIG1        0.0279
     46 H           1.1162   13.4407    0.5147 H       1  LIG1        0.0279
     47 C          -1.0063   16.7113    0.0178 C.1     1  LIG1       -0.0673
     48 C          -0.6522   17.8591    0.0208 C.1     1  LIG1       -0.1138
     49 H          -0.3367   18.8815    0.0234 H       1  LIG1        0.1232
     50 C          -3.7786   17.0962    0.0392 C.ar    1  LIG1        0.1268
     51 C          -5.0181   17.7649    0.0422 C.ar    1  LIG1       -0.0083
     52 C          -3.7945   15.6866    0.0159 C.ar    1  LIG1        0.0444
     53 C          -6.2213   17.0631    0.0222 C.ar    1  LIG1        0.0276
     54 H          -5.0287   18.8524    0.0602 H       1  LIG1        0.0661
     55 C          -4.9954   14.9855   -0.0040 C.ar    1  LIG1       -0.0069
     56 C          -6.2164   15.6679   -0.0011 C.ar    1  LIG1        0.1254
     57 H          -4.9813   13.8987   -0.0217 H       1  LIG1        0.0662
     58 O          -2.6894   17.8056    0.0582 O.3     1  LIG1       -0.5061
     59 H          -2.9148   18.7387    0.0629 H       1  LIG1        0.2922
     60 O          -7.3359   15.0072   -0.0196 O.3     1  LIG1       -0.5061
     61 H          -7.1519   14.0651   -0.0242 H       1  LIG1        0.2922
     62 C          -7.3474   17.7126    0.0255 C.2     1  LIG1       -0.0061
     63 C          -7.7159   19.0419    0.0428 C.2     1  LIG1       -0.0468
     64 C          -9.1637   19.0711    0.0353 C.2     1  LIG1       -0.0024
     65 C          -9.5840   17.7571    0.0138 C.2     1  LIG1        0.1940
     66 O          -8.4824   16.9008    0.0073 O.2     1  LIG1       -0.2868
     67 H          -6.9378   20.0831    0.0622 H       1  LIG1        0.0628
     68 C          -9.9001   20.1427    0.0468 C.3     1  LIG1       -0.0360
     69 H         -10.8196   19.9382    0.5544 H       1  LIG1        0.0279
     70 H         -10.1072   20.4440   -0.9588 H       1  LIG1        0.0279
     71 H          -9.3795   20.9278    0.5543 H       1  LIG1        0.0279
     72 C         -10.8002   15.7479   -0.0304 C.ar    1  LIG1        0.2240
     73 C         -10.7350   17.1529   -0.0012 C.ar    1  LIG1        0.0832
     74 C         -11.9293   17.8757    0.0115 C.ar    1  LIG1       -0.0437
     75 C         -13.1377   17.1771   -0.0056 C.ar    1  LIG1       -0.0317
     76 C         -13.1001   15.7709   -0.0348 C.ar    1  LIG1        0.1112
     77 N         -11.9571   15.0578   -0.0472 N.ar    1  LIG1       -0.2093
     78 H         -11.9180   18.9746    0.0332 H       1  LIG1        0.0627
     79 O          -9.7156   15.0313   -0.0431 O.3     1  LIG1       -0.4919
     80 H          -8.9494   15.6097   -0.0462 H       1  LIG1        0.2938
     81 H         -14.2766   17.8039    0.0050 H       1  LIG1        0.0640
     82 C         -14.1987   15.0760   -0.0514 C.ar    1  LIG1        0.1740
     83 C         -15.5470   15.3678   -0.0492 C.ar    1  LIG1        0.1402
     84 C         -16.2458   14.0998   -0.0761 C.ar    1  LIG1        0.1729
     85 C         -15.2777   13.1168   -0.0931 C.ar    1  LIG1        0.1353
     86 O         -14.0074   13.6939   -0.0784 O.2     1  LIG1       -0.4563
     87 H         -15.2777   11.8171   -0.1188 H       1  LIG1        0.1068
     88 N         -16.6014   17.5751   -0.0082 N.1     1  LIG1       -0.1906
     89 C         -16.1072   16.5407   -0.0274 C.1     1  LIG1        0.1067
     90 O         -17.5367   13.9461   -0.0825 O.3     1  LIG1       -0.5028
     91 H         -17.7479   13.0096   -0.0841 H       1  LIG1        0.2923
@<TRIPOS>BOND
     1    34    32    1
     2    45    43    1
     3    70    68    1
     4     9     7    1
     5     8     7    1
     6    22    20    1
     7    21    20    1
     8    87    85    1
     9    85    86   ar
    10    85    84   ar
    11    91    90    1
    12    90    84    1
    13    86    82   ar
    14    84    83   ar
    15    82    83   ar
    16    82    76    1
    17    83    89    1
    18    77    76   ar
    19    77    72   ar
    20    80    79    1
    21    79    72    1
    22    23    18    1
    23    19    17    1
    24    76    75   ar
    25    72    73   ar
    26    89    88    3
    27    61    60    1
    28    57    55    1
    29    17    18   ar
    30    17    14   ar
    31    18    15   ar
    32    60    56    1
    33    75    81    1
    34    75    74   ar
    35    55    56   ar
    36    55    52   ar
    37    73    74   ar
    38    73    65    1
    39    56    53   ar
    40     5     4   ar
    41     5     1   ar
    42     4    14    1
    43     4     3   ar
    44    14    12   ar
    45     1     2   ar
    46     1     6    1
    47     2     3   ar
    48     2     7    1
    49     3    10    1
    50    10    11    1
    51    15    26    1
    52    15    13   ar
    53    31    29    1
    54    26    29   ar
    55    26    24   ar
    56    32    24    1
    57    32    35    1
    58    32    33    1
    59    29    30   ar
    60    24    25   ar
    61    30    36    1
    62    30    27   ar
    63    25    27   ar
    64    25    28    1
    65    27    37    1
    66    66    65    1
    67    37    38   ar
    68    37    41   ar
    69    42    41    1
    70    43    38    1
    71    43    46    1
    72    43    44    1
    73    38    39   ar
    74    41    40   ar
    75    74    78    1
    76    40    39   ar
    77    40    52    1
    78    65    64    2
    79    39    47    1
    80    52    50   ar
    81    47    48    3
    82    48    49    1
    83    12    13   ar
    84    12    20    1
    85    53    62    1
    86    53    51   ar
    87    13    16    1
    88    62    63    2
    89    64    63    1
    90    64    68    1
    91    50    51   ar
    92    50    58    1
    93    51    54    1
    94    63    67    1
    95    68    71    1
    96    68    69    1
    97    58    59    1
