@<TRIPOS>MOLECULE
mol_data/noopt/geoms/mol2/12hf6aa(170)12fi(170)13il(10).out
 47 50 0 0 0
SMALL
GASTEIGER

@<TRIPOS>ATOM
      1 C           0.1763    1.8460    0.0000 C.ar    1  LIG1        0.1169
      2 C           1.5558    1.8460    0.0000 C.ar    1  LIG1        0.1056
      3 C           1.9706    3.2334    0.0000 C.ar    1  LIG1        0.1838
      4 C           0.8165    3.9895   -0.0001 C.ar    1  LIG1        0.1793
      5 O          -0.3030    3.1567   -0.0002 O.2     1  LIG1       -0.4572
      6 H          -0.7504    0.9343    0.0000 H       1  LIG1        0.1050
      7 N           2.3515    0.8179    0.0001 N.pl3   1  LIG1       -0.3527
      8 H           1.9098    0.0546   -0.4713 H       1  LIG1        0.1425
      9 H           3.2012    1.0540   -0.4713 H       1  LIG1        0.1425
     10 O           3.1998    3.6567    0.0000 O.3     1  LIG1       -0.5020
     11 H           3.2081    4.6167    0.0000 H       1  LIG1        0.2924
     12 C           1.5597    6.2080   -0.2109 C.ar    1  LIG1        0.0391
     13 C           0.5416    5.2601   -0.0001 C.ar    1  LIG1        0.0391
     14 C          -0.7615    5.7162    0.2071 C.ar    1  LIG1       -0.0474
     15 C          -1.0017    7.0913    0.1971 C.ar    1  LIG1       -0.0319
     16 C           0.0826    7.9608   -0.0219 C.ar    1  LIG1        0.1097
     17 N           1.3458    7.5380   -0.2237 N.ar    1  LIG1       -0.2511
     18 H          -1.5828    5.0055    0.3762 H       1  LIG1        0.0626
     19 H           2.7884    5.8322   -0.4084 H       1  LIG1        0.0837
     20 H          -2.1971    7.5661    0.3853 H       1  LIG1        0.0640
     21 C          -0.0907    9.2491   -0.0403 C.ar    1  LIG1        0.1952
     22 C          -1.1696   10.0982    0.0935 C.ar    1  LIG1        0.1678
     23 C          -0.6547   11.4459   -0.0310 C.ar    1  LIG1        0.0389
     24 C           0.7053   11.3308   -0.2326 C.ar    1  LIG1        0.1587
     25 O           1.0771    9.9860   -0.2422 O.2     1  LIG1       -0.4477
     26 O          -2.4139    9.7785    0.2927 O.3     1  LIG1       -0.5030
     27 H          -2.4954    8.8232    0.3417 H       1  LIG1        0.2923
     28 C          -1.3602   12.5361    0.0380 C.3     1  LIG1       -0.0325
     29 H          -2.2726   12.3380    0.5606 H       1  LIG1        0.0280
     30 H          -1.5828   12.8800   -0.9505 H       1  LIG1        0.0280
     31 H          -0.8056   13.2873    0.5606 H       1  LIG1        0.0280
     32 C           1.6890   12.1621   -0.4101 C.ar    1  LIG1        0.0890
     33 C           3.0327   11.9605   -0.3668 C.ar    1  LIG1        0.0195
     34 C           3.6626   13.2184   -0.6344 C.ar    1  LIG1        0.1409
     35 C           2.6762   14.1329   -0.8312 C.ar    1  LIG1        0.0447
     36 N           1.4663   13.4905   -0.6943 N.ar    1  LIG1       -0.3550
     37 H           0.5736   13.9179   -0.7867 H       1  LIG1        0.1655
     38 H           2.7447   15.4024   -1.1024 H       1  LIG1        0.0844
     39 C           3.6319   10.8322   -0.1249 C.3     1  LIG1       -0.0341
     40 H           4.5239   11.0153    0.4370 H       1  LIG1        0.0279
     41 H           3.8844   10.3570   -1.0498 H       1  LIG1        0.0279
     42 H           2.9807   10.1958    0.4370 H       1  LIG1        0.0279
     43 O           4.9415   13.4474   -0.6818 O.3     1  LIG1       -0.4933
     44 C           5.6486   12.2046   -0.6992 C.3     1  LIG1        0.0789
     45 H           6.7010   12.3936   -0.7384 H       1  LIG1        0.0660
     46 H           5.4184   11.6508    0.1869 H       1  LIG1        0.0660
     47 H           5.3555   11.6395   -1.5592 H       1  LIG1        0.0660
@<TRIPOS>BOND
     1    47    44    1
     2    38    35    1
     3    41    39    1
     4    30    28    1
     5    35    36   ar
     6    35    34   ar
     7    37    36    1
     8    45    44    1
     9    44    43    1
    10    44    46    1
    11    36    32   ar
    12    43    34    1
    13    34    33   ar
    14     9     7    1
    15     8     7    1
    16    32    33   ar
    17    32    24    1
    18    19    12    1
    19    33    39    1
    20    25    24   ar
    21    25    21   ar
    22    24    23   ar
    23    17    12   ar
    24    17    16   ar
    25    12    13   ar
    26    39    42    1
    27    39    40    1
    28    21    16    1
    29    21    22   ar
    30    23    28    1
    31    23    22   ar
    32    16    15   ar
    33     5     4   ar
    34     5     1   ar
    35     4    13    1
    36     4     3   ar
    37    13    14   ar
    38     3    10    1
    39     3     2   ar
    40     6     1    1
    41     1     2   ar
    42    11    10    1
    43     2     7    1
    44    28    31    1
    45    28    29    1
    46    22    26    1
    47    15    14   ar
    48    15    20    1
    49    14    18    1
    50    26    27    1
