@<TRIPOS>MOLECULE
mol_data/noopt/geoms/mol2/12hf13ed6ia13ha6if13hl-12di-6fd.out
 94 99 0 0 0
SMALL
GASTEIGER

@<TRIPOS>ATOM
      1 C           0.1763    1.8460    0.0000 C.ar    1  LIG1        0.1170
      2 C           1.5558    1.8460    0.0000 C.ar    1  LIG1        0.1057
      3 C           1.9706    3.2334    0.0000 C.ar    1  LIG1        0.1853
      4 C           0.8165    3.9895   -0.0001 C.ar    1  LIG1        0.1952
      5 O          -0.3030    3.1567   -0.0002 O.2     1  LIG1       -0.4557
      6 H          -0.7504    0.9343    0.0000 H       1  LIG1        0.1050
      7 N           2.3515    0.8179    0.0001 N.pl3   1  LIG1       -0.3527
      8 H           1.9098    0.0546   -0.4713 H       1  LIG1        0.1425
      9 H           3.2012    1.0540   -0.4713 H       1  LIG1        0.1425
     10 O           3.1998    3.6567    0.0000 O.3     1  LIG1       -0.5020
     11 H           3.2081    4.6167    0.0000 H       1  LIG1        0.2924
     12 C           0.5416    5.2601   -0.0001 C.ar    1  LIG1        0.1031
     13 C           1.3660    6.3408    0.0161 C.ar    1  LIG1        0.0710
     14 C           0.5390    7.5098    0.0084 C.ar    1  LIG1        0.0931
     15 C          -0.7545    7.0921   -0.0139 C.ar    1  LIG1        0.0675
     16 N          -0.7574    5.7154   -0.0188 N.ar    1  LIG1       -0.3496
     17 H          -1.5687    5.1413   -0.0340 H       1  LIG1        0.1661
     18 C           2.6656    6.3141    0.0365 C.1     1  LIG1       -0.0661
     19 C           3.8664    6.2893    0.0554 C.1     1  LIG1       -0.1138
     20 H           4.9360    6.2673    0.0722 H       1  LIG1        0.1232
     21 N           1.3053    9.8332    0.0305 N.1     1  LIG1       -0.1908
     22 C           0.9462    8.7444    0.0202 C.1     1  LIG1        0.1025
     23 C          -3.1034    7.1138   -0.0362 C.ar    1  LIG1        0.0481
     24 C          -1.8611    7.7741   -0.0284 C.ar    1  LIG1        0.0207
     25 C          -1.8480    9.1701   -0.0363 C.ar    1  LIG1       -0.0488
     26 C          -3.0652    9.8534   -0.0518 C.ar    1  LIG1       -0.0336
     27 C          -4.2559    9.1041   -0.0587 C.ar    1  LIG1        0.0892
     28 N          -4.2869    7.7571   -0.0511 N.ar    1  LIG1       -0.2497
     29 H          -0.8967    9.7207   -0.0316 H       1  LIG1        0.0625
     30 C          -3.1671    5.8151   -0.0293 C.3     1  LIG1       -0.0217
     31 H          -2.3118    5.4187    0.4771 H       1  LIG1        0.0293
     32 H          -3.1847    5.4534   -1.0362 H       1  LIG1        0.0293
     33 H          -4.0570    5.5043    0.4770 H       1  LIG1        0.0293
     34 H          -3.1064   11.1527   -0.0598 H       1  LIG1        0.0640
     35 C          -5.4139    9.6948   -0.0730 C.ar    1  LIG1        0.0863
     36 C          -5.7294   11.0170   -0.0830 C.ar    1  LIG1        0.0523
     37 C          -7.1580   11.1157   -0.0962 C.ar    1  LIG1       -0.0150
     38 C          -7.6526    9.8494   -0.0954 C.ar    1  LIG1        0.0505
     39 N          -6.5882    8.9764   -0.0807 N.ar    1  LIG1       -0.3514
     40 H          -6.6568    7.9848   -0.0770 H       1  LIG1        0.1660
     41 N          -4.8866   12.0068   -0.0796 N.pl3   1  LIG1       -0.3563
     42 H          -4.0481   11.7322   -0.5502 H       1  LIG1        0.1424
     43 H          -5.2914   12.7908   -0.5502 H       1  LIG1        0.1424
     44 H          -7.8565   12.2120   -0.1073 H       1  LIG1        0.0657
     45 C          -9.1550    8.0436   -0.1096 C.ar    1  LIG1        0.0481
     46 C          -8.8808    9.4236   -0.1047 C.ar    1  LIG1        0.0200
     47 C          -9.9539   10.3165   -0.1097 C.ar    1  LIG1       -0.0410
     48 C         -11.2530    9.8059   -0.1196 C.ar    1  LIG1        0.0123
     49 C         -11.4257    8.4095   -0.1241 C.ar    1  LIG1        0.0971
     50 N         -10.4018    7.5337   -0.1192 N.ar    1  LIG1       -0.2491
     51 H          -9.7788   11.4017   -0.1071 H       1  LIG1        0.0631
     52 C          -8.1892    7.1730   -0.1052 C.3     1  LIG1       -0.0217
     53 H          -7.3406    7.5842    0.4005 H       1  LIG1        0.0293
     54 H          -7.9217    6.9318   -1.1128 H       1  LIG1        0.0293
     55 H          -8.5106    6.2864    0.4004 H       1  LIG1        0.0293
     56 O         -12.2856   10.5957   -0.1248 O.3     2  HOH2       -0.2528
     57 H         -13.0899   10.0716   -0.1260 H       0  HOH0        0.2528
     58 C         -12.6156    7.8861   -0.1332 C.ar    1  LIG1        0.0906
     59 C         -13.8394    8.4779   -0.1397 C.ar    1  LIG1        0.0946
     60 C         -14.8193    7.4337   -0.1477 C.ar    1  LIG1        0.1665
     61 C         -14.1513    6.2498   -0.1474 C.ar    1  LIG1        0.0930
     62 N         -12.8018    6.5221   -0.1381 N.ar    1  LIG1       -0.3485
     63 H         -12.0771    5.8419   -0.1359 H       1  LIG1        0.1661
     64 N         -14.0731    9.7567   -0.1376 N.pl3   1  LIG1       -0.3534
     65 H         -13.3300   10.2322   -0.6084 H       1  LIG1        0.1425
     66 H         -14.9363    9.9386   -0.6084 H       1  LIG1        0.1425
     67 O         -16.1104    7.5859   -0.1544 O.3     1  LIG1       -0.4911
     68 C         -16.4266    8.9805   -0.1569 C.3     1  LIG1        0.0790
     69 H         -17.4893    9.1053   -0.1626 H       1  LIG1        0.0660
     70 H         -16.0182    9.4405    0.7187 H       1  LIG1        0.0660
     71 H         -16.0090    9.4394   -1.0286 H       1  LIG1        0.0660
     72 C         -14.5982    5.0291   -0.1531 C.2     1  LIG1        0.0301
     73 C         -15.8447    4.4381   -0.1427 C.2     1  LIG1        0.0682
     74 C         -15.6253    3.0068   -0.1590 C.2     1  LIG1        0.0149
     75 C         -14.2587    2.8180   -0.1784 C.2     1  LIG1        0.1953
     76 O         -13.6038    4.0501   -0.1753 O.2     1  LIG1       -0.2868
     77 N         -18.0263    5.5449   -0.1041 N.1     1  LIG1       -0.1908
     78 C         -17.0039    5.0262   -0.1222 C.1     1  LIG1        0.1002
     79 C         -16.5549    2.0976   -0.1556 C.3     1  LIG1       -0.0348
     80 H         -16.1981    1.2246    0.3497 H       1  LIG1        0.0279
     81 H         -16.8117    1.8463   -1.1635 H       1  LIG1        0.0279
     82 H         -17.4198    2.4738    0.3497 H       1  LIG1        0.0279
     83 C         -12.0705    1.9643   -0.2090 C.ar    1  LIG1        0.2234
     84 C         -13.4662    1.7877   -0.1983 C.ar    1  LIG1        0.0844
     85 C         -13.9738    0.4873   -0.2091 C.ar    1  LIG1       -0.0269
     86 C         -13.0784   -0.5834   -0.2304 C.ar    1  LIG1        0.0707
     87 C         -11.6992   -0.3054   -0.2399 C.ar    1  LIG1        0.0488
     88 N         -11.1923    0.9429   -0.2294 N.ar    1  LIG1       -0.2196
     89 H         -15.0586    0.3101   -0.2023 H       1  LIG1        0.0640
     90 H         -10.8263   -1.2685   -0.2595 H       1  LIG1        0.0844
     91 O         -11.5501    3.1556   -0.1995 O.3     1  LIG1       -0.4919
     92 H         -12.2512    3.8114   -0.1971 H       1  LIG1        0.2937
     93 N         -13.8737   -2.8971   -0.2510 N.1     1  LIG1       -0.1908
     94 C         -13.5010   -1.8128   -0.2413 C.1     1  LIG1        0.1007
@<TRIPOS>BOND
     1    81    79    1
     2    54    52    1
     3    32    30    1
     4    71    68    1
     5    66    64    1
     6    65    64    1
     7    43    41    1
     8    42    41    1
     9     9     7    1
    10     8     7    1
    11    90    87    1
    12    93    94    3
    13    94    86    1
    14    87    86   ar
    15    87    88   ar
    16    86    85   ar
    17    88    83   ar
    18    85    89    1
    19    85    84   ar
    20    83    91    1
    21    83    84   ar
    22    91    92    1
    23    84    75    1
    24    75    76    1
    25    75    74    2
    26    69    68    1
    27    74    79    1
    28    74    73    1
    29    68    67    1
    30    68    70    1
    31    79    82    1
    32    79    80    1
    33    67    60    1
    34    72    61    1
    35    72    73    2
    36    60    61   ar
    37    60    59   ar
    38    61    62   ar
    39    73    78    1
    40    59    64    1
    41    59    58   ar
    42    62    63    1
    43    62    58   ar
    44    58    49    1
    45    57    56    1
    46    49    48   ar
    47    49    50   ar
    48    78    77    3
    49    48    47   ar
    50    50    45   ar
    51    47    51    1
    52    47    46   ar
    53    45    52    1
    54    45    46   ar
    55    44    37    1
    56    52    55    1
    57    52    53    1
    58    46    38    1
    59    37    38   ar
    60    37    36   ar
    61    38    39   ar
    62    36    41    1
    63    36    35   ar
    64    39    40    1
    65    39    35   ar
    66    35    27    1
    67    34    26    1
    68    27    26   ar
    69    27    28   ar
    70    26    25   ar
    71    28    23   ar
    72    25    29    1
    73    25    24   ar
    74    23    30    1
    75    23    24   ar
    76    17    16    1
    77    30    33    1
    78    30    31    1
    79    24    15    1
    80    16    15   ar
    81    16    12   ar
    82    15    14   ar
    83     5     4   ar
    84     5     1   ar
    85     4    12    1
    86     4     3   ar
    87    12    13   ar
    88     2     3   ar
    89     2     1   ar
    90     2     7    1
    91     3    10    1
    92     6     1    1
    93    10    11    1
    94    14    13   ar
    95    14    22    1
    96    13    18    1
    97    22    21    3
    98    18    19    3
    99    19    20    1
