@<TRIPOS>MOLECULE
mol_data/noopt/geoms/mol2/12hf12de-12da6ea12le-4hd-4ah6fi.out
 92 96 0 0 0
SMALL
GASTEIGER

@<TRIPOS>ATOM
      1 C           0.1763    1.8460    0.0000 C.ar    1  LIG1        0.1171
      2 C           1.5558    1.8460    0.0000 C.ar    1  LIG1        0.1057
      3 C           1.9706    3.2334    0.0000 C.ar    1  LIG1        0.1870
      4 C           0.8165    3.9895   -0.0001 C.ar    1  LIG1        0.2140
      5 O          -0.3030    3.1567   -0.0002 O.2     1  LIG1       -0.4541
      6 H          -0.7504    0.9343    0.0000 H       1  LIG1        0.1050
      7 N           2.3515    0.8179    0.0001 N.pl3   1  LIG1       -0.3527
      8 H           1.9098    0.0546   -0.4713 H       1  LIG1        0.1425
      9 H           3.2012    1.0540   -0.4713 H       1  LIG1        0.1425
     10 O           3.1998    3.6567    0.0000 O.3     1  LIG1       -0.5019
     11 H           3.2081    4.6167    0.0000 H       1  LIG1        0.2924
     12 C           0.5416    5.2601   -0.0001 C.ar    1  LIG1        0.1929
     13 C           1.2792    6.4258   -0.0001 C.ar    1  LIG1        0.1167
     14 C           0.3286    7.5182   -0.0001 C.ar    1  LIG1        0.0916
     15 C          -0.9274    6.9472   -0.0002 C.ar    1  LIG1        0.1886
     16 O          -0.8223    5.5559   -0.0003 O.2     1  LIG1       -0.4458
     17 N           3.7149    6.6566    0.0001 N.1     1  LIG1       -0.1907
     18 C           2.5734    6.5485   -0.0000 C.1     1  LIG1        0.1043
     19 C           0.6282    8.7832   -0.0001 C.1     1  LIG1       -0.0644
     20 C           0.9050    9.9521   -0.0001 C.1     1  LIG1       -0.1138
     21 H           1.1515   10.9933   -0.0001 H       1  LIG1        0.1232
     22 C          -2.1481    7.3943   -0.0002 C.ar    1  LIG1        0.1891
     23 C          -2.7387    8.6410   -0.0002 C.ar    1  LIG1        0.1011
     24 C          -4.1701    8.4218   -0.0002 C.ar    1  LIG1        0.0024
     25 C          -4.3593    7.0551   -0.0003 C.ar    1  LIG1        0.1398
     26 O          -3.1273    6.4000   -0.0004 O.2     1  LIG1       -0.4503
     27 N          -1.6314   10.8227   -0.0000 N.1     1  LIG1       -0.1907
     28 C          -2.1504    9.8002   -0.0001 C.1     1  LIG1        0.1031
     29 H          -5.0789    9.3514   -0.0002 H       1  LIG1        0.0668
     30 C          -5.2136    4.8669   -0.0001 C.ar    1  LIG1        0.1246
     31 C          -5.3898    6.2627   -0.0003 C.ar    1  LIG1        0.0517
     32 C          -6.6903    6.7705   -0.0001 C.ar    1  LIG1       -0.0385
     33 C          -7.7613    5.8751   -0.0000 C.ar    1  LIG1        0.0142
     34 C          -7.4835    4.4959   -0.0001 C.ar    1  LIG1        0.1190
     35 N          -6.2352    3.9887   -0.0000 N.ar    1  LIG1       -0.2339
     36 H          -6.8673    7.8553   -0.0013 H       1  LIG1        0.0632
     37 C          -4.0223    4.3464   -0.0002 C.1     1  LIG1       -0.0491
     38 C          -2.9216    3.8655   -0.0002 C.1     1  LIG1       -0.1124
     39 H          -1.9410    3.4371   -0.0003 H       1  LIG1        0.1232
     40 H          -8.9906    6.2978   -0.0000 H       1  LIG1        0.0194
     41 C          -8.4468    3.6230    0.0001 C.ar    1  LIG1        0.2021
     42 C          -9.8252    3.6796    0.0003 C.ar    1  LIG1        0.2418
     43 C         -10.2966    2.3104    0.0005 C.ar    1  LIG1        0.1178
     44 C          -9.1745    1.5076    0.0003 C.ar    1  LIG1        0.1568
     45 O          -8.0217    2.2937    0.0000 O.2     1  LIG1       -0.4480
     46 O         -10.5780    4.7395    0.0004 O.3     1  LIG1       -0.2825
     47 C          -9.7553    5.9092    0.0003 C.3     2  LIG2       -0.0776
     48 H         -10.3753    6.7813    0.0002 H       1  LIG1        0.0194
     49 H          -9.1376    5.9109    0.8740 H       1  LIG1        0.0194
     50 H          -9.1375    5.9108   -0.8733 H       1  LIG1        0.0194
     51 C         -11.5421    1.9380    0.0007 C.1     1  LIG1       -0.0620
     52 C         -12.6929    1.5938    0.0008 C.1     1  LIG1       -0.1137
     53 H         -13.7181    1.2873    0.0010 H       1  LIG1        0.1232
     54 C         -10.0360   -0.6745    0.0226 C.ar    1  LIG1        0.0360
     55 C          -9.7423   -2.0518    0.0233 C.ar    1  LIG1       -0.0314
     56 C          -8.9520    0.2268    0.0004 C.ar    1  LIG1        0.0405
     57 C          -8.4282   -2.5136    0.0022 C.ar    1  LIG1        0.0013
     58 H         -10.5637   -2.7646    0.0404 H       1  LIG1        0.0643
     59 C          -7.6399   -0.2337   -0.0206 C.ar    1  LIG1       -0.0313
     60 C          -7.3686   -1.6059   -0.0199 C.ar    1  LIG1        0.0602
     61 H          -6.8213    0.4813   -0.0373 H       1  LIG1        0.0638
     62 N         -11.2821   -0.3044    0.0425 N.pl3   1  LIG1       -0.3574
     63 H         -11.3761    0.5752   -0.4237 H       1  LIG1        0.1423
     64 H         -11.8409   -0.9902   -0.4237 H       1  LIG1        0.1423
     65 N          -5.0564   -2.4050   -0.0567 N.1     1  LIG1       -0.1908
     66 C          -6.1400   -2.0305   -0.0394 C.1     1  LIG1        0.0998
     67 C          -9.2686   -4.7039    0.0048 C.ar    1  LIG1       -0.0533
     68 C          -8.9615   -6.0784    0.0076 C.ar    1  LIG1       -0.0516
     69 C          -8.1932   -3.7921    0.0034 C.ar    1  LIG1       -0.0148
     70 C          -7.6428   -6.5273    0.0084 C.ar    1  LIG1        0.0066
     71 H          -9.7762   -6.7991    0.0089 H       1  LIG1        0.0624
     72 C          -6.8765   -4.2398    0.0042 C.ar    1  LIG1       -0.0310
     73 C          -6.5919   -5.6093    0.0066 C.ar    1  LIG1        0.0527
     74 H          -6.0647   -3.5169    0.0032 H       1  LIG1        0.0643
     75 H         -10.5184   -4.3461    0.0040 H       1  LIG1        0.0624
     76 N          -5.3591   -6.0219    0.0074 N.pl3   1  LIG1       -0.2659
     77 H          -5.3019   -6.9021   -0.4638 H       0  HOH0        0.2528
     78 H          -4.7836   -5.3536   -0.4638 H       1  LIG1        0.1699
     79 C          -6.0684   -8.2708    0.0124 C.ar    1  LIG1        0.0974
     80 C          -7.3955   -7.8036    0.0109 C.ar    1  LIG1        0.0117
     81 C          -8.4317   -8.7392    0.0124 C.ar    1  LIG1       -0.0475
     82 C          -8.1105  -10.0976    0.0152 C.ar    1  LIG1       -0.0317
     83 C          -6.7528  -10.4666    0.0163 C.ar    1  LIG1        0.0313
     84 N          -5.7405   -9.5774    0.0151 N.ar    1  LIG1       -0.2525
     85 H          -9.4810   -8.4118    0.0103 H       1  LIG1        0.0627
     86 H          -6.4035  -11.7188    0.0190 H       1  LIG1        0.0832
     87 O          -5.0698   -7.4385    0.0112 O.3     3  HOH3       -0.2528
     88 H          -5.4030   -6.5382    0.0108 H       4  UNK4        0.0000
     89 C          -9.0390  -11.0079    0.0165 C.3     1  LIG1       -0.0383
     90 H          -8.6817  -11.8811    0.5213 H       1  LIG1        0.0278
     91 H          -9.2944  -11.2584   -0.9919 H       1  LIG1        0.0278
     92 H          -9.9049  -10.6334    0.5213 H       1  LIG1        0.0278
@<TRIPOS>BOND
     1    91    89    1
     2    50    47    1
     3     9     7    1
     4     8     7    1
     5    78    76    1
     6    77    87    1
     7    64    62    1
     8    63    62    1
     9    65    66    3
    10    66    60    1
    11    61    59    1
    12    59    60   ar
    13    59    56   ar
    14    60    57   ar
    15    36    32    1
    16    26    25   ar
    17    26    22   ar
    18    31    25    1
    19    31    30   ar
    20    31    32   ar
    21    25    24   ar
    22    16    15   ar
    23    16    12   ar
    24    39    38    1
    25    38    37    3
    26    24    29    1
    27    24    23   ar
    28    22    15    1
    29    22    23   ar
    30    15    14   ar
    31    23    28    1
    32     5     4   ar
    33     5     1   ar
    34    37    30    1
    35    30    35   ar
    36    32    33   ar
    37    19    14    1
    38    19    20    3
    39    14    13   ar
    40    13    12   ar
    41    13    18    1
    42    12     4    1
    43    28    27    3
    44     4     3   ar
    45    20    21    1
    46    34    35   ar
    47    34    33   ar
    48    34    41    1
    49    40    47    1
    50     2     3   ar
    51     2     1   ar
    52     2     7    1
    53     3    10    1
    54    18    17    3
    55     1     6    1
    56    11    10    1
    57    45    41   ar
    58    45    44   ar
    59    41    42   ar
    60    48    47    1
    61    42    46    1
    62    42    43   ar
    63    47    49    1
    64    44    56    1
    65    44    43   ar
    66    56    54   ar
    67    43    51    1
    68    51    52    3
    69    52    53    1
    70    57    69    1
    71    57    55   ar
    72    74    72    1
    73    69    72   ar
    74    69    67   ar
    75    75    67    1
    76    72    73   ar
    77    67    68   ar
    78    73    76    1
    79    73    70   ar
    80    68    70   ar
    81    68    71    1
    82    70    80    1
    83    85    81    1
    84    80    79   ar
    85    80    81   ar
    86    79    84   ar
    87    81    82   ar
    88    84    83   ar
    89    82    83   ar
    90    82    89    1
    91    83    86    1
    92    89    92    1
    93    89    90    1
    94    54    55   ar
    95    54    62    1
    96    55    58    1
