@<TRIPOS>MOLECULE
mol_data/noopt/geoms/mol2/12hg12hg-12hg-12hg-.out
 42 45 0 0 0
SMALL
GASTEIGER

@<TRIPOS>ATOM
      1 C           0.1763    1.8460    0.0000 C.ar    1  LIG1        0.1144
      2 C           1.5558    1.8460    0.0000 C.ar    1  LIG1        0.0769
      3 C           1.9706    3.2334    0.0000 C.ar    1  LIG1        0.0745
      4 C           0.8165    3.9895   -0.0001 C.ar    1  LIG1        0.1865
      5 O          -0.3030    3.1567   -0.0002 O.2     1  LIG1       -0.4567
      6 H          -0.7504    0.9343    0.0000 H       1  LIG1        0.1049
      7 N           2.3515    0.8179    0.0001 N.pl3   1  LIG1       -0.3547
      8 H           1.9098    0.0546   -0.4713 H       1  LIG1        0.1424
      9 H           3.2012    1.0540   -0.4713 H       1  LIG1        0.1424
     10 S           3.1997    3.6567    0.0000 S.3     1  LIG1       -0.1371
     11 H           3.2111    4.9666    0.0000 H       1  LIG1        0.1073
     12 C           0.5416    5.2601   -0.0001 C.ar    1  LIG1        0.1934
     13 C           1.2792    6.4258   -0.0001 C.ar    1  LIG1        0.0882
     14 C           0.3286    7.5182   -0.0001 C.ar    1  LIG1        0.0752
     15 C          -0.9274    6.9472   -0.0002 C.ar    1  LIG1        0.1875
     16 O          -0.8223    5.5559   -0.0003 O.2     1  LIG1       -0.4455
     17 N           2.5735    6.5485   -0.0000 N.pl3   1  LIG1       -0.3541
     18 H           2.9823    5.7671   -0.4714 H       1  LIG1        0.1425
     19 H           2.8283    7.3927   -0.4714 H       1  LIG1        0.1425
     20 S           0.6282    8.7832   -0.0001 S.3     1  LIG1       -0.1371
     21 H          -0.4727    9.4932   -0.0001 H       1  LIG1        0.1073
     22 C          -2.1481    7.3943   -0.0002 C.ar    1  LIG1        0.1935
     23 C          -2.7388    8.6409    0.0146 C.ar    1  LIG1        0.0882
     24 C          -4.1701    8.4218    0.0039 C.ar    1  LIG1        0.0752
     25 C          -4.3592    7.0552   -0.0168 C.ar    1  LIG1        0.1875
     26 O          -3.1273    6.4001   -0.0198 O.2     1  LIG1       -0.4455
     27 N          -2.1504    9.8000    0.0344 N.pl3   1  LIG1       -0.3541
     28 H          -1.2683    9.7340   -0.4318 H       1  LIG1        0.1425
     29 H          -2.7244   10.4731   -0.4319 H       1  LIG1        0.1425
     30 S          -5.0789    9.3513    0.0125 S.3     1  LIG1       -0.1371
     31 H          -6.2676    8.8006    0.0154 H       1  LIG1        0.1073
     32 C          -5.3897    6.2629   -0.0336 C.ar    1  LIG1        0.1924
     33 C          -6.7589    6.4305   -0.0463 C.ar    1  LIG1        0.0874
     34 C          -7.3391    5.1038   -0.0627 C.ar    1  LIG1        0.0640
     35 C          -6.2854    4.2132   -0.0590 C.ar    1  LIG1        0.1077
     36 O          -5.0731    4.9037   -0.0413 O.2     1  LIG1       -0.4568
     37 H          -6.1668    2.9186   -0.0680 H       1  LIG1        0.1041
     38 N          -7.4239    7.5476   -0.0442 N.pl3   1  LIG1       -0.3541
     39 H          -6.8931    8.2523   -0.5151 H       1  LIG1        0.1425
     40 H          -8.2963    7.4171   -0.5151 H       1  LIG1        0.1425
     41 S          -8.6105    4.8331   -0.0778 S.3     1  LIG1       -0.1378
     42 H          -8.7808    3.5342   -0.0829 H       1  LIG1        0.1073
@<TRIPOS>BOND
     1    40    38    1
     2    39    38    1
     3    19    17    1
     4    18    17    1
     5     9     7    1
     6     8     7    1
     7    29    27    1
     8    28    27    1
     9    42    41    1
    10    41    34    1
    11    37    35    1
    12    34    35   ar
    13    34    33   ar
    14    35    36   ar
    15    33    38    1
    16    33    32   ar
    17    36    32   ar
    18    32    25    1
    19    26    25   ar
    20    26    22   ar
    21    25    24   ar
    22    16    15   ar
    23    16    12   ar
    24    22    15    1
    25    22    23   ar
    26     5     4   ar
    27     5     1   ar
    28    15    14   ar
    29    21    20    1
    30    20    14    1
    31     4    12    1
    32     4     3   ar
    33    14    13   ar
    34    13    12   ar
    35    13    17    1
    36     2     1   ar
    37     2     3   ar
    38     2     7    1
    39     1     6    1
    40     3    10    1
    41    10    11    1
    42    24    30    1
    43    24    23   ar
    44    30    31    1
    45    23    27    1
