@<TRIPOS>MOLECULE
mol_data/noopt/geoms/mol2/12hg12hg-.out
 22 23 0 0 0
SMALL
GASTEIGER

@<TRIPOS>ATOM
      1 C           0.1763    1.8460    0.0000 C.ar    1  LIG1        0.1144
      2 C           1.5558    1.8460    0.0000 C.ar    1  LIG1        0.0769
      3 C           1.9706    3.2334    0.0000 C.ar    1  LIG1        0.0745
      4 C           0.8165    3.9895   -0.0001 C.ar    1  LIG1        0.1865
      5 O          -0.3030    3.1567   -0.0002 O.2     1  LIG1       -0.4567
      6 H          -0.7504    0.9343    0.0000 H       1  LIG1        0.1049
      7 N           2.3515    0.8179    0.0001 N.pl3   1  LIG1       -0.3547
      8 H           1.9098    0.0546   -0.4713 H       1  LIG1        0.1424
      9 H           3.2012    1.0540   -0.4713 H       1  LIG1        0.1424
     10 S           3.1997    3.6567    0.0000 S.3     1  LIG1       -0.1371
     11 H           3.2111    4.9666    0.0000 H       1  LIG1        0.1073
     12 C           0.5416    5.2601   -0.0001 C.ar    1  LIG1        0.1924
     13 C           1.2792    6.4258   -0.0001 C.ar    1  LIG1        0.0874
     14 C           0.3286    7.5182   -0.0001 C.ar    1  LIG1        0.0640
     15 C          -0.9274    6.9472   -0.0002 C.ar    1  LIG1        0.1077
     16 O          -0.8223    5.5559   -0.0003 O.2     1  LIG1       -0.4568
     17 H          -2.1481    7.3943   -0.0002 H       1  LIG1        0.1041
     18 N           2.5735    6.5485   -0.0000 N.pl3   1  LIG1       -0.3541
     19 H           2.9823    5.7671   -0.4714 H       1  LIG1        0.1425
     20 H           2.8283    7.3927   -0.4714 H       1  LIG1        0.1425
     21 S           0.6282    8.7832   -0.0001 S.3     1  LIG1       -0.1378
     22 H          -0.4727    9.4932   -0.0001 H       1  LIG1        0.1073
@<TRIPOS>BOND
     1    20    18    1
     2    19    18    1
     3     9     7    1
     4     8     7    1
     5    16    15   ar
     6    16    12   ar
     7     5     4   ar
     8     5     1   ar
     9    17    15    1
    10    15    14   ar
    11    12    13   ar
    12    12     4    1
    13    22    21    1
    14    21    14    1
    15    14    13   ar
    16    13    18    1
    17     4     3   ar
    18     1     6    1
    19     1     2   ar
    20    11    10    1
    21    10     3    1
    22     3     2   ar
    23     2     7    1
