@<TRIPOS>MOLECULE
mol_data/noopt/geoms/mol2/12hg12hg12hg.out
 32 34 0 0 0
SMALL
GASTEIGER

@<TRIPOS>ATOM
      1 C           0.1763    1.8460    0.0000 C.ar    1  LIG1        0.1144
      2 C           1.5558    1.8460    0.0000 C.ar    1  LIG1        0.0769
      3 C           1.9706    3.2334    0.0000 C.ar    1  LIG1        0.0745
      4 C           0.8165    3.9895   -0.0001 C.ar    1  LIG1        0.1865
      5 O          -0.3030    3.1567   -0.0002 O.2     1  LIG1       -0.4567
      6 H          -0.7504    0.9343    0.0000 H       1  LIG1        0.1049
      7 N           2.3515    0.8179    0.0001 N.pl3   1  LIG1       -0.3547
      8 H           1.9098    0.0546   -0.4713 H       1  LIG1        0.1424
      9 H           3.2012    1.0540   -0.4713 H       1  LIG1        0.1424
     10 S           3.1997    3.6567    0.0000 S.3     1  LIG1       -0.1371
     11 H           3.2111    4.9666    0.0000 H       1  LIG1        0.1073
     12 C           0.5416    5.2601   -0.0001 C.ar    1  LIG1        0.1934
     13 C           1.2791    6.4258    0.0147 C.ar    1  LIG1        0.0882
     14 C           0.3286    7.5182    0.0040 C.ar    1  LIG1        0.0752
     15 C          -0.9273    6.9473   -0.0167 C.ar    1  LIG1        0.1875
     16 O          -0.8221    5.5559   -0.0197 O.2     1  LIG1       -0.4455
     17 N           2.5732    6.5484    0.0345 N.pl3   1  LIG1       -0.3541
     18 H           2.9892    5.7677   -0.4317 H       1  LIG1        0.1425
     19 H           2.8351    7.3933   -0.4318 H       1  LIG1        0.1425
     20 S           0.6281    8.7831    0.0126 S.3     1  LIG1       -0.1371
     21 H          -0.4728    9.4931    0.0155 H       1  LIG1        0.1073
     22 C          -2.1478    7.3944   -0.0335 C.ar    1  LIG1        0.1924
     23 C          -2.7383    8.6411   -0.0462 C.ar    1  LIG1        0.0874
     24 C          -4.1697    8.4219   -0.0626 C.ar    1  LIG1        0.0640
     25 C          -4.3589    7.0552   -0.0589 C.ar    1  LIG1        0.1077
     26 O          -3.1271    6.4001   -0.0412 O.2     1  LIG1       -0.4568
     27 H          -5.3894    6.2628   -0.0679 H       1  LIG1        0.1041
     28 N          -2.1499    9.8003   -0.0441 N.pl3   1  LIG1       -0.3541
     29 H          -1.2706    9.7286   -0.5150 H       1  LIG1        0.1425
     30 H          -2.7267   10.4677   -0.5150 H       1  LIG1        0.1425
     31 S          -5.0783    9.3515   -0.0777 S.3     1  LIG1       -0.1378
     32 H          -6.2670    8.8009   -0.0828 H       1  LIG1        0.1073
@<TRIPOS>BOND
     1    30    28    1
     2    29    28    1
     3     9     7    1
     4     8     7    1
     5    19    17    1
     6    18    17    1
     7    32    31    1
     8    31    24    1
     9    27    25    1
    10    24    25   ar
    11    24    23   ar
    12    25    26   ar
    13    23    28    1
    14    23    22   ar
    15    26    22   ar
    16    22    15    1
    17    16    15   ar
    18    16    12   ar
    19    15    14   ar
    20     5     4   ar
    21     5     1   ar
    22    12     4    1
    23    12    13   ar
    24     4     3   ar
    25     1     6    1
    26     1     2   ar
    27    11    10    1
    28    10     3    1
    29     3     2   ar
    30     2     7    1
    31    14    20    1
    32    14    13   ar
    33    20    21    1
    34    13    17    1
