@<TRIPOS>MOLECULE
mol_data/noopt/geoms/mol2/12hg12hg12hg-12hg-.out
 42 45 0 0 0
SMALL
GASTEIGER

@<TRIPOS>ATOM
      1 C           0.1763    1.8460    0.0000 C.ar    1  LIG1        0.1144
      2 C           1.5558    1.8460    0.0000 C.ar    1  LIG1        0.0769
      3 C           1.9706    3.2334    0.0000 C.ar    1  LIG1        0.0745
      4 C           0.8165    3.9895   -0.0001 C.ar    1  LIG1        0.1865
      5 O          -0.3030    3.1567   -0.0002 O.2     1  LIG1       -0.4567
      6 H          -0.7504    0.9343    0.0000 H       1  LIG1        0.1049
      7 N           2.3515    0.8179    0.0001 N.pl3   1  LIG1       -0.3547
      8 H           1.9098    0.0546   -0.4713 H       1  LIG1        0.1424
      9 H           3.2012    1.0540   -0.4713 H       1  LIG1        0.1424
     10 S           3.1997    3.6567    0.0000 S.3     1  LIG1       -0.1371
     11 H           3.2111    4.9666    0.0000 H       1  LIG1        0.1073
     12 C           0.5416    5.2601   -0.0001 C.ar    1  LIG1        0.1934
     13 C           1.2791    6.4258    0.0147 C.ar    1  LIG1        0.0882
     14 C           0.3286    7.5182    0.0040 C.ar    1  LIG1        0.0752
     15 C          -0.9273    6.9473   -0.0167 C.ar    1  LIG1        0.1875
     16 O          -0.8221    5.5559   -0.0197 O.2     1  LIG1       -0.4455
     17 N           2.5732    6.5484    0.0345 N.pl3   1  LIG1       -0.3541
     18 H           2.9892    5.7677   -0.4317 H       1  LIG1        0.1425
     19 H           2.8351    7.3933   -0.4318 H       1  LIG1        0.1425
     20 S           0.6281    8.7831    0.0126 S.3     1  LIG1       -0.1371
     21 H          -0.4728    9.4931    0.0155 H       1  LIG1        0.1073
     22 C          -2.1478    7.3944   -0.0335 C.ar    1  LIG1        0.1935
     23 C          -2.7386    8.6410   -0.0314 C.ar    1  LIG1        0.0882
     24 C          -4.1697    8.4219   -0.0585 C.ar    1  LIG1        0.0752
     25 C          -4.3586    7.0553   -0.0754 C.ar    1  LIG1        0.1875
     26 O          -3.1268    6.4002   -0.0606 O.2     1  LIG1       -0.4455
     27 N          -2.1504    9.8002   -0.0096 N.pl3   1  LIG1       -0.3541
     28 H          -1.2679    9.7350   -0.4753 H       1  LIG1        0.1425
     29 H          -2.7241   10.4739   -0.4754 H       1  LIG1        0.1425
     30 S          -5.0785    9.3514   -0.0651 S.3     1  LIG1       -0.1371
     31 H          -6.2671    8.8008   -0.0673 H       1  LIG1        0.1073
     32 C          -5.3889    6.2629   -0.1012 C.ar    1  LIG1        0.1924
     33 C          -6.7581    6.4304   -0.1207 C.ar    1  LIG1        0.0874
     34 C          -7.3380    5.1038   -0.1458 C.ar    1  LIG1        0.0640
     35 C          -6.2842    4.2132   -0.1401 C.ar    1  LIG1        0.1077
     36 O          -5.0721    4.9038   -0.1128 O.2     1  LIG1       -0.4568
     37 H          -6.1654    2.9187   -0.1539 H       1  LIG1        0.1041
     38 N          -7.4232    7.5474   -0.1175 N.pl3   1  LIG1       -0.3541
     39 H          -6.8927    8.2525   -0.5881 H       1  LIG1        0.1425
     40 H          -8.2958    7.4171   -0.5882 H       1  LIG1        0.1425
     41 S          -8.6092    4.8329   -0.1691 S.3     1  LIG1       -0.1378
     42 H          -8.7794    3.5340   -0.1769 H       1  LIG1        0.1073
@<TRIPOS>BOND
     1    40    38    1
     2    39    38    1
     3    29    27    1
     4    28    27    1
     5     9     7    1
     6     8     7    1
     7    19    17    1
     8    18    17    1
     9    42    41    1
    10    41    34    1
    11    37    35    1
    12    34    35   ar
    13    34    33   ar
    14    35    36   ar
    15    33    38    1
    16    33    32   ar
    17    36    32   ar
    18    32    25    1
    19    25    26   ar
    20    25    24   ar
    21    31    30    1
    22    30    24    1
    23    26    22   ar
    24    24    23   ar
    25    22    23   ar
    26    22    15    1
    27    23    27    1
    28    16    15   ar
    29    16    12   ar
    30    15    14   ar
    31     5     4   ar
    32     5     1   ar
    33     4    12    1
    34     4     3   ar
    35    12    13   ar
    36     2     3   ar
    37     2     1   ar
    38     2     7    1
    39     3    10    1
    40     6     1    1
    41    10    11    1
    42    14    20    1
    43    14    13   ar
    44    20    21    1
    45    13    17    1
