@<TRIPOS>MOLECULE
mol_data/noopt/geoms/mol2/12hg12hg-12hg12hg.out
 42 45 0 0 0
SMALL
GASTEIGER

@<TRIPOS>ATOM
      1 C           0.1763    1.8460    0.0000 C.ar    1  LIG1        0.1144
      2 C           1.5558    1.8460    0.0000 C.ar    1  LIG1        0.0769
      3 C           1.9706    3.2334    0.0000 C.ar    1  LIG1        0.0745
      4 C           0.8165    3.9895   -0.0001 C.ar    1  LIG1        0.1865
      5 O          -0.3030    3.1567   -0.0002 O.2     1  LIG1       -0.4567
      6 H          -0.7504    0.9343    0.0000 H       1  LIG1        0.1049
      7 N           2.3515    0.8179    0.0001 N.pl3   1  LIG1       -0.3547
      8 H           1.9098    0.0546   -0.4713 H       1  LIG1        0.1424
      9 H           3.2012    1.0540   -0.4713 H       1  LIG1        0.1424
     10 S           3.1997    3.6567    0.0000 S.3     1  LIG1       -0.1371
     11 H           3.2111    4.9666    0.0000 H       1  LIG1        0.1073
     12 C           0.5416    5.2601   -0.0001 C.ar    1  LIG1        0.1934
     13 C           1.2792    6.4258   -0.0001 C.ar    1  LIG1        0.0882
     14 C           0.3286    7.5182   -0.0001 C.ar    1  LIG1        0.0752
     15 C          -0.9274    6.9472   -0.0002 C.ar    1  LIG1        0.1875
     16 O          -0.8223    5.5559   -0.0003 O.2     1  LIG1       -0.4455
     17 N           2.5735    6.5485   -0.0000 N.pl3   1  LIG1       -0.3541
     18 H           2.9823    5.7671   -0.4714 H       1  LIG1        0.1425
     19 H           2.8283    7.3927   -0.4714 H       1  LIG1        0.1425
     20 S           0.6282    8.7832   -0.0001 S.3     1  LIG1       -0.1371
     21 H          -0.4727    9.4932   -0.0001 H       1  LIG1        0.1073
     22 C          -2.1481    7.3943   -0.0002 C.ar    1  LIG1        0.1935
     23 C          -2.7387    8.6410   -0.0002 C.ar    1  LIG1        0.0882
     24 C          -4.1701    8.4218   -0.0002 C.ar    1  LIG1        0.0752
     25 C          -4.3593    7.0551   -0.0003 C.ar    1  LIG1        0.1875
     26 O          -3.1273    6.4000   -0.0004 O.2     1  LIG1       -0.4455
     27 N          -2.1503    9.8002   -0.0001 N.pl3   1  LIG1       -0.3541
     28 H          -1.2714    9.7279   -0.4715 H       1  LIG1        0.1425
     29 H          -2.7275   10.4670   -0.4715 H       1  LIG1        0.1425
     30 S          -5.0789    9.3513   -0.0002 S.3     1  LIG1       -0.1371
     31 H          -6.2676    8.8007   -0.0002 H       1  LIG1        0.1073
     32 C          -5.3898    6.2627   -0.0003 C.ar    1  LIG1        0.1924
     33 C          -6.7590    6.4301    0.0145 C.ar    1  LIG1        0.0874
     34 C          -7.3393    5.1034    0.0038 C.ar    1  LIG1        0.0640
     35 C          -6.2856    4.2129   -0.0169 C.ar    1  LIG1        0.1077
     36 O          -5.0733    4.9036   -0.0199 O.2     1  LIG1       -0.4568
     37 H          -6.1671    2.9184   -0.0337 H       1  LIG1        0.1041
     38 N          -7.4239    7.5470    0.0343 N.pl3   1  LIG1       -0.3541
     39 H          -6.8965    8.2572   -0.4319 H       1  LIG1        0.1425
     40 H          -8.2996    7.4220   -0.4320 H       1  LIG1        0.1425
     41 S          -8.6106    4.8324    0.0124 S.3     1  LIG1       -0.1378
     42 H          -8.7809    3.5335    0.0153 H       1  LIG1        0.1073
@<TRIPOS>BOND
     1    29    27    1
     2    28    27    1
     3    19    17    1
     4    18    17    1
     5     9     7    1
     6     8     7    1
     7    40    38    1
     8    39    38    1
     9    37    35    1
    10    36    35   ar
    11    36    32   ar
    12    35    34   ar
    13    26    25   ar
    14    26    22   ar
    15    25    32    1
    16    25    24   ar
    17    16    15   ar
    18    16    12   ar
    19    32    33   ar
    20    24    23   ar
    21    24    30    1
    22    23    22   ar
    23    23    27    1
    24    22    15    1
    25    30    31    1
    26    15    14   ar
    27     5     4   ar
    28     5     1   ar
    29    20    21    1
    30    20    14    1
    31    14    13   ar
    32    13    12   ar
    33    13    17    1
    34    12     4    1
    35     4     3   ar
    36     1     6    1
    37     1     2   ar
    38    11    10    1
    39    10     3    1
    40     3     2   ar
    41     2     7    1
    42    34    41    1
    43    34    33   ar
    44    41    42    1
    45    33    38    1
