@<TRIPOS>MOLECULE
mol_data/noopt/geoms/mol2/12hg12hg12hg12hg-.out
 42 45 0 0 0
SMALL
GASTEIGER

@<TRIPOS>ATOM
      1 C           0.1763    1.8460    0.0000 C.ar    1  LIG1        0.1144
      2 C           1.5558    1.8460    0.0000 C.ar    1  LIG1        0.0769
      3 C           1.9706    3.2334    0.0000 C.ar    1  LIG1        0.0745
      4 C           0.8165    3.9895   -0.0001 C.ar    1  LIG1        0.1865
      5 O          -0.3030    3.1567   -0.0002 O.2     1  LIG1       -0.4567
      6 H          -0.7504    0.9343    0.0000 H       1  LIG1        0.1049
      7 N           2.3515    0.8179    0.0001 N.pl3   1  LIG1       -0.3547
      8 H           1.9098    0.0546   -0.4713 H       1  LIG1        0.1424
      9 H           3.2012    1.0540   -0.4713 H       1  LIG1        0.1424
     10 S           3.1997    3.6567    0.0000 S.3     1  LIG1       -0.1371
     11 H           3.2111    4.9666    0.0000 H       1  LIG1        0.1073
     12 C           0.5416    5.2601   -0.0001 C.ar    1  LIG1        0.1934
     13 C           1.2791    6.4258    0.0147 C.ar    1  LIG1        0.0882
     14 C           0.3286    7.5182    0.0040 C.ar    1  LIG1        0.0752
     15 C          -0.9273    6.9473   -0.0167 C.ar    1  LIG1        0.1875
     16 O          -0.8221    5.5559   -0.0197 O.2     1  LIG1       -0.4455
     17 N           2.5732    6.5484    0.0345 N.pl3   1  LIG1       -0.3541
     18 H           2.9892    5.7677   -0.4317 H       1  LIG1        0.1425
     19 H           2.8351    7.3933   -0.4318 H       1  LIG1        0.1425
     20 S           0.6281    8.7831    0.0126 S.3     1  LIG1       -0.1371
     21 H          -0.4728    9.4931    0.0155 H       1  LIG1        0.1073
     22 C          -2.1478    7.3944   -0.0335 C.ar    1  LIG1        0.1935
     23 C          -2.7383    8.6411   -0.0462 C.ar    1  LIG1        0.0882
     24 C          -4.1697    8.4219   -0.0626 C.ar    1  LIG1        0.0752
     25 C          -4.3589    7.0552   -0.0589 C.ar    1  LIG1        0.1875
     26 O          -3.1271    6.4001   -0.0412 O.2     1  LIG1       -0.4455
     27 N          -2.1499    9.8003   -0.0441 N.pl3   1  LIG1       -0.3541
     28 H          -1.2706    9.7286   -0.5150 H       1  LIG1        0.1425
     29 H          -2.7267   10.4677   -0.5150 H       1  LIG1        0.1425
     30 S          -5.0783    9.3515   -0.0777 S.3     1  LIG1       -0.1371
     31 H          -6.2670    8.8009   -0.0828 H       1  LIG1        0.1073
     32 C          -5.3894    6.2628   -0.0679 C.ar    1  LIG1        0.1924
     33 C          -6.7587    6.4303   -0.0747 C.ar    1  LIG1        0.0874
     34 C          -7.3389    5.1036   -0.0834 C.ar    1  LIG1        0.0640
     35 C          -6.2851    4.2130   -0.0815 C.ar    1  LIG1        0.1077
     36 O          -5.0728    4.9036   -0.0721 O.2     1  LIG1       -0.4568
     37 H          -6.1665    2.9184   -0.0863 H       1  LIG1        0.1041
     38 N          -7.4237    7.5474   -0.0735 N.pl3   1  LIG1       -0.3541
     39 H          -6.8927    8.2518   -0.5446 H       1  LIG1        0.1425
     40 H          -8.2959    7.4166   -0.5447 H       1  LIG1        0.1425
     41 S          -8.6103    4.8327   -0.0916 S.3     1  LIG1       -0.1378
     42 H          -8.7806    3.5338   -0.0943 H       1  LIG1        0.1073
@<TRIPOS>BOND
     1    40    38    1
     2    39    38    1
     3    29    27    1
     4    28    27    1
     5     9     7    1
     6     8     7    1
     7    19    17    1
     8    18    17    1
     9    42    41    1
    10    41    34    1
    11    37    35    1
    12    34    35   ar
    13    34    33   ar
    14    31    30    1
    15    35    36   ar
    16    30    24    1
    17    33    38    1
    18    33    32   ar
    19    36    32   ar
    20    32    25    1
    21    24    25   ar
    22    24    23   ar
    23    25    26   ar
    24    23    27    1
    25    23    22   ar
    26    26    22   ar
    27    22    15    1
    28    16    15   ar
    29    16    12   ar
    30    15    14   ar
    31     5     4   ar
    32     5     1   ar
    33     4    12    1
    34     4     3   ar
    35    12    13   ar
    36     2     1   ar
    37     2     3   ar
    38     2     7    1
    39     1     6    1
    40     3    10    1
    41    10    11    1
    42    14    20    1
    43    14    13   ar
    44    20    21    1
    45    13    17    1
