@<TRIPOS>MOLECULE
mol_data/noopt/geoms/mol2/12hh12hh-4hh12hh.out
 49 52 0 0 0
SMALL
GASTEIGER

@<TRIPOS>ATOM
      1 C           0.1763    1.8460    0.0000 C.ar    1  LIG1        0.1152
      2 C           1.5558    1.8460    0.0000 C.ar    1  LIG1        0.0846
      3 C           1.9706    3.2334    0.0000 C.ar    1  LIG1        0.0951
      4 C           0.8165    3.9895   -0.0001 C.ar    1  LIG1        0.1939
      5 O          -0.3030    3.1567   -0.0002 O.2     1  LIG1       -0.4560
      6 H          -0.7504    0.9343    0.0000 H       1  LIG1        0.1049
      7 N           2.3515    0.8179    0.0001 N.pl3   1  LIG1       -0.3541
      8 H           1.9098    0.0546   -0.4713 H       1  LIG1        0.1425
      9 H           3.2012    1.0540   -0.4713 H       1  LIG1        0.1425
     10 N           3.1998    3.6567   -0.0000 N.pl3   1  LIG1       -0.3535
     11 H           3.7808    2.9932   -0.4714 H       1  LIG1        0.1425
     12 H           3.2491    4.5372   -0.4714 H       1  LIG1        0.1425
     13 C           0.5416    5.2601   -0.0001 C.ar    1  LIG1        0.1948
     14 C          -0.6119    6.0167   -0.0001 C.ar    1  LIG1        0.0958
     15 C          -0.1979    7.4043   -0.0001 C.ar    1  LIG1        0.0928
     16 C           1.1818    7.4036   -0.0002 C.ar    1  LIG1        0.1600
     17 O           1.6612    6.0932   -0.0003 O.2     1  LIG1       -0.4478
     18 N          -1.8411    5.5934   -0.0000 N.pl3   1  LIG1       -0.3535
     19 H          -2.4221    6.2568   -0.4714 H       1  LIG1        0.1425
     20 H          -1.8904    4.7129   -0.4715 H       1  LIG1        0.1425
     21 N          -0.9936    8.4324   -0.0001 N.pl3   1  LIG1       -0.3536
     22 H          -0.5519    9.1957   -0.4715 H       1  LIG1        0.1425
     23 H          -1.8433    8.1962   -0.4716 H       1  LIG1        0.1425
     24 C           3.4666    7.9365    0.0006 C.ar    1  LIG1        0.0362
     25 C           4.4321    8.9616    0.0022 C.ar    1  LIG1       -0.0279
     26 C           2.1085    8.3153   -0.0002 C.ar    1  LIG1        0.0415
     27 C           4.0641   10.3052    0.0023 C.ar    1  LIG1        0.0415
     28 H           5.4858    8.6915    0.0030 H       1  LIG1        0.0644
     29 C           1.7405    9.6564   -0.0000 C.ar    1  LIG1       -0.0279
     30 C           2.7146   10.6603    0.0011 C.ar    1  LIG1        0.0362
     31 H           0.6867    9.9230   -0.0005 H       1  LIG1        0.0644
     32 N           3.8714    6.7011    0.0003 N.pl3   1  LIG1       -0.3574
     33 H           3.1992    6.1302   -0.4712 H       1  LIG1        0.1423
     34 H           4.7510    6.6387   -0.4712 H       1  LIG1        0.1423
     35 N           2.3646   11.9123    0.0014 N.pl3   1  LIG1       -0.3574
     36 H           3.0613   12.4532   -0.4699 H       1  LIG1        0.1423
     37 H           1.4886   12.0136   -0.4700 H       1  LIG1        0.1423
     38 C           4.9819   11.2258    0.0036 C.ar    1  LIG1        0.1590
     39 C           6.3613   11.2392    0.0046 C.ar    1  LIG1        0.0920
     40 C           6.7627   12.6306    0.0059 C.ar    1  LIG1        0.0845
     41 C           5.6013   13.3755    0.0055 C.ar    1  LIG1        0.1150
     42 O           4.4899   12.5318    0.0040 O.2     1  LIG1       -0.4591
     43 H           5.3141   14.6433    0.0062 H       1  LIG1        0.1049
     44 N           7.1670   10.2189    0.0046 N.pl3   1  LIG1       -0.3536
     45 H           6.7327    9.4514   -0.4669 H       1  LIG1        0.1425
     46 H           8.0143   10.4633   -0.4669 H       1  LIG1        0.1425
     47 N           7.9877   13.0658    0.0071 N.pl3   1  LIG1       -0.3541
     48 H           8.5755   12.4081   -0.4640 H       1  LIG1        0.1425
     49 H           8.0289   13.9469   -0.4640 H       1  LIG1        0.1425
@<TRIPOS>BOND
     1    23    21    1
     2    22    21    1
     3    20    18    1
     4    12    10    1
     5    19    18    1
     6    11    10    1
     7     9     7    1
     8     8     7    1
     9    34    32    1
    10    33    32    1
    11    37    35    1
    12    36    35    1
    13    46    44    1
    14    45    44    1
    15    49    47    1
    16    48    47    1
    17    31    29    1
    18    17    16   ar
    19    17    13   ar
    20     5     4   ar
    21     5     1   ar
    22    16    26    1
    23    16    15   ar
    24    26    29   ar
    25    26    24   ar
    26    14    15   ar
    27    14    13   ar
    28    14    18    1
    29    21    15    1
    30    13     4    1
    31     4     3   ar
    32    29    30   ar
    33     1     2   ar
    34     1     6    1
    35     2     3   ar
    36     2     7    1
    37     3    10    1
    38    32    24    1
    39    24    25   ar
    40    30    35    1
    41    30    27   ar
    42    25    27   ar
    43    25    28    1
    44    27    38    1
    45    38    42   ar
    46    38    39   ar
    47    42    41   ar
    48    44    39    1
    49    39    40   ar
    50    41    40   ar
    51    41    43    1
    52    40    47    1
