@<TRIPOS>MOLECULE
mol_data/noopt/geoms/mol2/12hh12hh12hh.out
 35 37 0 0 0
SMALL
GASTEIGER

@<TRIPOS>ATOM
      1 C           0.1763    1.8460    0.0000 C.ar    1  LIG1        0.1152
      2 C           1.5558    1.8460    0.0000 C.ar    1  LIG1        0.0846
      3 C           1.9706    3.2334    0.0000 C.ar    1  LIG1        0.0951
      4 C           0.8165    3.9895   -0.0001 C.ar    1  LIG1        0.1939
      5 O          -0.3030    3.1567   -0.0002 O.2     1  LIG1       -0.4560
      6 H          -0.7504    0.9343    0.0000 H       1  LIG1        0.1049
      7 N           2.3515    0.8179    0.0001 N.pl3   1  LIG1       -0.3541
      8 H           1.9098    0.0546   -0.4713 H       1  LIG1        0.1425
      9 H           3.2012    1.0540   -0.4713 H       1  LIG1        0.1425
     10 N           3.1998    3.6567   -0.0000 N.pl3   1  LIG1       -0.3535
     11 H           3.7808    2.9932   -0.4714 H       1  LIG1        0.1425
     12 H           3.2491    4.5372   -0.4714 H       1  LIG1        0.1425
     13 C           0.5416    5.2601   -0.0001 C.ar    1  LIG1        0.1950
     14 C           1.2792    6.4258   -0.0001 C.ar    1  LIG1        0.0959
     15 C           0.3286    7.5182   -0.0001 C.ar    1  LIG1        0.0959
     16 C          -0.9274    6.9472   -0.0002 C.ar    1  LIG1        0.1950
     17 O          -0.8223    5.5559   -0.0003 O.2     1  LIG1       -0.4447
     18 N           2.5735    6.5485   -0.0000 N.pl3   1  LIG1       -0.3535
     19 H           2.9823    5.7671   -0.4714 H       1  LIG1        0.1425
     20 H           2.8283    7.3927   -0.4714 H       1  LIG1        0.1425
     21 N           0.6282    8.7832   -0.0001 N.pl3   1  LIG1       -0.3535
     22 H           1.4995    8.9194   -0.4715 H       1  LIG1        0.1425
     23 H          -0.0895    9.2957   -0.4715 H       1  LIG1        0.1425
     24 C          -2.1481    7.3943   -0.0002 C.ar    1  LIG1        0.1939
     25 C          -2.7387    8.6410   -0.0002 C.ar    1  LIG1        0.0951
     26 C          -4.1701    8.4218   -0.0002 C.ar    1  LIG1        0.0846
     27 C          -4.3593    7.0551   -0.0003 C.ar    1  LIG1        0.1152
     28 O          -3.1273    6.4000   -0.0004 O.2     1  LIG1       -0.4560
     29 H          -5.3898    6.2627   -0.0003 H       1  LIG1        0.1049
     30 N          -2.1503    9.8002   -0.0001 N.pl3   1  LIG1       -0.3535
     31 H          -1.2714    9.7279   -0.4715 H       1  LIG1        0.1425
     32 H          -2.7275   10.4670   -0.4715 H       1  LIG1        0.1425
     33 N          -5.0790    9.3514   -0.0002 N.pl3   1  LIG1       -0.3541
     34 H          -4.7281   10.1605   -0.4716 H       1  LIG1        0.1425
     35 H          -5.8958    9.0190   -0.4716 H       1  LIG1        0.1425
@<TRIPOS>BOND
     1    35    33    1
     2    34    33    1
     3    23    21    1
     4    32    30    1
     5    22    21    1
     6    31    30    1
     7    12    10    1
     8    20    18    1
     9    11    10    1
    10    19    18    1
    11     9     7    1
    12     8     7    1
    13    28    27   ar
    14    28    24   ar
    15    27    29    1
    16    27    26   ar
    17    17    16   ar
    18    17    13   ar
    19    33    26    1
    20    26    25   ar
    21    16    24    1
    22    16    15   ar
    23    25    24   ar
    24    25    30    1
    25     5     4   ar
    26     5     1   ar
    27    15    21    1
    28    15    14   ar
    29    14    13   ar
    30    14    18    1
    31    13     4    1
    32     4     3   ar
    33     1     6    1
    34     1     2   ar
    35    10     3    1
    36     3     2   ar
    37     2     7    1
