@<TRIPOS>MOLECULE
mol_data/noopt/geoms/mol2/12hh12hh-12hh-12hh.out
 46 49 0 0 0
SMALL
GASTEIGER

@<TRIPOS>ATOM
      1 C           0.1763    1.8460    0.0000 C.ar    1  LIG1        0.1152
      2 C           1.5558    1.8460    0.0000 C.ar    1  LIG1        0.0846
      3 C           1.9706    3.2334    0.0000 C.ar    1  LIG1        0.0951
      4 C           0.8165    3.9895   -0.0001 C.ar    1  LIG1        0.1939
      5 O          -0.3030    3.1567   -0.0002 O.2     1  LIG1       -0.4560
      6 H          -0.7504    0.9343    0.0000 H       1  LIG1        0.1049
      7 N           2.3515    0.8179    0.0001 N.pl3   1  LIG1       -0.3541
      8 H           1.9098    0.0546   -0.4713 H       1  LIG1        0.1425
      9 H           3.2012    1.0540   -0.4713 H       1  LIG1        0.1425
     10 N           3.1998    3.6567   -0.0000 N.pl3   1  LIG1       -0.3535
     11 H           3.7808    2.9932   -0.4714 H       1  LIG1        0.1425
     12 H           3.2491    4.5372   -0.4714 H       1  LIG1        0.1425
     13 C           0.5416    5.2601   -0.0001 C.ar    1  LIG1        0.1950
     14 C          -0.6119    6.0167   -0.0001 C.ar    1  LIG1        0.0959
     15 C          -0.1979    7.4043   -0.0001 C.ar    1  LIG1        0.0959
     16 C           1.1818    7.4036   -0.0002 C.ar    1  LIG1        0.1950
     17 O           1.6612    6.0932   -0.0003 O.2     1  LIG1       -0.4447
     18 N          -1.8411    5.5934   -0.0000 N.pl3   1  LIG1       -0.3535
     19 H          -2.4221    6.2568   -0.4714 H       1  LIG1        0.1425
     20 H          -1.8904    4.7129   -0.4715 H       1  LIG1        0.1425
     21 N          -0.9936    8.4324   -0.0001 N.pl3   1  LIG1       -0.3535
     22 H          -0.5519    9.1957   -0.4715 H       1  LIG1        0.1425
     23 H          -1.8433    8.1962   -0.4716 H       1  LIG1        0.1425
     24 C           2.1085    8.3153   -0.0002 C.ar    1  LIG1        0.1950
     25 C           2.1310    9.6946   -0.0002 C.ar    1  LIG1        0.0959
     26 C           3.5250   10.0867   -0.0001 C.ar    1  LIG1        0.0959
     27 C           4.2622    8.9204   -0.0002 C.ar    1  LIG1        0.1950
     28 O           3.4112    7.8147   -0.0003 O.2     1  LIG1       -0.4447
     29 N           1.1161   10.5070   -0.0001 N.pl3   1  LIG1       -0.3535
     30 H           1.3661   11.3527   -0.4715 H       1  LIG1        0.1425
     31 H           0.3456   10.0778   -0.4715 H       1  LIG1        0.1425
     32 N           3.9683   11.3088   -0.0001 N.pl3   1  LIG1       -0.3535
     33 H           4.8495   11.3437   -0.4715 H       1  LIG1        0.1425
     34 H           3.3145   11.9006   -0.4715 H       1  LIG1        0.1425
     35 C           5.5281    8.6248   -0.0002 C.ar    1  LIG1        0.1939
     36 C           6.2658    7.4591   -0.0001 C.ar    1  LIG1        0.0951
     37 C           7.6600    7.8504   -0.0001 C.ar    1  LIG1        0.0846
     38 C           7.6818    9.2300   -0.0002 C.ar    1  LIG1        0.1152
     39 O           6.3794    9.7307   -0.0003 O.2     1  LIG1       -0.4560
     40 H           8.6085   10.1417   -0.0002 H       1  LIG1        0.1049
     41 N           5.8225    6.2370   -0.0000 N.pl3   1  LIG1       -0.3535
     42 H           4.9412    6.2021   -0.4714 H       1  LIG1        0.1425
     43 H           6.4763    5.6452   -0.4715 H       1  LIG1        0.1425
     44 N           8.6749    7.0381   -0.0001 N.pl3   1  LIG1       -0.3541
     45 H           8.4249    6.1923   -0.4715 H       1  LIG1        0.1425
     46 H           9.4453    7.4672   -0.4715 H       1  LIG1        0.1425
@<TRIPOS>BOND
     1    23    21    1
     2    34    32    1
     3    22    21    1
     4    33    32    1
     5    31    29    1
     6    46    44    1
     7    30    29    1
     8    20    18    1
     9    45    44    1
    10    43    41    1
    11    12    10    1
    12    19    18    1
    13    42    41    1
    14    11    10    1
    15     9     7    1
    16     8     7    1
    17    39    38   ar
    18    39    35   ar
    19    28    27   ar
    20    28    24   ar
    21    17    16   ar
    22    17    13   ar
    23    38    40    1
    24    38    37   ar
    25     5     4   ar
    26     5     1   ar
    27    27    35    1
    28    27    26   ar
    29    16    24    1
    30    16    15   ar
    31    35    36   ar
    32    25    24   ar
    33    25    26   ar
    34    25    29    1
    35    36    37   ar
    36    36    41    1
    37    14    15   ar
    38    14    13   ar
    39    14    18    1
    40    26    32    1
    41    21    15    1
    42     4    13    1
    43     4     3   ar
    44    37    44    1
    45     1     6    1
    46     1     2   ar
    47    10     3    1
    48     3     2   ar
    49     2     7    1
