@<TRIPOS>MOLECULE
mol_data/noopt/geoms/mol2/12hh12hh-12hh.out
 35 37 0 0 0
SMALL
GASTEIGER

@<TRIPOS>ATOM
      1 C           0.1763    1.8460    0.0000 C.ar    1  LIG1        0.1152
      2 C           1.5558    1.8460    0.0000 C.ar    1  LIG1        0.0846
      3 C           1.9706    3.2334    0.0000 C.ar    1  LIG1        0.0951
      4 C           0.8165    3.9895   -0.0001 C.ar    1  LIG1        0.1939
      5 O          -0.3030    3.1567   -0.0002 O.2     1  LIG1       -0.4560
      6 H          -0.7504    0.9343    0.0000 H       1  LIG1        0.1049
      7 N           2.3515    0.8179    0.0001 N.pl3   1  LIG1       -0.3541
      8 H           1.9098    0.0546   -0.4713 H       1  LIG1        0.1425
      9 H           3.2012    1.0540   -0.4713 H       1  LIG1        0.1425
     10 N           3.1998    3.6567   -0.0000 N.pl3   1  LIG1       -0.3535
     11 H           3.7808    2.9932   -0.4714 H       1  LIG1        0.1425
     12 H           3.2491    4.5372   -0.4714 H       1  LIG1        0.1425
     13 C           0.5416    5.2601   -0.0001 C.ar    1  LIG1        0.1950
     14 C          -0.6119    6.0167   -0.0001 C.ar    1  LIG1        0.0959
     15 C          -0.1979    7.4043   -0.0001 C.ar    1  LIG1        0.0959
     16 C           1.1818    7.4036   -0.0002 C.ar    1  LIG1        0.1950
     17 O           1.6612    6.0932   -0.0003 O.2     1  LIG1       -0.4447
     18 N          -1.8411    5.5934   -0.0000 N.pl3   1  LIG1       -0.3535
     19 H          -2.4221    6.2568   -0.4714 H       1  LIG1        0.1425
     20 H          -1.8904    4.7129   -0.4715 H       1  LIG1        0.1425
     21 N          -0.9936    8.4324   -0.0001 N.pl3   1  LIG1       -0.3535
     22 H          -0.5519    9.1957   -0.4715 H       1  LIG1        0.1425
     23 H          -1.8433    8.1962   -0.4716 H       1  LIG1        0.1425
     24 C           2.1085    8.3153   -0.0002 C.ar    1  LIG1        0.1939
     25 C           3.4880    8.3153   -0.0001 C.ar    1  LIG1        0.0951
     26 C           3.9028    9.7027   -0.0001 C.ar    1  LIG1        0.0846
     27 C           2.7487   10.4588   -0.0002 C.ar    1  LIG1        0.1152
     28 O           1.6292    9.6260   -0.0003 O.2     1  LIG1       -0.4560
     29 H           2.4738   11.7294   -0.0002 H       1  LIG1        0.1049
     30 N           4.2837    7.2872   -0.0000 N.pl3   1  LIG1       -0.3535
     31 H           3.8420    6.5239   -0.4714 H       1  LIG1        0.1425
     32 H           5.1334    7.5233   -0.4715 H       1  LIG1        0.1425
     33 N           5.1320   10.1260   -0.0001 N.pl3   1  LIG1       -0.3541
     34 H           5.7130    9.4625   -0.4715 H       1  LIG1        0.1425
     35 H           5.1813   11.0065   -0.4715 H       1  LIG1        0.1425
@<TRIPOS>BOND
     1    23    21    1
     2    22    21    1
     3    35    33    1
     4    34    33    1
     5    20    18    1
     6    32    30    1
     7    12    10    1
     8    19    18    1
     9    31    30    1
    10    11    10    1
    11     9     7    1
    12     8     7    1
    13    28    27   ar
    14    28    24   ar
    15    17    16   ar
    16    17    13   ar
    17    27    29    1
    18    27    26   ar
    19     5     4   ar
    20     5     1   ar
    21    16    24    1
    22    16    15   ar
    23    24    25   ar
    24    25    26   ar
    25    25    30    1
    26    14    15   ar
    27    14    13   ar
    28    14    18    1
    29    21    15    1
    30    26    33    1
    31    13     4    1
    32     4     3   ar
    33     1     6    1
    34     1     2   ar
    35    10     3    1
    36     3     2   ar
    37     2     7    1
