@<TRIPOS>MOLECULE
mol_data/noopt/geoms/mol2/12hh4ef-13fa-13il-.out
 50 53 0 0 0
SMALL
GASTEIGER

@<TRIPOS>ATOM
      1 C           0.1763    1.8460    0.0000 C.ar    1  LIG1        0.1150
      2 C           1.5558    1.8460    0.0000 C.ar    1  LIG1        0.0845
      3 C           1.9706    3.2334    0.0000 C.ar    1  LIG1        0.0920
      4 C           0.8165    3.9895   -0.0001 C.ar    1  LIG1        0.1585
      5 O          -0.3030    3.1567   -0.0002 O.2     1  LIG1       -0.4591
      6 H          -0.7504    0.9343    0.0000 H       1  LIG1        0.1049
      7 N           2.3515    0.8179    0.0001 N.pl3   1  LIG1       -0.3541
      8 H           1.9098    0.0546   -0.4713 H       1  LIG1        0.1425
      9 H           3.2012    1.0540   -0.4713 H       1  LIG1        0.1425
     10 N           3.1998    3.6567   -0.0000 N.pl3   1  LIG1       -0.3536
     11 H           3.7808    2.9932   -0.4714 H       1  LIG1        0.1425
     12 H           3.2491    4.5372   -0.4714 H       1  LIG1        0.1425
     13 C           1.5877    6.2051    0.0220 C.ar    1  LIG1        0.0362
     14 C           1.2377    7.5692    0.0226 C.ar    1  LIG1       -0.0329
     15 C           0.5416    5.2600   -0.0001 C.ar    1  LIG1        0.0380
     16 C          -0.0943    7.9766    0.0015 C.ar    1  LIG1        0.0445
     17 H           2.0291    8.3151    0.0396 H       1  LIG1        0.0638
     18 C          -0.7883    5.6663   -0.0212 C.ar    1  LIG1       -0.0076
     19 C          -1.1157    7.0262   -0.0206 C.ar    1  LIG1        0.1268
     20 H          -1.5769    4.9183   -0.0379 H       1  LIG1        0.0662
     21 C           2.8479    5.8865    0.0420 C.1     1  LIG1       -0.0689
     22 C           4.0123    5.5922    0.0605 C.1     1  LIG1       -0.1139
     23 H           5.0496    5.3300    0.0769 H       1  LIG1        0.1232
     24 O          -2.3607    7.4000   -0.0402 O.3     1  LIG1       -0.5061
     25 H          -2.9278    6.6254   -0.0450 H       1  LIG1        0.2922
     26 C          -0.3816    9.2445    0.0026 C.ar    1  LIG1        0.0925
     27 C           0.4325   10.3332    0.0029 C.ar    1  LIG1        0.1428
     28 C          -0.4059   11.4941    0.0053 C.ar    1  LIG1        0.0073
     29 C          -1.6955   11.0638    0.0046 C.ar    1  LIG1        0.0673
     30 N          -1.6851    9.6871    0.0033 N.ar    1  LIG1       -0.3500
     31 H          -2.4909    9.1052    0.0025 H       1  LIG1        0.1661
     32 O           1.7324   10.3191    0.0028 O.3     1  LIG1       -0.5046
     33 H           2.0627   11.2205    0.0027 H       1  LIG1        0.2922
     34 H          -0.0107   12.7326    0.0074 H       1  LIG1        0.0676
     35 C          -2.8088   11.7350    0.0059 C.ar    1  LIG1        0.0695
     36 C          -3.0300   13.0762    0.0230 C.ar    1  LIG1        0.0179
     37 C          -4.4480   13.2759    0.0166 C.ar    1  LIG1        0.1408
     38 C          -5.0309   12.0480   -0.0059 C.ar    1  LIG1        0.0447
     39 N          -4.0310   11.1018   -0.0121 N.ar    1  LIG1       -0.3562
     40 H          -4.1695   10.1176   -0.0277 H       1  LIG1        0.1655
     41 H          -6.2862   11.7103   -0.0195 H       1  LIG1        0.0844
     42 C          -2.1191   14.0039    0.0431 C.3     1  LIG1       -0.0342
     43 H          -2.4980   14.8649    0.5530 H       1  LIG1        0.0279
     44 H          -1.8583   14.2695   -0.9601 H       1  LIG1        0.0279
     45 H          -1.2513   13.6407    0.5529 H       1  LIG1        0.0279
     46 O          -5.0673   14.4188    0.0294 O.3     1  LIG1       -0.4933
     47 C          -4.1095   15.4806    0.0341 C.3     1  LIG1        0.0789
     48 H          -4.6196   16.4212    0.0445 H       1  LIG1        0.0660
     49 H          -3.4920   15.4002    0.9043 H       1  LIG1        0.0660
     50 H          -3.5001   15.4151   -0.8430 H       1  LIG1        0.0660
@<TRIPOS>BOND
     1    44    42    1
     2    50    47    1
     3    12    10    1
     4    11    10    1
     5     9     7    1
     6     8     7    1
     7    25    24    1
     8    24    19    1
     9    20    18    1
    10    40    39    1
    11    18    19   ar
    12    18    15   ar
    13    19    16   ar
    14    41    38    1
    15    39    38   ar
    16    39    35   ar
    17    38    37   ar
    18     5     4   ar
    19     5     1   ar
    20    15     4    1
    21    15    13   ar
    22     4     3   ar
    23     1     2   ar
    24     1     6    1
    25     2     3   ar
    26     2     7    1
    27     3    10    1
    28    16    26    1
    29    16    14   ar
    30    31    30    1
    31    26    27   ar
    32    26    30   ar
    33    33    32    1
    34    32    27    1
    35    27    28   ar
    36    30    29   ar
    37    29    28   ar
    38    29    35    1
    39    28    34    1
    40    35    36   ar
    41    37    36   ar
    42    37    46    1
    43    13    14   ar
    44    13    21    1
    45    14    17    1
    46    36    42    1
    47    46    47    1
    48    47    48    1
    49    47    49    1
    50    21    22    3
    51    42    45    1
    52    42    43    1
    53    22    23    1
