@<TRIPOS>MOLECULE
mol_data/noopt/geoms/mol2/12hh13ae13al-6ll-.out
 52 55 0 0 0
SMALL
GASTEIGER

@<TRIPOS>ATOM
      1 C           0.1763    1.8460    0.0000 C.ar    1  LIG1        0.1151
      2 C           1.5558    1.8460    0.0000 C.ar    1  LIG1        0.0845
      3 C           1.9706    3.2334    0.0000 C.ar    1  LIG1        0.0934
      4 C           0.8165    3.9895   -0.0001 C.ar    1  LIG1        0.1733
      5 O          -0.3030    3.1567   -0.0002 O.2     1  LIG1       -0.4577
      6 H          -0.7504    0.9343    0.0000 H       1  LIG1        0.1049
      7 N           2.3515    0.8179    0.0001 N.pl3   1  LIG1       -0.3541
      8 H           1.9098    0.0546   -0.4713 H       1  LIG1        0.1425
      9 H           3.2012    1.0540   -0.4713 H       1  LIG1        0.1425
     10 N           3.1998    3.6567   -0.0000 N.pl3   1  LIG1       -0.3536
     11 H           3.7808    2.9932   -0.4714 H       1  LIG1        0.1425
     12 H           3.2491    4.5372   -0.4714 H       1  LIG1        0.1425
     13 C           0.5416    5.2601   -0.0001 C.ar    1  LIG1        0.0857
     14 C           1.3660    6.3408    0.0161 C.ar    1  LIG1       -0.0172
     15 C           0.5390    7.5098    0.0084 C.ar    1  LIG1        0.0520
     16 C          -0.7545    7.0921   -0.0139 C.ar    1  LIG1        0.0791
     17 N          -0.7574    5.7154   -0.0188 N.ar    1  LIG1       -0.3496
     18 H          -1.5687    5.1413   -0.0340 H       1  LIG1        0.1661
     19 H           2.6656    6.3141    0.0365 H       1  LIG1        0.0652
     20 C           0.9462    8.7444    0.0202 C.1     1  LIG1       -0.0675
     21 C           1.3224    9.8851    0.0310 C.1     1  LIG1       -0.1138
     22 H           1.6575   10.9012    0.0406 H       1  LIG1        0.1232
     23 C          -1.8611    7.7741   -0.0284 C.ar    1  LIG1        0.0681
     24 C          -2.0693    9.1175   -0.0220 C.ar    1  LIG1        0.0075
     25 C          -3.4851    9.3309   -0.0444 C.ar    1  LIG1        0.1460
     26 C          -4.0798    8.1086   -0.0653 C.ar    1  LIG1        0.0944
     27 N          -3.0892    7.1527   -0.0551 N.ar    1  LIG1       -0.3499
     28 H          -3.2372    6.1698   -0.0660 H       1  LIG1        0.1661
     29 H          -1.1498   10.0361    0.0017 H       1  LIG1        0.0676
     30 O          -4.0933   10.4799   -0.0452 O.3     1  LIG1       -0.4930
     31 C          -3.1252   11.5324   -0.0456 C.3     1  LIG1        0.0789
     32 H          -3.6261   12.4778   -0.0464 H       1  LIG1        0.0660
     33 H          -2.5128   11.4540    0.8284 H       1  LIG1        0.0660
     34 H          -2.5122   11.4528   -0.9189 H       1  LIG1        0.0660
     35 C          -5.7221    6.4300   -0.1243 C.ar    1  LIG1        0.2241
     36 C          -5.3382    7.7831   -0.0899 C.ar    1  LIG1        0.0668
     37 C          -6.3361    8.7593   -0.0825 C.ar    1  LIG1       -0.0041
     38 C          -7.6719    8.3550   -0.1097 C.ar    1  LIG1        0.1390
     39 C          -7.9560    6.9774   -0.1435 C.ar    1  LIG1        0.0730
     40 N          -7.0058    6.0222   -0.1509 N.ar    1  LIG1       -0.2171
     41 H          -6.0745    9.8266   -0.0569 H       1  LIG1        0.0663
     42 H          -9.1839    6.5516   -0.1696 H       1  LIG1        0.0868
     43 O          -4.8296    5.4848   -0.1323 O.3     1  LIG1       -0.4792
     44 C          -5.4819    4.2123   -0.1354 C.3     1  LIG1        0.0804
     45 H          -4.7470    3.4347   -0.1422 H       1  LIG1        0.0660
     46 H          -6.0897    4.1210    0.7406 H       1  LIG1        0.0660
     47 H          -6.0973    4.1291   -1.0067 H       1  LIG1        0.0660
     48 O          -8.6378    9.2252   -0.1044 O.3     1  LIG1       -0.4936
     49 C          -8.0900   10.5461   -0.1025 C.3     1  LIG1        0.0789
     50 H          -8.8853   11.2620   -0.0983 H       1  LIG1        0.0660
     51 H          -7.4849   10.6801    0.7698 H       1  LIG1        0.0660
     52 H          -7.4900   10.6847   -0.9775 H       1  LIG1        0.0660
@<TRIPOS>BOND
     1    47    44    1
     2    52    49    1
     3    34    31    1
     4    12    10    1
     5    11    10    1
     6     9     7    1
     7     8     7    1
     8    42    39    1
     9    40    39   ar
    10    40    35   ar
    11    39    38   ar
    12    45    44    1
    13    44    43    1
    14    44    46    1
    15    43    35    1
    16    35    36   ar
    17    38    48    1
    18    38    37   ar
    19    48    49    1
    20    49    50    1
    21    49    51    1
    22    36    37   ar
    23    36    26    1
    24    37    41    1
    25    28    27    1
    26    26    27   ar
    27    26    25   ar
    28    27    23   ar
    29    32    31    1
    30    31    30    1
    31    31    33    1
    32    30    25    1
    33    25    24   ar
    34    18    17    1
    35    23    24   ar
    36    23    16    1
    37    24    29    1
    38    17    16   ar
    39    17    13   ar
    40    16    15   ar
    41     5     4   ar
    42     5     1   ar
    43     4    13    1
    44     4     3   ar
    45    13    14   ar
    46     2     3   ar
    47     2     1   ar
    48     2     7    1
    49     3    10    1
    50     6     1    1
    51    15    14   ar
    52    15    20    1
    53    14    19    1
    54    20    21    3
    55    21    22    1
