@<TRIPOS>MOLECULE
mol_data/noopt/geoms/mol2/12hh12hh-.out
 24 25 0 0 0
SMALL
GASTEIGER

@<TRIPOS>ATOM
      1 C           0.1763    1.8460    0.0000 C.ar    1  LIG1        0.1152
      2 C           1.5558    1.8460    0.0000 C.ar    1  LIG1        0.0846
      3 C           1.9706    3.2334    0.0000 C.ar    1  LIG1        0.0951
      4 C           0.8165    3.9895   -0.0001 C.ar    1  LIG1        0.1939
      5 O          -0.3030    3.1567   -0.0002 O.2     1  LIG1       -0.4560
      6 H          -0.7504    0.9343    0.0000 H       1  LIG1        0.1049
      7 N           2.3515    0.8179    0.0001 N.pl3   1  LIG1       -0.3541
      8 H           1.9098    0.0546   -0.4713 H       1  LIG1        0.1425
      9 H           3.2012    1.0540   -0.4713 H       1  LIG1        0.1425
     10 N           3.1998    3.6567   -0.0000 N.pl3   1  LIG1       -0.3535
     11 H           3.7808    2.9932   -0.4714 H       1  LIG1        0.1425
     12 H           3.2491    4.5372   -0.4714 H       1  LIG1        0.1425
     13 C           0.5416    5.2601   -0.0001 C.ar    1  LIG1        0.1939
     14 C          -0.6119    6.0167   -0.0001 C.ar    1  LIG1        0.0951
     15 C          -0.1979    7.4043   -0.0001 C.ar    1  LIG1        0.0846
     16 C           1.1818    7.4036   -0.0002 C.ar    1  LIG1        0.1152
     17 O           1.6612    6.0932   -0.0003 O.2     1  LIG1       -0.4560
     18 H           2.1085    8.3153   -0.0002 H       1  LIG1        0.1049
     19 N          -1.8411    5.5934   -0.0000 N.pl3   1  LIG1       -0.3535
     20 H          -2.4221    6.2568   -0.4714 H       1  LIG1        0.1425
     21 H          -1.8904    4.7129   -0.4715 H       1  LIG1        0.1425
     22 N          -0.9936    8.4324   -0.0001 N.pl3   1  LIG1       -0.3541
     23 H          -0.5519    9.1957   -0.4715 H       1  LIG1        0.1425
     24 H          -1.8433    8.1962   -0.4716 H       1  LIG1        0.1425
@<TRIPOS>BOND
     1    24    22    1
     2    23    22    1
     3    21    19    1
     4    12    10    1
     5    20    19    1
     6    11    10    1
     7     9     7    1
     8     8     7    1
     9    17    16   ar
    10    17    13   ar
    11     5     4   ar
    12     5     1   ar
    13    16    18    1
    14    16    15   ar
    15    14    15   ar
    16    14    13   ar
    17    14    19    1
    18    22    15    1
    19    13     4    1
    20     4     3   ar
    21     1     6    1
    22     1     2   ar
    23    10     3    1
    24     3     2   ar
    25     2     7    1
