@<TRIPOS>MOLECULE
mol_data/noopt/geoms/mol2/12hh4lh13ed13ll-.out
 56 54 0 0 0
SMALL
GASTEIGER

@<TRIPOS>ATOM
      1 C           0.1763    1.8460    0.0000 C.2     1  LIG1        0.1085
      2 C           1.5558    1.8460    0.0000 C.2     1  LIG1        0.0832
      3 C           1.9706    3.2334    0.0000 C.3     1  LIG1        0.0524
      4 C           0.8165    3.9895   -0.0001 C.3     1  LIG1        0.1899
      5 O          -0.3030    3.1567   -0.0002 O.2     1  LIG1       -0.4815
      6 H          -0.7504    0.9343    0.0000 H       1  LIG1        0.1043
      7 N           2.3515    0.8179    0.0001 N.pl3   1  LIG1       -0.3541
      8 H           1.9098    0.0546   -0.4713 H       1  LIG1        0.1425
      9 H           3.2012    1.0540   -0.4713 H       1  LIG1        0.1425
     10 N           3.1998    3.6567   -0.0000 N.3     1  LIG1       -0.2553
     11 H           3.7808    2.9932   -0.4714 H       2  UNK2        0.0000
     12 H           3.2491    4.5372   -0.4714 H       3  UNK3        0.0000
     13 C           1.5879    6.2051    0.0007 C.ar    1  LIG1        0.1868
     14 C           1.2379    7.5692    0.0022 C.ar    1  LIG1       -0.0036
     15 C           0.5416    5.2600   -0.0001 C.ar    1  LIG1        0.0489
     16 C          -0.0943    7.9766    0.0023 C.ar    1  LIG1        0.0238
     17 H           2.0295    8.3152    0.0030 H       1  LIG1        0.0663
     18 C          -0.7885    5.6662    0.0000 C.ar    1  LIG1       -0.0296
     19 C          -1.1159    7.0261    0.0011 C.ar    1  LIG1        0.0344
     20 H          -1.5772    4.9182   -0.0005 H       1  LIG1        0.0641
     21 O           2.8483    5.8866    0.0003 O.3     1  LIG1       -0.2875
     22 C           2.9808    4.4628    0.0001 C.3     1  LIG1        0.0245
     23 H           4.0183    4.2010   -0.0003 H       1  LIG1        0.1406
     24 H           2.5119    4.0608    0.8740 H       1  LIG1        0.0451
     25 H           2.5112    4.0610   -0.8733 H       1  LIG1        0.0451
     26 N          -2.3610    7.3999    0.0014 N.pl3   1  LIG1       -0.3574
     27 H          -2.4456    8.2778   -0.4699 H       1  LIG1        0.1423
     28 H          -2.9151    6.7138   -0.4700 H       1  LIG1        0.1423
     29 C          -0.3815    9.2445    0.0036 C.ar    1  LIG1        0.0650
     30 C           0.4324   10.3332    0.0207 C.ar    1  LIG1        0.0584
     31 C          -0.4059   11.4941    0.0143 C.ar    1  LIG1        0.0282
     32 C          -1.6953   11.0638   -0.0082 C.ar    1  LIG1        0.0763
     33 N          -1.6849    9.6872   -0.0143 N.ar    1  LIG1       -0.3514
     34 H          -2.4906    9.1053   -0.0300 H       1  LIG1        0.1660
     35 C           1.7322   10.3190    0.0408 C.1     1  LIG1       -0.0669
     36 C           2.9332   10.3059    0.0594 C.1     1  LIG1       -0.1138
     37 H           4.0030   10.2942    0.0759 H       1  LIG1        0.1232
     38 N           0.3378   13.8248    0.0385 N.3     2  UNK2       -0.1324
     39 C          -0.0107   12.7325    0.0272 C.3     2  UNK2        0.0975
     40 C          -2.8085   11.7351   -0.0218 C.ar    1  LIG1        0.1146
     41 C          -3.0297   13.0764   -0.0147 C.ar    1  LIG1        0.2467
     42 C          -4.4475   13.2761   -0.0362 C.ar    1  LIG1        0.1846
     43 C          -5.0304   12.0481   -0.0572 C.ar    1  LIG1        0.0484
     44 N          -4.0305   11.1019   -0.0480 N.ar    1  LIG1       -0.3533
     45 H          -4.1690   10.1176   -0.0591 H       1  LIG1        0.1656
     46 H          -6.2855   11.7104   -0.0811 H       1  LIG1        0.0846
     47 O          -2.1191   14.0040    0.0088 O.3     1  LIG1       -0.2817
     48 C          -0.8228   13.4002    0.0174 C.3     2  UNK2       -0.0400
     49 H          -0.0737   14.1639    0.0366 H       2  UNK2        0.0250
     50 H          -0.7234   12.7812    0.8845 H       2  UNK2        0.0250
     51 H          -0.7014   12.8036   -0.8625 H       2  UNK2        0.0250
     52 O          -5.0668   14.4192   -0.0363 O.3     1  LIG1       -0.4899
     53 C          -4.1089   15.4810   -0.0363 C.3     1  LIG1        0.0790
     54 H          -4.6190   16.4215   -0.0365 H       1  LIG1        0.0660
     55 H          -3.4955   15.4081    0.8374 H       1  LIG1        0.0660
     56 H          -3.4954   15.4078   -0.9099 H       1  LIG1        0.0660
@<TRIPOS>BOND
     1    56    53    1
     2    25    22    1
     3    51    48    1
     4     9     7    1
     5     8     7    1
     6    28    26    1
     7    27    26    1
     8    46    43    1
     9    45    44    1
    10    43    44   ar
    11    43    42   ar
    12    44    40   ar
    13    54    53    1
    14    53    52    1
    15    53    55    1
    16    52    42    1
    17    42    41   ar
    18    34    33    1
    19    40    41   ar
    20    40    32    1
    21    41    47    1
    22    33    32   ar
    23    33    29   ar
    24    32    31   ar
    25    20    18    1
    26    23    10    1
    27     5     4    1
    28     5     1    1
    29    15     4    1
    30    15    18   ar
    31    15    13   ar
    32     4     3    1
    33     1     2    2
    34     1     6    1
    35     2     7    1
    36    10    22    1
    37    18    19   ar
    38    22    24    1
    39    21    13    1
    40    13    14   ar
    41    19    26    1
    42    19    16   ar
    43    14    16   ar
    44    14    17    1
    45    16    29    1
    46    29    30   ar
    47    31    30   ar
    48    48    39    1
    49    48    49    1
    50    48    50    1
    51    30    35    1
    52    39    38    1
    53    35    36    3
    54    36    37    1
