@<TRIPOS>MOLECULE
mol_data/noopt/geoms/mol2/12hh6ae13da-4fh-12ha4hi-13fa-6lh.out
 94 102 0 0 0
SMALL
GASTEIGER

@<TRIPOS>ATOM
      1 C           0.1763    1.8460    0.0000 C.ar    1  LIG1        0.1150
      2 C           1.5558    1.8460    0.0000 C.ar    1  LIG1        0.0845
      3 C           1.9706    3.2334    0.0000 C.ar    1  LIG1        0.0917
      4 C           0.8165    3.9895   -0.0001 C.ar    1  LIG1        0.1554
      5 O          -0.3030    3.1567   -0.0002 O.2     1  LIG1       -0.4594
      6 H          -0.7504    0.9343    0.0000 H       1  LIG1        0.1049
      7 N           2.3515    0.8179    0.0001 N.pl3   1  LIG1       -0.3541
      8 H           1.9098    0.0546   -0.4713 H       1  LIG1        0.1425
      9 H           3.2012    1.0540   -0.4713 H       1  LIG1        0.1425
     10 N           3.1998    3.6567   -0.0000 N.pl3   1  LIG1       -0.3536
     11 H           3.7808    2.9932   -0.4714 H       1  LIG1        0.1425
     12 H           3.2491    4.5372   -0.4714 H       1  LIG1        0.1425
     13 C          -0.7953    5.6985    0.0001 C.3     1  LIG1        0.1064
     14 C           0.5416    5.2601   -0.0001 C.2     1  LIG1        0.0246
     15 C           1.5573    6.2179    0.0001 C.2     1  LIG1       -0.0359
     16 C           1.2067    7.5691    0.0002 C.2     1  LIG1        0.0457
     17 C          -0.1587    7.9086    0.0001 C.2     1  LIG1        0.0976
     18 N          -1.1514    6.9977    0.0002 N.2     1  LIG1       -0.2701
     19 H           2.6135    5.9134   -0.0011 H       1  LIG1        0.0635
     20 H          -1.7757    4.8447    0.0000 H       1  LIG1        0.0620
     21 C           2.1151    8.4991    0.0002 C.1     1  LIG1       -0.0931
     22 C           2.9544    9.3584    0.0001 C.2     1  LIG1        0.0551
     23 H           3.7021   10.1238    0.0001 H       1  LIG1        0.0888
     24 C          -0.5350    9.1530    0.0003 C.ar    1  LIG1        0.0717
     25 C           0.1998   10.2966    0.0001 C.ar    1  LIG1        0.0101
     26 C          -0.7188   11.3952    0.0016 C.ar    1  LIG1       -0.0302
     27 C          -1.9745   10.8745    0.0009 C.ar    1  LIG1        0.0509
     28 N          -1.8666    9.5021    0.0006 N.ar    1  LIG1       -0.3526
     29 H          -2.6292    8.8645    0.0000 H       1  LIG1        0.1660
     30 N           2.6420   10.4435    0.0002 N.pl3   1  LIG1       -0.2335
     31 C           1.4975   10.3747    0.0001 C.3     1  LIG1        0.1394
     32 H          -0.4122   12.6585    0.0029 H       1  LIG1        0.0642
     33 C          -3.2030   12.8731    0.0241 C.ar    1  LIG1        0.1267
     34 C          -4.4810   13.4647    0.0254 C.ar    1  LIG1       -0.0070
     35 C          -3.1325   11.4652    0.0016 C.ar    1  LIG1        0.0415
     36 C          -5.6390   12.6907    0.0047 C.ar    1  LIG1        0.0432
     37 H          -4.5582   14.5496    0.0428 H       1  LIG1        0.0662
     38 C          -4.2883   10.6919   -0.0191 C.ar    1  LIG1       -0.0277
     39 C          -5.5488   11.2984   -0.0178 C.ar    1  LIG1        0.0362
     40 H          -4.2077    9.6080   -0.0361 H       1  LIG1        0.0644
     41 O          -2.1592   13.6478    0.0438 O.3     1  LIG1       -0.5061
     42 H          -2.4412   14.5654    0.0486 H       1  LIG1        0.2922
     43 N          -6.6257   10.5704   -0.0371 N.pl3   1  LIG1       -0.3574
     44 H          -7.3533   11.0642   -0.5133 H       1  LIG1        0.1423
     45 H          -6.4388    9.7113   -0.5134 H       1  LIG1        0.1423
     46 C          -6.8027   13.2701    0.0064 C.ar    1  LIG1        0.1581
     47 C          -7.2519   14.5744    0.0078 C.ar    1  LIG1        0.0716
     48 C          -8.6987   14.5149    0.0095 C.ar    1  LIG1        0.0056
     49 C          -9.0379   13.1775    0.0090 C.ar    1  LIG1        0.1393
     50 O          -7.8860   12.3901    0.0070 O.2     1  LIG1       -0.4528
     51 N          -6.5389   15.6615    0.0077 N.pl3   1  LIG1       -0.3550
     52 H          -5.6733   15.4923   -0.4638 H       1  LIG1        0.1424
     53 H          -7.0388   16.3879   -0.4638 H       1  LIG1        0.1424
     54 H          -9.4991   15.5393    0.0111 H       1  LIG1        0.0674
     55 C         -11.3838   13.1853    0.0325 C.ar    1  LIG1        0.0360
     56 C         -12.5596   12.4102    0.0341 C.ar    1  LIG1       -0.0309
     57 C         -10.1497   12.5039    0.0099 C.ar    1  LIG1        0.0382
     58 C         -12.5112   11.0182    0.0135 C.ar    1  LIG1        0.0066
     59 H         -13.5226   12.9158    0.0516 H       1  LIG1        0.0643
     60 C         -10.1008   11.1142   -0.0106 C.ar    1  LIG1       -0.0458
     61 C         -11.2800   10.3619   -0.0091 C.ar    1  LIG1       -0.0404
     62 H          -9.1369   10.6121   -0.0278 H       1  LIG1        0.0628
     63 N         -11.4929   14.4806    0.0521 N.pl3   1  LIG1       -0.3574
     64 H         -10.7079   14.8883   -0.4142 H       1  LIG1        0.1423
     65 H         -12.3351   14.7513   -0.4142 H       1  LIG1        0.1423
     66 C         -11.2281    9.0627   -0.0282 C.3     1  LIG1       -0.0391
     67 H         -10.3406    8.7338    0.4709 H       1  LIG1        0.0278
     68 H         -11.2144    8.7212   -1.0422 H       1  LIG1        0.0278
     69 H         -12.0866    8.6641    0.4709 H       1  LIG1        0.0278
     70 C         -13.6165   10.3338    0.0156 C.ar    1  LIG1        0.0892
     71 C         -14.9109   10.7490    0.0166 C.ar    1  LIG1        0.1426
     72 C         -15.7356    9.5783    0.0199 C.ar    1  LIG1        0.0060
     73 C         -14.9089    8.4992    0.0191 C.ar    1  LIG1        0.0557
     74 N         -13.6106    8.9572    0.0169 N.ar    1  LIG1       -0.3511
     75 H         -12.7980    8.3847    0.0157 H       1  LIG1        0.1660
     76 O         -15.3208   11.9827    0.0162 O.3     1  LIG1       -0.5046
     77 H         -16.2807   12.0015    0.0161 H       1  LIG1        0.2922
     78 H         -17.0353    9.5488    0.0228 H       1  LIG1        0.0675
     79 C         -14.1429    6.2784    0.0223 C.ar    1  LIG1        0.2239
     80 C         -15.1810    7.2280    0.0210 C.ar    1  LIG1        0.0616
     81 C         -16.5009    6.7729    0.0223 C.ar    1  LIG1       -0.0253
     82 C         -16.7372    5.3971    0.0245 C.ar    1  LIG1        0.0438
     83 C         -15.6325    4.5259    0.0254 C.ar    1  LIG1        0.0520
     84 N         -14.3529    4.9477    0.0244 N.ar    1  LIG1       -0.2189
     85 H         -17.3382    7.4850    0.0204 H       1  LIG1        0.0645
     86 H         -15.8014    3.2370    0.0275 H       1  LIG1        0.0849
     87 O         -12.8981    6.6532    0.0213 O.3     1  LIG1       -0.4792
     88 C         -12.0524    5.5000    0.0208 C.3     1  LIG1        0.0804
     89 H         -11.0280    5.8089    0.0199 H       1  LIG1        0.0660
     90 H         -12.2475    4.9143    0.8949 H       1  LIG1        0.0660
     91 H         -12.2490    4.9139   -0.8524 H       1  LIG1        0.0660
     92 N         -17.9478    4.9232    0.0255 N.pl3   1  LIG1       -0.3568
     93 H         -18.5562    5.5619   -0.4456 H       1  LIG1        0.1424
     94 H         -17.9609    4.0413   -0.4456 H       1  LIG1        0.1424
@<TRIPOS>BOND
     1    68    66    1
     2    91    88    1
     3    45    43    1
     4    44    43    1
     5    12    10    1
     6    11    10    1
     7     9     7    1
     8     8     7    1
     9    53    51    1
    10    52    51    1
    11    94    92    1
    12    93    92    1
    13    65    63    1
    14    64    63    1
    15    43    39    1
    16    40    38    1
    17    66    61    1
    18    66    69    1
    19    66    67    1
    20    62    60    1
    21    38    39   ar
    22    38    35   ar
    23    39    36   ar
    24    60    61   ar
    25    60    57   ar
    26    61    58   ar
    27    19    15    1
    28     5     4   ar
    29     5     1   ar
    30    14     4    1
    31    14    13    1
    32    14    15    2
    33     4     3   ar
    34     1     2   ar
    35     1     6    1
    36     2     3   ar
    37     2     7    1
    38     3    10    1
    39    29    28    1
    40    20    13    1
    41    13    18    1
    42    15    16    1
    43    23    22    1
    44    25    31    1
    45    25    24   ar
    46    25    26   ar
    47    22    21    2
    48    22    30    1
    49    17    18    2
    50    17    16    1
    51    17    24    1
    52    31    30    1
    53    21    16    2
    54    24    28   ar
    55    28    27   ar
    56    27    26   ar
    57    27    35    1
    58    26    32    1
    59    35    33   ar
    60    36    46    1
    61    36    34   ar
    62    46    50   ar
    63    46    47   ar
    64    50    49   ar
    65    51    47    1
    66    47    48   ar
    67    49    48   ar
    68    49    57    1
    69    48    54    1
    70    57    55   ar
    71    58    70    1
    72    58    56   ar
    73    70    71   ar
    74    70    74   ar
    75    75    74    1
    76    77    76    1
    77    76    71    1
    78    71    72   ar
    79    74    73   ar
    80    73    72   ar
    81    73    80    1
    82    89    88    1
    83    72    78    1
    84    85    81    1
    85    88    87    1
    86    88    90    1
    87    80    79   ar
    88    80    81   ar
    89    87    79    1
    90    79    84   ar
    91    81    82   ar
    92    33    34   ar
    93    33    41    1
    94    84    83   ar
    95    82    83   ar
    96    82    92    1
    97    83    86    1
    98    34    37    1
    99    55    56   ar
   100    55    63    1
   101    56    59    1
   102    41    42    1
