@<TRIPOS>MOLECULE
mol_data/noopt/geoms/mol2/12hh12hh12hh12hh.out
 46 49 0 0 0
SMALL
GASTEIGER

@<TRIPOS>ATOM
      1 C           0.1763    1.8460    0.0000 C.ar    1  LIG1        0.1152
      2 C           1.5558    1.8460    0.0000 C.ar    1  LIG1        0.0846
      3 C           1.9706    3.2334    0.0000 C.ar    1  LIG1        0.0951
      4 C           0.8165    3.9895   -0.0001 C.ar    1  LIG1        0.1939
      5 O          -0.3030    3.1567   -0.0002 O.2     1  LIG1       -0.4560
      6 H          -0.7504    0.9343    0.0000 H       1  LIG1        0.1049
      7 N           2.3515    0.8179    0.0001 N.pl3   1  LIG1       -0.3541
      8 H           1.9098    0.0546   -0.4713 H       1  LIG1        0.1425
      9 H           3.2012    1.0540   -0.4713 H       1  LIG1        0.1425
     10 N           3.1998    3.6567   -0.0000 N.pl3   1  LIG1       -0.3535
     11 H           3.7808    2.9932   -0.4714 H       1  LIG1        0.1425
     12 H           3.2491    4.5372   -0.4714 H       1  LIG1        0.1425
     13 C           0.5416    5.2601   -0.0001 C.ar    1  LIG1        0.1950
     14 C           1.2792    6.4258   -0.0001 C.ar    1  LIG1        0.0959
     15 C           0.3286    7.5182   -0.0001 C.ar    1  LIG1        0.0959
     16 C          -0.9274    6.9472   -0.0002 C.ar    1  LIG1        0.1950
     17 O          -0.8223    5.5559   -0.0003 O.2     1  LIG1       -0.4447
     18 N           2.5735    6.5485   -0.0000 N.pl3   1  LIG1       -0.3535
     19 H           2.9823    5.7671   -0.4714 H       1  LIG1        0.1425
     20 H           2.8283    7.3927   -0.4714 H       1  LIG1        0.1425
     21 N           0.6282    8.7832   -0.0001 N.pl3   1  LIG1       -0.3535
     22 H           1.4995    8.9194   -0.4715 H       1  LIG1        0.1425
     23 H          -0.0895    9.2957   -0.4715 H       1  LIG1        0.1425
     24 C          -2.1481    7.3943   -0.0002 C.ar    1  LIG1        0.1950
     25 C          -2.7387    8.6410   -0.0002 C.ar    1  LIG1        0.0959
     26 C          -4.1701    8.4218   -0.0002 C.ar    1  LIG1        0.0959
     27 C          -4.3593    7.0551   -0.0003 C.ar    1  LIG1        0.1950
     28 O          -3.1273    6.4000   -0.0004 O.2     1  LIG1       -0.4447
     29 N          -2.1503    9.8002   -0.0001 N.pl3   1  LIG1       -0.3535
     30 H          -1.2714    9.7279   -0.4715 H       1  LIG1        0.1425
     31 H          -2.7275   10.4670   -0.4715 H       1  LIG1        0.1425
     32 N          -5.0790    9.3514   -0.0002 N.pl3   1  LIG1       -0.3535
     33 H          -4.7281   10.1605   -0.4716 H       1  LIG1        0.1425
     34 H          -5.8958    9.0190   -0.4716 H       1  LIG1        0.1425
     35 C          -5.3898    6.2627   -0.0003 C.ar    1  LIG1        0.1939
     36 C          -6.7591    6.4302   -0.0003 C.ar    1  LIG1        0.0951
     37 C          -7.3393    5.1034   -0.0003 C.ar    1  LIG1        0.0846
     38 C          -6.2855    4.2128   -0.0004 C.ar    1  LIG1        0.1152
     39 O          -5.0732    4.9035   -0.0005 O.2     1  LIG1       -0.4560
     40 H          -6.1669    2.9182   -0.0004 H       1  LIG1        0.1049
     41 N          -7.4241    7.5472   -0.0002 N.pl3   1  LIG1       -0.3535
     42 H          -6.8930    8.2513   -0.4716 H       1  LIG1        0.1425
     43 H          -8.2962    7.4161   -0.4716 H       1  LIG1        0.1425
     44 N          -8.6108    4.8325   -0.0003 N.pl3   1  LIG1       -0.3541
     45 H          -9.1069    5.5616   -0.4717 H       1  LIG1        0.1425
     46 H          -8.7666    3.9645   -0.4717 H       1  LIG1        0.1425
@<TRIPOS>BOND
     1    46    44    1
     2    45    44    1
     3    34    32    1
     4    43    41    1
     5    33    32    1
     6    42    41    1
     7    23    21    1
     8    31    29    1
     9    22    21    1
    10    30    29    1
    11    12    10    1
    12    20    18    1
    13    11    10    1
    14    19    18    1
    15     9     7    1
    16     8     7    1
    17    39    38   ar
    18    39    35   ar
    19    38    40    1
    20    38    37   ar
    21    28    27   ar
    22    28    24   ar
    23    37    36   ar
    24    37    44    1
    25    27    35    1
    26    27    26   ar
    27    35    36   ar
    28    17    16   ar
    29    17    13   ar
    30    36    41    1
    31    32    26    1
    32    24    25   ar
    33    24    16    1
    34    26    25   ar
    35    25    29    1
    36     5     4   ar
    37     5     1   ar
    38    16    15   ar
    39     4    13    1
    40     4     3   ar
    41    13    14   ar
    42    14    15   ar
    43    14    18    1
    44    15    21    1
    45    10     3    1
    46     6     1    1
    47     1     2   ar
    48     3     2   ar
    49     2     7    1
