@<TRIPOS>MOLECULE
mol_data/noopt/geoms/mol2/12hh12hh12hh-12hh-.out
 46 49 0 0 0
SMALL
GASTEIGER

@<TRIPOS>ATOM
      1 C           0.1763    1.8460    0.0000 C.ar    1  LIG1        0.1152
      2 C           1.5558    1.8460    0.0000 C.ar    1  LIG1        0.0846
      3 C           1.9706    3.2334    0.0000 C.ar    1  LIG1        0.0951
      4 C           0.8165    3.9895   -0.0001 C.ar    1  LIG1        0.1939
      5 O          -0.3030    3.1567   -0.0002 O.2     1  LIG1       -0.4560
      6 H          -0.7504    0.9343    0.0000 H       1  LIG1        0.1049
      7 N           2.3515    0.8179    0.0001 N.pl3   1  LIG1       -0.3541
      8 H           1.9098    0.0546   -0.4713 H       1  LIG1        0.1425
      9 H           3.2012    1.0540   -0.4713 H       1  LIG1        0.1425
     10 N           3.1998    3.6567   -0.0000 N.pl3   1  LIG1       -0.3535
     11 H           3.7808    2.9932   -0.4714 H       1  LIG1        0.1425
     12 H           3.2491    4.5372   -0.4714 H       1  LIG1        0.1425
     13 C           0.5416    5.2601   -0.0001 C.ar    1  LIG1        0.1950
     14 C           1.2792    6.4258   -0.0001 C.ar    1  LIG1        0.0959
     15 C           0.3286    7.5182   -0.0001 C.ar    1  LIG1        0.0959
     16 C          -0.9274    6.9472   -0.0002 C.ar    1  LIG1        0.1950
     17 O          -0.8223    5.5559   -0.0003 O.2     1  LIG1       -0.4447
     18 N           2.5735    6.5485   -0.0000 N.pl3   1  LIG1       -0.3535
     19 H           2.9823    5.7671   -0.4714 H       1  LIG1        0.1425
     20 H           2.8283    7.3927   -0.4714 H       1  LIG1        0.1425
     21 N           0.6282    8.7832   -0.0001 N.pl3   1  LIG1       -0.3535
     22 H           1.4995    8.9194   -0.4715 H       1  LIG1        0.1425
     23 H          -0.0895    9.2957   -0.4715 H       1  LIG1        0.1425
     24 C          -2.1481    7.3943   -0.0002 C.ar    1  LIG1        0.1950
     25 C          -3.4042    6.8241   -0.0002 C.ar    1  LIG1        0.0959
     26 C          -4.3554    7.9160   -0.0002 C.ar    1  LIG1        0.0959
     27 C          -3.6171    9.0815   -0.0003 C.ar    1  LIG1        0.1950
     28 O          -2.2534    8.7859   -0.0004 O.2     1  LIG1       -0.4447
     29 N          -3.7038    5.5591   -0.0001 N.pl3   1  LIG1       -0.3535
     30 H          -4.5751    5.4229   -0.4715 H       1  LIG1        0.1425
     31 H          -2.9861    5.0466   -0.4716 H       1  LIG1        0.1425
     32 N          -5.6496    7.7933   -0.0002 N.pl3   1  LIG1       -0.3535
     33 H          -6.0585    8.5747   -0.4716 H       1  LIG1        0.1425
     34 H          -5.9044    6.9491   -0.4717 H       1  LIG1        0.1425
     35 C          -3.8920   10.3521   -0.0003 C.ar    1  LIG1        0.1939
     36 C          -5.0455   11.1087   -0.0003 C.ar    1  LIG1        0.0951
     37 C          -4.6315   12.4963   -0.0002 C.ar    1  LIG1        0.0846
     38 C          -3.2517   12.4956   -0.0003 C.ar    1  LIG1        0.1152
     39 O          -2.7723   11.1852   -0.0004 O.2     1  LIG1       -0.4560
     40 H          -2.3250   13.4073   -0.0003 H       1  LIG1        0.1049
     41 N          -6.2747   10.6854   -0.0002 N.pl3   1  LIG1       -0.3535
     42 H          -6.8557   11.3488   -0.4716 H       1  LIG1        0.1425
     43 H          -6.3240    9.8049   -0.4716 H       1  LIG1        0.1425
     44 N          -5.4271   13.5244   -0.0002 N.pl3   1  LIG1       -0.3541
     45 H          -4.9854   14.2877   -0.4716 H       1  LIG1        0.1425
     46 H          -6.2768   13.2882   -0.4716 H       1  LIG1        0.1425
@<TRIPOS>BOND
     1    34    32    1
     2    46    44    1
     3    33    32    1
     4    45    44    1
     5    43    41    1
     6    42    41    1
     7    31    29    1
     8    23    21    1
     9    30    29    1
    10    22    21    1
    11    12    10    1
    12    20    18    1
    13    11    10    1
    14    19    18    1
    15     9     7    1
    16     8     7    1
    17    39    38   ar
    18    39    35   ar
    19    28    27   ar
    20    28    24   ar
    21    17    16   ar
    22    17    13   ar
    23    38    40    1
    24    38    37   ar
    25    27    35    1
    26    27    26   ar
    27    36    35   ar
    28    36    37   ar
    29    36    41    1
    30    25    26   ar
    31    25    24   ar
    32    25    29    1
    33    37    44    1
    34    32    26    1
    35    24    16    1
    36    16    15   ar
    37     5     4   ar
    38     5     1   ar
    39    21    15    1
    40    15    14   ar
    41    14    13   ar
    42    14    18    1
    43    13     4    1
    44     4     3   ar
    45     1     6    1
    46     1     2   ar
    47    10     3    1
    48     3     2   ar
    49     2     7    1
