@<TRIPOS>MOLECULE
mol_data/noopt/geoms/mol2/12hh4el(20)12if(210)4fl(110).out
 55 56 0 0 0
SMALL
GASTEIGER

@<TRIPOS>ATOM
      1 C           0.1763    1.8460    0.0000 C.ar    1  LIG1        0.1150
      2 C           1.5558    1.8460    0.0000 C.ar    1  LIG1        0.0845
      3 C           1.9706    3.2334    0.0000 C.ar    1  LIG1        0.0920
      4 C           0.8165    3.9895   -0.0001 C.ar    1  LIG1        0.1585
      5 O          -0.3030    3.1567   -0.0002 O.2     1  LIG1       -0.4591
      6 H          -0.7504    0.9343    0.0000 H       1  LIG1        0.1049
      7 N           2.3515    0.8179    0.0001 N.pl3   1  LIG1       -0.3541
      8 H           1.9098    0.0546   -0.4713 H       1  LIG1        0.1425
      9 H           3.2012    1.0540   -0.4713 H       1  LIG1        0.1425
     10 N           3.1998    3.6567   -0.0000 N.pl3   1  LIG1       -0.3536
     11 H           3.7808    2.9932   -0.4714 H       1  LIG1        0.1425
     12 H           3.2491    4.5372   -0.4714 H       1  LIG1        0.1425
     13 C           1.5156    6.1895    0.4187 C.ar    1  LIG1        0.0360
     14 C           1.1682    7.5542    0.4018 C.ar    1  LIG1       -0.0350
     15 C           0.5416    5.2600   -0.0001 C.ar    1  LIG1        0.0380
     16 C          -0.0923    7.9771   -0.0139 C.ar    1  LIG1        0.0432
     17 H           1.9047    8.2882    0.7211 H       1  LIG1        0.0635
     18 C          -0.7170    5.6817   -0.4152 C.ar    1  LIG1       -0.0079
     19 C          -1.0429    7.0419   -0.4253 C.ar    1  LIG1        0.1247
     20 H          -1.4508    4.9456   -0.7334 H       1  LIG1        0.0662
     21 C           2.7074    5.8562    0.8167 C.1     1  LIG1       -0.0689
     22 C           3.8087    5.5482    1.1844 C.1     1  LIG1       -0.1139
     23 H           4.7897    5.2738    1.5119 H       1  LIG1        0.1232
     24 O          -2.2210    7.4302   -0.8142 O.3     1  LIG1       -0.5063
     25 C          -2.2316    8.8530   -0.9570 C.3     1  LIG1       -0.0348
     26 H          -3.2014    9.1721   -1.2773 H       1  LIG1        0.0268
     27 H          -1.9991    9.3076   -0.0167 H       1  LIG1        0.0433
     28 H          -1.5024    9.1440   -1.6839 H       1  LIG1        0.0306
     29 C          -0.3792    9.2450   -0.0170 C.3     1  LIG1        0.1937
     30 C          -1.4381   10.0126   -0.4560 C.3     1  LIG1        0.0821
     31 C          -1.1106   11.3882   -0.1439 C.2     1  LIG1        0.1443
     32 C           0.1271   11.3699    0.4654 C.2     1  LIG1        0.1702
     33 O           0.5987   10.0598    0.5551 O.2     1  LIG1       -0.4718
     34 C          -2.5276    9.6069   -1.0384 C.3     1  LIG1       -0.0494
     35 H          -2.7333    8.5981   -0.7472 H       1  LIG1        0.2921
     36 H          -2.4029    9.6532   -2.1002 H       2  UNK2        0.0000
     37 H          -3.3430   10.2356   -0.7472 H       1  LIG1        0.0268
     38 O          -1.8571   12.4215   -0.3996 O.2     1  LIG1       -0.5069
     39 H          -2.7746   12.1462   -0.4626 H       1  LIG1        0.2918
     40 C           0.7600   12.7037    2.2887 C.ar    1  LIG1        0.1278
     41 C           1.6542   13.6762    2.7765 C.ar    1  LIG1       -0.0160
     42 C           0.9296   12.2654    0.9595 C.ar    1  LIG1        0.0648
     43 C           2.6733   14.1905    1.9781 C.ar    1  LIG1       -0.0165
     44 H           1.5411   14.0285    3.7994 H       1  LIG1        0.0655
     45 C           1.9468   12.7785    0.1620 C.ar    1  LIG1       -0.0057
     46 C           2.8254   13.7438    0.6649 C.ar    1  LIG1        0.1210
     47 H           2.0569   12.4245   -0.8599 H       1  LIG1        0.0662
     48 H           3.4812   15.0874    2.4608 H       1  LIG1        0.0655
     49 O          -0.1707   12.2615    3.0814 O.3     1  LIG1       -0.5061
     50 H          -0.0118   11.3351    3.2768 H       1  LIG1        0.2922
     51 O           3.7743   14.2199   -0.0853 O.3     1  LIG1       -0.4951
     52 C           4.7272   13.1899   -0.3608 C.3     1  LIG1        0.0788
     53 H           5.5080   13.5821   -0.9784 H       1  LIG1        0.0660
     54 H           5.1441   12.8345    0.5584 H       1  LIG1        0.0660
     55 H           4.2427   12.3822   -0.8685 H       1  LIG1        0.0660
@<TRIPOS>BOND
     1    28    25    1
     2    26    34    1
     3    34    25    1
     4    34    37    1
     5    53    52    1
     6    55    52    1
     7    47    45    1
     8    24    35    1
     9    24    19    1
    10    20    18    1
    11    12    10    1
    12    11    10    1
    13     9     7    1
    14     8     7    1
    15    39    38    1
    16    30    31    1
    17    30    29    1
    18    30    27    1
    19    19    18   ar
    20    19    16   ar
    21    18    15   ar
    22    38    31    1
    23    52    51    1
    24    52    54    1
    25    31    32    2
    26    51    46    1
    27    29    16    1
    28    29    33    1
    29    16    14   ar
    30     5     4   ar
    31     5     1   ar
    32     4    15    1
    33     4     3   ar
    34    15    13   ar
    35     3     2   ar
    36     3    10    1
    37     2     1   ar
    38     2     7    1
    39     1     6    1
    40    45    46   ar
    41    45    42   ar
    42    14    13   ar
    43    14    17    1
    44    13    21    1
    45    32    33    1
    46    32    42    1
    47    46    43   ar
    48    21    22    3
    49    42    40   ar
    50    22    23    1
    51    43    48    1
    52    43    41   ar
    53    40    41   ar
    54    40    49    1
    55    41    44    1
    56    49    50    1
