@<TRIPOS>MOLECULE
mol_data/noopt/geoms/mol2/12hh12ed13hh-12ef.out
 45 48 0 0 0
SMALL
GASTEIGER

@<TRIPOS>ATOM
      1 C           0.1763    1.8460    0.0000 C.ar    1  LIG1        0.1152
      2 C           1.5558    1.8460    0.0000 C.ar    1  LIG1        0.0846
      3 C           1.9706    3.2334    0.0000 C.ar    1  LIG1        0.0951
      4 C           0.8165    3.9895   -0.0001 C.ar    1  LIG1        0.1933
      5 O          -0.3030    3.1567   -0.0002 O.2     1  LIG1       -0.4560
      6 H          -0.7504    0.9343    0.0000 H       1  LIG1        0.1049
      7 N           2.3515    0.8179    0.0001 N.pl3   1  LIG1       -0.3541
      8 H           1.9098    0.0546   -0.4713 H       1  LIG1        0.1425
      9 H           3.2012    1.0540   -0.4713 H       1  LIG1        0.1425
     10 N           3.1998    3.6567   -0.0000 N.pl3   1  LIG1       -0.3535
     11 H           3.7808    2.9932   -0.4714 H       1  LIG1        0.1425
     12 H           3.2491    4.5372   -0.4714 H       1  LIG1        0.1425
     13 C           0.5416    5.2601   -0.0001 C.ar    1  LIG1        0.1891
     14 C           1.2791    6.4258    0.0147 C.ar    1  LIG1        0.0916
     15 C           0.3286    7.5182    0.0040 C.ar    1  LIG1        0.1150
     16 C          -0.9273    6.9473   -0.0167 C.ar    1  LIG1        0.1723
     17 O          -0.8221    5.5559   -0.0197 O.2     1  LIG1       -0.4475
     18 C           2.5732    6.5484    0.0345 C.1     1  LIG1       -0.0644
     19 C           3.7689    6.6617    0.0529 C.1     1  LIG1       -0.1138
     20 H           4.8340    6.7626    0.0692 H       1  LIG1        0.1232
     21 N           0.8923    9.8989    0.0201 N.1     1  LIG1       -0.1907
     22 C           0.6281    8.7832    0.0126 C.1     1  LIG1        0.1043
     23 C          -2.1479    7.3944   -0.0335 C.ar    1  LIG1        0.1067
     24 C          -2.6203    8.6690   -0.0286 C.ar    1  LIG1        0.0750
     25 C          -4.0502    8.5952   -0.0534 C.ar    1  LIG1        0.0750
     26 C          -4.3886    7.2788   -0.0740 C.ar    1  LIG1        0.1067
     27 N          -3.2270    6.5401   -0.0615 N.ar    1  LIG1       -0.3463
     28 H          -3.1755    5.5475   -0.0717 H       1  LIG1        0.1662
     29 N          -1.9030    9.7530   -0.0044 N.pl3   1  LIG1       -0.3548
     30 H          -1.0333    9.5876   -0.4695 H       1  LIG1        0.1424
     31 H          -2.3951   10.4888   -0.4695 H       1  LIG1        0.1424
     32 N          -4.8757    9.5995   -0.0561 N.pl3   1  LIG1       -0.3548
     33 H          -4.4560   10.3747   -0.5282 H       1  LIG1        0.1424
     34 H          -5.7175    9.3378   -0.5283 H       1  LIG1        0.1424
     35 C          -5.5565    6.7083   -0.1001 C.ar    1  LIG1        0.1717
     36 C          -6.8647    7.1459   -0.1051 C.ar    1  LIG1        0.1133
     37 C          -7.6979    5.9620   -0.1413 C.ar    1  LIG1        0.1709
     38 C          -6.8431    4.8791   -0.1561 C.ar    1  LIG1        0.1352
     39 O          -5.5174    5.3136   -0.1314 O.2     1  LIG1       -0.4564
     40 H          -6.9852    3.5873   -0.1869 H       1  LIG1        0.1068
     41 C          -7.2934    8.3729   -0.0822 C.1     1  LIG1       -0.0621
     42 C          -7.6895    9.5067   -0.0610 C.1     1  LIG1       -0.1137
     43 H          -8.0424   10.5167   -0.0421 H       1  LIG1        0.1232
     44 O          -8.9978    5.9506   -0.1563 O.3     1  LIG1       -0.5028
     45 H          -9.3102    5.0428   -0.1600 H       1  LIG1        0.2923
@<TRIPOS>BOND
     1    34    32    1
     2    33    32    1
     3    12    10    1
     4    11    10    1
     5     9     7    1
     6     8     7    1
     7    31    29    1
     8    30    29    1
     9    40    38    1
    10    45    44    1
    11    44    37    1
    12    38    37   ar
    13    38    39   ar
    14    37    36   ar
    15    39    35   ar
    16    36    35   ar
    17    36    41    1
    18    35    26    1
    19    41    42    3
    20    26    27   ar
    21    26    25   ar
    22    28    27    1
    23    27    23   ar
    24    42    43    1
    25    32    25    1
    26    25    24   ar
    27    23    24   ar
    28    23    16    1
    29    24    29    1
    30    17    16   ar
    31    17    13   ar
    32    16    15   ar
    33     5     4   ar
    34     5     1   ar
    35     4    13    1
    36     4     3   ar
    37    13    14   ar
    38     2     3   ar
    39     2     1   ar
    40     2     7    1
    41     3    10    1
    42     6     1    1
    43    15    22    1
    44    15    14   ar
    45    22    21    3
    46    14    18    1
    47    18    19    3
    48    19    20    1
