@<TRIPOS>MOLECULE
mol_data/noopt/geoms/mol2/12hh12aa4li6he.out
 50 50 0 0 0
SMALL
GASTEIGER

@<TRIPOS>ATOM
      1 C           0.1763    1.8460    0.0000 C.ar    1  LIG1        0.1152
      2 C           1.5558    1.8460    0.0000 C.ar    1  LIG1        0.0846
      3 C           1.9706    3.2334    0.0000 C.ar    1  LIG1        0.0950
      4 C           0.8165    3.9895   -0.0001 C.ar    1  LIG1        0.1915
      5 O          -0.3030    3.1567   -0.0002 O.2     1  LIG1       -0.4560
      6 H          -0.7504    0.9343    0.0000 H       1  LIG1        0.1049
      7 N           2.3515    0.8179    0.0001 N.pl3   1  LIG1       -0.3541
      8 H           1.9098    0.0546   -0.4713 H       1  LIG1        0.1425
      9 H           3.2012    1.0540   -0.4713 H       1  LIG1        0.1425
     10 N           3.1998    3.6567   -0.0000 N.pl3   1  LIG1       -0.3535
     11 H           3.7808    2.9932   -0.4714 H       1  LIG1        0.1425
     12 H           3.2491    4.5372   -0.4714 H       1  LIG1        0.1425
     13 C           0.5416    5.2601   -0.0001 C.2     1  LIG1        0.1661
     14 C           1.2791    6.4258    0.0147 C.2     1  LIG1       -0.0126
     15 C           0.3286    7.5182    0.0040 C.3     1  LIG1        0.0524
     16 C          -0.9273    6.9473   -0.0167 C.3     1  LIG1        0.1908
     17 O          -0.8221    5.5559   -0.0197 O.2     1  LIG1       -0.4722
     18 H           2.5732    6.5484    0.0345 H       1  LIG1        0.0656
     19 H           0.6281    8.7832    0.0126 H       1  LIG1        0.0194
     20 C          -2.3868    8.7838   -0.0418 C.ar    1  LIG1        0.1867
     21 C          -3.7266    9.2175   -0.0585 C.ar    1  LIG1       -0.0061
     22 C          -2.1478    7.3944   -0.0335 C.ar    1  LIG1        0.0478
     23 C          -4.7832    8.3097   -0.0671 C.ar    1  LIG1       -0.0032
     24 H          -3.9336   10.2854   -0.0649 H       1  LIG1        0.0662
     25 C          -3.2022    6.4877   -0.0421 C.ar    1  LIG1       -0.0426
     26 C          -4.5264    6.9381   -0.0591 C.ar    1  LIG1       -0.0089
     27 H          -2.9920    5.4212   -0.0353 H       1  LIG1        0.0629
     28 O          -1.4437    9.6786   -0.0347 O.3     1  LIG1       -0.2875
     29 C          -0.1697    9.0291   -0.0321 C.3     2  LIG2       -0.0776
     30 H           0.6062    9.7659   -0.0264 H       1  LIG1        0.0194
     31 H          -0.0844    8.4146    0.8397 H       1  LIG1        0.0194
     32 H          -0.0776    8.4210   -0.9076 H       1  LIG1        0.0194
     33 C          -5.5082    6.0857   -0.0669 C.3     3  LIG3       -0.0681
     34 H          -5.2071    5.1901    0.4353 H       2  LIG2        0.0227
     35 H          -5.7729    5.8558   -1.0779 H       2  LIG2        0.0227
     36 H          -6.3526    6.5096    0.4353 H       1  LIG1        0.1437
     37 C          -7.0846    7.8392   -0.0909 C.ar    1  LIG1        0.1240
     38 C          -6.0081    8.7450   -0.0826 C.ar    1  LIG1        0.0235
     39 C          -6.2875   10.1128   -0.0911 C.ar    1  LIG1       -0.0339
     40 C          -7.6207   10.5262   -0.1076 C.ar    1  LIG1        0.0435
     41 C          -8.6282    9.5441   -0.1150 C.ar    1  LIG1        0.0451
     42 N          -8.3765    8.2205   -0.1069 N.ar    1  LIG1       -0.2389
     43 H          -5.4725   10.8504   -0.0860 H       1  LIG1        0.0637
     44 H          -9.8841    9.8793   -0.1303 H       1  LIG1        0.0843
     45 N          -6.8750    6.5562   -0.0835 N.pl3   1  LIG1       -0.3427
     46 H          -7.6267    6.0930   -0.5530 H       1  LIG1        0.1437
     47 H          -6.0151    6.3562   -0.5530 H       2  LIG2        0.0227
     48 C          -7.9330   11.7881   -0.1161 C.1     1  LIG1       -0.0681
     49 C          -8.2215   12.9541   -0.1241 C.1     1  LIG1       -0.1139
     50 H          -8.4786   13.9927   -0.1311 H       1  LIG1        0.1232
@<TRIPOS>BOND
     1    35    33    1
     2    32    29    1
     3    47    33    1
     4    46    45    1
     5    12    10    1
     6    11    10    1
     7     9     7    1
     8     8     7    1
     9    50    49    1
    10    44    41    1
    11    49    48    3
    12    48    40    1
    13    41    40   ar
    14    41    42   ar
    15    40    39   ar
    16    42    37   ar
    17    39    43    1
    18    39    38   ar
    19    37    45    1
    20    37    38   ar
    21    45    36    1
    22    38    23    1
    23    23    26   ar
    24    23    21   ar
    25    33    34    1
    26    24    21    1
    27    26    25   ar
    28    21    20   ar
    29    25    27    1
    30    25    22   ar
    31    20    28    1
    32    20    22   ar
    33    22    16    1
    34    29    30    1
    35    29    19    1
    36    29    31    1
    37    17    16    1
    38    17    13    1
    39    16    15    1
    40     5     4   ar
    41     5     1   ar
    42    13     4    1
    43    13    14    2
    44     4     3   ar
    45     6     1    1
    46    10     3    1
    47     3     2   ar
    48     2     1   ar
    49     2     7    1
    50    14    18    1
