@<TRIPOS>MOLECULE
mol_data/noopt/geoms/mol2/12hi12df-4di-13ld-.out
 50 50 0 0 0
SMALL
GASTEIGER

@<TRIPOS>ATOM
      1 C           0.1763    1.8460    0.0000 C.ar    1  LIG1        0.1136
      2 C           1.5558    1.8460    0.0000 C.ar    1  LIG1        0.0665
      3 C           1.9706    3.2334    0.0000 C.ar    1  LIG1        0.0191
      4 C           0.8165    3.9895   -0.0001 C.ar    1  LIG1        0.1758
      5 O          -0.3030    3.1567   -0.0002 O.2     1  LIG1       -0.4576
      6 H          -0.7504    0.9343    0.0000 H       1  LIG1        0.1049
      7 N           2.3515    0.8179    0.0001 N.pl3   1  LIG1       -0.3553
      8 H           1.9098    0.0546   -0.4713 H       1  LIG1        0.1424
      9 H           3.2012    1.0540   -0.4713 H       1  LIG1        0.1424
     10 C           3.2001    3.6568    0.0000 C.3     1  LIG1       -0.0343
     11 H           3.2528    4.5990    0.5044 H       1  LIG1        0.0279
     12 H           3.5373    3.7730   -1.0088 H       1  LIG1        0.0279
     13 H           3.8217    2.9468    0.5044 H       1  LIG1        0.0279
     14 C           0.5416    5.2601   -0.0001 C.ar    1  LIG1        0.1919
     15 C           1.2792    6.4258   -0.0001 C.ar    1  LIG1        0.1425
     16 C           0.3286    7.5182   -0.0001 C.ar    1  LIG1        0.1809
     17 C          -0.9274    6.9472   -0.0002 C.ar    1  LIG1        0.1760
     18 O          -0.8223    5.5559   -0.0003 O.2     1  LIG1       -0.4469
     19 N           3.7149    6.6566    0.0001 N.1     1  LIG1       -0.1906
     20 C           2.5734    6.5485   -0.0000 C.1     1  LIG1        0.1068
     21 O           0.6282    8.7833   -0.0001 O.3     1  LIG1       -0.5023
     22 H          -0.1786    9.3036   -0.0001 H       1  LIG1        0.2923
     23 C          -2.3873    8.7836    0.0219 C.3     1  LIG1        0.1342
     24 C          -3.7272    9.2172    0.0225 C.3     2  LIG2        0.0000
     25 C          -2.1480    7.3943   -0.0002 C.2     1  LIG1        0.0225
     26 C          -4.7837    8.3095    0.0014 C.2     1  LIG1        0.0145
     27 H          -3.9343   10.2849    0.0395 H       2  LIG2        0.0194
     28 C          -3.2024    6.4877   -0.0213 C.2     1  LIG1       -0.0498
     29 C          -4.5267    6.9382   -0.0207 C.2     1  LIG1       -0.0402
     30 H          -2.9921    5.4214   -0.0380 H       1  LIG1        0.0625
     31 N          -0.6125   10.4672    0.0595 N.1     1  LIG1       -0.1955
     32 C          -1.4443    9.6782    0.0419 C.1     1  LIG1        0.0781
     33 C          -5.5085    6.0858   -0.0403 C.3     1  LIG1       -0.0391
     34 H          -5.2108    5.1873    0.4587 H       1  LIG1        0.0278
     35 H          -5.7663    5.8619   -1.0544 H       1  LIG1        0.0278
     36 H          -6.3563    6.5068    0.4586 H       1  LIG1        0.0278
     37 C          -6.0087    8.7448    0.0025 C.ar    1  LIG1        0.0960
     38 C          -6.4934   10.0147    0.0194 C.ar    1  LIG1        0.2213
     39 C          -7.9227    9.9270    0.0128 C.ar    1  LIG1        0.1162
     40 C          -8.2485    8.6074   -0.0097 C.ar    1  LIG1        0.0235
     41 N          -7.0797    7.8801   -0.0156 N.ar    1  LIG1       -0.3564
     42 H          -7.0187    6.8880   -0.0312 H       1  LIG1        0.1655
     43 H          -9.4110    8.0256   -0.0234 H       1  LIG1        0.0821
     44 O          -5.7864   11.1055    0.0396 O.3     1  LIG1       -0.2843
     45 C          -4.3957   10.7728    0.0469 C.3     3  LIG3       -0.0776
     46 H          -3.8142   11.6708    0.0633 H       2  LIG2        0.0194
     47 H          -4.1734   10.1880    0.9150 H       2  LIG2        0.0194
     48 H          -4.1588   10.2105   -0.8321 H       2  LIG2        0.0194
     49 N          -9.4946   11.8017    0.0366 N.1     1  LIG1       -0.1907
     50 C          -8.7579   10.9231    0.0255 C.1     1  LIG1        0.1045
@<TRIPOS>BOND
     1    35    33    1
     2    12    10    1
     3    48    45    1
     4     9     7    1
     5     8     7    1
     6    33    29    1
     7    33    36    1
     8    33    34    1
     9    30    28    1
    10    42    41    1
    11    43    40    1
    12    28    29    1
    13    28    25    2
    14    29    26    2
    15    41    40   ar
    16    41    37   ar
    17    40    39   ar
    18    18    17   ar
    19    18    14   ar
    20    17    25    1
    21    17    16   ar
    22    25    23    1
    23     5     4   ar
    24     5     1   ar
    25    16    21    1
    26    16    15   ar
    27    21    22    1
    28    15    14   ar
    29    15    20    1
    30    14     4    1
    31     4     3   ar
    32    20    19    3
    33    10     3    1
    34    10    13    1
    35    10    11    1
    36     1     6    1
    37     1     2   ar
    38     3     2   ar
    39     2     7    1
    40    26    37    1
    41    37    38   ar
    42    39    38   ar
    43    39    50    1
    44    38    44    1
    45    23    32    1
    46    50    49    3
    47    27    45    1
    48    32    31    3
    49    45    46    1
    50    45    47    1
