@<TRIPOS>MOLECULE
mol_data/noopt/geoms/mol2/12hi4he(170)13dd(130)6eh(100).out
 51 54 0 0 0
SMALL
GASTEIGER

@<TRIPOS>ATOM
      1 C           0.1763    1.8460    0.0000 C.ar    1  LIG1        0.1134
      2 C           1.5558    1.8460    0.0000 C.ar    1  LIG1        0.0664
      3 C           1.9706    3.2334    0.0000 C.ar    1  LIG1        0.0160
      4 C           0.8165    3.9895   -0.0001 C.ar    1  LIG1        0.1413
      5 O          -0.3030    3.1567   -0.0002 O.2     1  LIG1       -0.4607
      6 H          -0.7504    0.9343    0.0000 H       1  LIG1        0.1049
      7 N           2.3515    0.8179    0.0001 N.pl3   1  LIG1       -0.3553
      8 H           1.9098    0.0546   -0.4713 H       1  LIG1        0.1424
      9 H           3.2012    1.0540   -0.4713 H       1  LIG1        0.1424
     10 C           3.2001    3.6568    0.0000 C.3     1  LIG1       -0.0344
     11 H           3.2528    4.5990    0.5044 H       1  LIG1        0.0279
     12 H           3.5373    3.7730   -1.0088 H       1  LIG1        0.0279
     13 H           3.8217    2.9468    0.5044 H       1  LIG1        0.0279
     14 C          -0.7837    5.6920    0.2114 C.ar    1  LIG1        0.0360
     15 C          -1.0299    7.0786    0.2006 C.ar    1  LIG1       -0.0300
     16 C           0.5416    5.2600   -0.0001 C.ar    1  LIG1        0.0394
     17 C          -0.0034    7.9963   -0.0106 C.ar    1  LIG1        0.0167
     18 H          -2.0454    7.4335    0.3616 H       1  LIG1        0.0643
     19 C           1.5668    6.1758   -0.2111 C.ar    1  LIG1       -0.0333
     20 C           1.3022    7.5493   -0.2178 C.ar    1  LIG1        0.0346
     21 H           2.5805    5.8178   -0.3719 H       1  LIG1        0.0638
     22 N          -1.7824    4.8848    0.4140 N.pl3   1  LIG1       -0.3574
     23 H          -2.6088    5.2666    0.0002 H       1  LIG1        0.1423
     24 H          -1.5823    3.9966    0.0002 H       1  LIG1        0.1423
     25 C           2.2645    8.4006   -0.4157 C.1     1  LIG1       -0.0690
     26 C           3.1537    9.1873   -0.5985 C.1     1  LIG1       -0.1139
     27 H           3.9457    9.8880   -0.7613 H       1  LIG1        0.1232
     28 C          -0.2664    9.2694   -0.0141 C.ar    1  LIG1        0.0670
     29 C          -1.1275    9.9942    0.7482 C.ar    1  LIG1        0.0949
     30 C          -1.0244   11.3596    0.3291 C.ar    1  LIG1        0.0950
     31 C          -0.1036   11.4095   -0.6697 C.ar    1  LIG1        0.0685
     32 N           0.3627   10.1319   -0.8833 N.ar    1  LIG1       -0.3520
     33 H           1.0457    9.8733   -1.5577 H       1  LIG1        0.1660
     34 N          -2.5844    9.1197    2.5084 N.1     1  LIG1       -0.1908
     35 C          -1.9016    9.5295    1.6835 C.1     1  LIG1        0.1026
     36 N          -2.2715   13.2578    1.2387 N.1     1  LIG1       -0.1908
     37 C          -1.6871   12.3682    0.8124 C.1     1  LIG1        0.1026
     38 C           0.5108   12.2980   -2.7557 C.ar    1  LIG1        0.1223
     39 C           0.3328   12.4173   -1.3652 C.ar    1  LIG1        0.0351
     40 C           0.6343   13.6371   -0.7568 C.ar    1  LIG1       -0.0277
     41 C           1.0996   14.6871   -1.5504 C.ar    1  LIG1        0.0436
     42 C           1.2450   14.4704   -2.9329 C.ar    1  LIG1        0.0496
     43 N           0.9586   13.3004   -3.5364 N.ar    1  LIG1       -0.2442
     44 H           0.5088   13.7677    0.3274 H       1  LIG1        0.0644
     45 H           1.6745   15.4172   -3.7133 H       1  LIG1        0.0849
     46 C           0.2436   11.1825   -3.3676 C.1     1  LIG1       -0.0491
     47 C          -0.0033   10.1519   -3.9330 C.1     1  LIG1       -0.1124
     48 H          -0.2232    9.2338   -4.4367 H       1  LIG1        0.1232
     49 N           1.3943   15.8421   -1.0316 N.pl3   1  LIG1       -0.3568
     50 H           2.3075   16.1186   -1.3309 H       1  LIG1        0.1424
     51 H           0.7253   16.5224   -1.3309 H       1  LIG1        0.1424
@<TRIPOS>BOND
     1    48    47    1
     2    47    46    3
     3    45    42    1
     4    43    42   ar
     5    43    38   ar
     6    46    38    1
     7    42    41   ar
     8    38    39   ar
     9    33    32    1
    10    41    49    1
    11    41    40   ar
    12    39    40   ar
    13    39    31    1
    14    51    49    1
    15    50    49    1
    16    12    10    1
    17    32    31   ar
    18    32    28   ar
    19    27    26    1
    20    40    44    1
    21    31    30   ar
    22    26    25    3
    23     9     7    1
    24     8     7    1
    25    25    20    1
    26    21    19    1
    27    20    19   ar
    28    20    17   ar
    29    19    16   ar
    30    28    17    1
    31    28    29   ar
    32    17    15   ar
    33     5     4   ar
    34     5     1   ar
    35     4    16    1
    36     4     3   ar
    37    16    14   ar
    38     2     3   ar
    39     2     1   ar
    40     2     7    1
    41     3    10    1
    42     6     1    1
    43    10    13    1
    44    10    11    1
    45    24    22    1
    46    23    22    1
    47    15    14   ar
    48    15    18    1
    49    14    22    1
    50    30    29   ar
    51    30    37    1
    52    29    35    1
    53    37    36    3
    54    35    34    3
