@<TRIPOS>MOLECULE
mol_data/noopt/geoms/mol2/12hi12af(290)4dl(150)12ie(70).out
 49 52 0 0 0
SMALL
GASTEIGER

@<TRIPOS>ATOM
      1 C           0.1763    1.8460    0.0000 C.ar    1  LIG1        0.1136
      2 C           1.5558    1.8460    0.0000 C.ar    1  LIG1        0.0665
      3 C           1.9706    3.2334    0.0000 C.ar    1  LIG1        0.0190
      4 C           0.8165    3.9895   -0.0001 C.ar    1  LIG1        0.1745
      5 O          -0.3030    3.1567   -0.0002 O.2     1  LIG1       -0.4577
      6 H          -0.7504    0.9343    0.0000 H       1  LIG1        0.1049
      7 N           2.3515    0.8179    0.0001 N.pl3   1  LIG1       -0.3553
      8 H           1.9098    0.0546   -0.4713 H       1  LIG1        0.1424
      9 H           3.2012    1.0540   -0.4713 H       1  LIG1        0.1424
     10 C           3.2001    3.6568    0.0000 C.3     1  LIG1       -0.0343
     11 H           3.2528    4.5990    0.5044 H       1  LIG1        0.0279
     12 H           3.5373    3.7730   -1.0088 H       1  LIG1        0.0279
     13 H           3.8217    2.9468    0.5044 H       1  LIG1        0.0279
     14 C           0.5416    5.2601   -0.0001 C.ar    1  LIG1        0.1745
     15 C           0.6965    6.2997   -0.8935 C.ar    1  LIG1        0.0295
     16 C           0.1664    7.4831   -0.2488 C.ar    1  LIG1        0.1634
     17 C          -0.2775    7.0878    0.9963 C.ar    1  LIG1        0.1783
     18 O          -0.0572    5.7214    1.1731 O.2     1  LIG1       -0.4479
     19 H           1.2132    6.2542   -2.0855 H       1  LIG1        0.0693
     20 O           0.1284    8.6751   -0.7663 O.3     1  LIG1       -0.5032
     21 H          -0.7854    8.9401   -0.8938 H       1  LIG1        0.2923
     22 C          -1.5799    6.9229    2.9407 C.ar    1  LIG1        0.0634
     23 C          -2.1669    7.6092    4.0213 C.ar    1  LIG1       -0.0295
     24 C          -0.8365    7.6781    2.0107 C.ar    1  LIG1        0.0418
     25 C          -2.0210    8.9865    4.1716 C.ar    1  LIG1        0.0604
     26 H          -2.7449    7.0458    4.7504 H       1  LIG1        0.0639
     27 C          -0.6905    9.0530    2.1603 C.ar    1  LIG1       -0.0072
     28 C          -1.2809    9.7166    3.2408 C.ar    1  LIG1        0.1315
     29 H          -0.1124    9.6132    1.4298 H       1  LIG1        0.0662
     30 N          -1.9020    4.5031    2.7776 N.1     1  LIG1       -0.1908
     31 C          -1.7511    5.6371    2.8540 C.1     1  LIG1        0.0999
     32 O          -1.1412   11.0021    3.3754 O.3     1  LIG1       -0.4944
     33 C           0.2502   11.3284    3.4247 C.3     1  LIG1        0.0788
     34 H           0.3648   12.3864    3.5354 H       1  LIG1        0.0660
     35 H           0.7038   10.8316    4.2569 H       1  LIG1        0.0660
     36 H           0.7233   11.0112    2.5190 H       1  LIG1        0.0660
     37 C          -2.5764    9.5880    5.1813 C.ar    1  LIG1        0.1424
     38 C          -2.2531    9.7850    6.5079 C.ar    1  LIG1        0.0108
     39 C          -3.3317   10.5582    7.0873 C.ar    1  LIG1        0.0658
     40 C          -4.2430   10.7825    6.0759 C.ar    1  LIG1        0.1082
     41 O          -3.7995   10.1942    4.8910 O.2     1  LIG1       -0.4613
     42 H          -5.3842   11.3971    5.9769 H       1  LIG1        0.1042
     43 C          -1.1951    9.3694    7.1394 C.3     1  LIG1       -0.0349
     44 H          -0.8135   10.1581    7.7535 H       1  LIG1        0.0279
     45 H          -0.4489    9.0764    6.4307 H       1  LIG1        0.0279
     46 H          -1.4524    8.5318    7.7535 H       1  LIG1        0.0279
     47 C          -3.4024   10.9516    8.3243 C.1     1  LIG1       -0.0662
     48 C          -3.4676   11.3150    9.4673 C.1     1  LIG1       -0.1138
     49 H          -3.5258   11.6388   10.4855 H       1  LIG1        0.1232
@<TRIPOS>BOND
     1    19    15    1
     2    12    10    1
     3    21    20    1
     4    15    16   ar
     5    15    14   ar
     6    20    16    1
     7     9     7    1
     8     8     7    1
     9    16    17   ar
    10     5     4   ar
    11     5     1   ar
    12     4    14    1
    13     4     3   ar
    14    14    18   ar
    15    10     3    1
    16    10    13    1
    17    10    11    1
    18     1     6    1
    19     1     2   ar
    20     3     2   ar
    21     2     7    1
    22    17    18   ar
    23    17    24    1
    24    29    27    1
    25    24    27   ar
    26    24    22   ar
    27    27    28   ar
    28    36    33    1
    29    30    31    3
    30    31    22    1
    31    22    23   ar
    32    28    32    1
    33    28    25   ar
    34    32    33    1
    35    33    34    1
    36    33    35    1
    37    23    25   ar
    38    23    26    1
    39    25    37    1
    40    41    37   ar
    41    41    40   ar
    42    37    38   ar
    43    42    40    1
    44    40    39   ar
    45    45    43    1
    46    38    39   ar
    47    38    43    1
    48    39    47    1
    49    43    46    1
    50    43    44    1
    51    47    48    3
    52    48    49    1
