@<TRIPOS>MOLECULE
mol_data/noopt/geoms/mol2/12hi6lh(230)13ad(290)6df(110).out
 49 53 0 0 0
SMALL
GASTEIGER

@<TRIPOS>ATOM
      1 C           0.1763    1.8460    0.0000 C.ar    1  LIG1        0.1134
      2 C           1.5558    1.8460    0.0000 C.ar    1  LIG1        0.0664
      3 C           1.9706    3.2334    0.0000 C.ar    1  LIG1        0.0161
      4 C           0.8165    3.9895   -0.0001 C.ar    1  LIG1        0.1447
      5 O          -0.3030    3.1567   -0.0002 O.2     1  LIG1       -0.4606
      6 H          -0.7504    0.9343    0.0000 H       1  LIG1        0.1049
      7 N           2.3515    0.8179    0.0001 N.pl3   1  LIG1       -0.3553
      8 H           1.9098    0.0546   -0.4713 H       1  LIG1        0.1424
      9 H           3.2012    1.0540   -0.4713 H       1  LIG1        0.1424
     10 C           3.2001    3.6568    0.0000 C.3     1  LIG1       -0.0344
     11 H           3.2528    4.5990    0.5044 H       1  LIG1        0.0279
     12 H           3.5373    3.7730   -1.0088 H       1  LIG1        0.0279
     13 H           3.8217    2.9468    0.5044 H       1  LIG1        0.0279
     14 C           1.1544    6.1203    0.9294 C.ar    1  LIG1        0.2261
     15 C           0.5416    5.2601   -0.0001 C.ar    1  LIG1        0.0808
     16 C          -0.3622    5.8026   -0.9155 C.ar    1  LIG1       -0.0231
     17 C          -0.6212    7.1736   -0.8720 C.ar    1  LIG1        0.0533
     18 C           0.0412    7.9519    0.0950 C.ar    1  LIG1        0.1115
     19 N           0.9162    7.4450    0.9854 N.ar    1  LIG1       -0.2090
     20 H          -0.8613    5.1616   -1.6559 H       1  LIG1        0.0645
     21 O           2.0029    5.6622    1.8014 O.3     1  LIG1       -0.4792
     22 C           1.6740    4.3079    2.1215 C.3     1  LIG1        0.0804
     23 H           2.3726    3.9312    2.8391 H       1  LIG1        0.0660
     24 H           0.6860    4.2678    2.5305 H       1  LIG1        0.0660
     25 H           1.7171    3.7111    1.2345 H       1  LIG1        0.0660
     26 N          -1.4546    7.7268   -1.7024 N.pl3   1  LIG1       -0.3563
     27 H          -0.9658    8.3823   -2.2780 H       1  LIG1        0.1424
     28 H          -1.8689    7.0218   -2.2780 H       1  LIG1        0.1424
     29 C          -0.1668    9.2326    0.1750 C.ar    1  LIG1        0.0676
     30 C           0.0577   10.2209   -0.7309 C.ar    1  LIG1       -0.0291
     31 C          -0.3504   11.4542   -0.1284 C.ar    1  LIG1        0.0061
     32 C          -0.8081   11.1651    1.1186 C.ar    1  LIG1        0.0541
     33 N          -0.6970    9.8061    1.3086 N.ar    1  LIG1       -0.3526
     34 H          -0.9588    9.3167    2.1332 H       1  LIG1        0.1660
     35 H           0.5535   10.0705   -1.9233 H       1  LIG1        0.0643
     36 N          -0.2470   13.6753   -1.1491 N.3     1  LIG1       -0.1261
     37 C          -0.2955   12.6344   -0.6708 C.3     1  LIG1        0.1365
     38 C          -1.6119   13.2802    1.7500 C.ar    1  LIG1        0.0784
     39 C          -1.2834   11.9442    2.0444 C.ar    1  LIG1        0.0254
     40 C          -1.4800   11.4806    3.3465 C.ar    1  LIG1       -0.0078
     41 C          -1.9933   12.3591    4.3022 C.ar    1  LIG1        0.1355
     42 C          -2.2913   13.6774    3.9112 C.ar    1  LIG1        0.0694
     43 N          -2.1080   14.1412    2.6596 N.ar    1  LIG1       -0.2535
     44 H          -1.2340   10.4433    3.6142 H       1  LIG1        0.0662
     45 H          -2.7711   14.5324    4.7648 H       1  LIG1        0.0867
     46 N          -1.3010   14.1791   -0.5041 N.3     1  LIG1       -0.1246
     47 C          -1.4467   13.7578    0.5523 C.3     1  LIG1        0.1547
     48 O          -2.1944   11.9759    5.5281 O.3     1  LIG1       -0.5052
     49 H          -1.4425   11.4611    5.8302 H       1  LIG1        0.2922
@<TRIPOS>BOND
     1    28    26    1
     2    27    26    1
     3    35    30    1
     4    26    17    1
     5    20    16    1
     6    36    37    1
     7    36    46    1
     8    12    10    1
     9    16    17   ar
    10    16    15   ar
    11    17    18   ar
    12    30    31   ar
    13    30    29   ar
    14    37    31    1
    15    46    47    1
    16     9     7    1
    17     8     7    1
    18    31    32   ar
    19     5     4   ar
    20     5     1   ar
    21    15     4    1
    22    15    14   ar
    23     4     3   ar
    24     2     3   ar
    25     2     1   ar
    26     2     7    1
    27    10     3    1
    28    10    13    1
    29    10    11    1
    30     1     6    1
    31    18    29    1
    32    18    19   ar
    33    29    33   ar
    34    47    38    1
    35    14    19   ar
    36    14    21    1
    37    32    33   ar
    38    32    39    1
    39    25    22    1
    40    33    34    1
    41    38    39   ar
    42    38    43   ar
    43    21    22    1
    44    39    40   ar
    45    22    24    1
    46    22    23    1
    47    43    42   ar
    48    40    44    1
    49    40    41   ar
    50    42    41   ar
    51    42    45    1
    52    41    48    1
    53    48    49    1
