@<TRIPOS>MOLECULE
mol_data/noopt/geoms/mol2/12hi4ei(190)6ae(100)13ah(260).out
 50 53 0 0 0
SMALL
GASTEIGER

@<TRIPOS>ATOM
      1 C           0.1763    1.8460    0.0000 C.ar    1  LIG1        0.1134
      2 C           1.5558    1.8460    0.0000 C.ar    1  LIG1        0.0664
      3 C           1.9706    3.2334    0.0000 C.ar    1  LIG1        0.0160
      4 C           0.8165    3.9895   -0.0001 C.ar    1  LIG1        0.1407
      5 O          -0.3030    3.1567   -0.0002 O.2     1  LIG1       -0.4607
      6 H          -0.7504    0.9343    0.0000 H       1  LIG1        0.1049
      7 N           2.3515    0.8179    0.0001 N.pl3   1  LIG1       -0.3553
      8 H           1.9098    0.0546   -0.4713 H       1  LIG1        0.1424
      9 H           3.2012    1.0540   -0.4713 H       1  LIG1        0.1424
     10 C           3.2001    3.6568    0.0000 C.3     1  LIG1       -0.0344
     11 H           3.2528    4.5990    0.5044 H       1  LIG1        0.0279
     12 H           3.5373    3.7730   -1.0088 H       1  LIG1        0.0279
     13 H           3.8217    2.9468    0.5044 H       1  LIG1        0.0279
     14 C          -0.7834    5.6921   -0.2131 C.ar    1  LIG1        0.0359
     15 C          -1.0292    7.0788   -0.2053 C.ar    1  LIG1       -0.0376
     16 C           0.5416    5.2600   -0.0001 C.ar    1  LIG1        0.0332
     17 C          -0.0026    7.9965    0.0057 C.ar    1  LIG1       -0.0123
     18 H          -2.0444    7.4338   -0.3678 H       1  LIG1        0.0636
     19 C           1.5668    6.1758    0.2106 C.ar    1  LIG1       -0.0464
     20 C           1.3026    7.5494    0.2151 C.ar    1  LIG1       -0.0420
     21 H           2.5804    5.8177    0.3724 H       1  LIG1        0.0628
     22 C          -1.7822    4.8848   -0.4150 C.1     1  LIG1       -0.0689
     23 C          -2.7051    4.1389   -0.6015 C.1     1  LIG1       -0.1139
     24 H          -3.5272    3.4744   -0.7677 H       1  LIG1        0.1232
     25 C           2.2652    8.4009    0.4125 C.3     1  LIG1       -0.0391
     26 H           1.8931    9.2382    0.9652 H       1  LIG1        0.0278
     27 H           2.6439    8.7360   -0.5305 H       1  LIG1        0.0278
     28 H           3.0508    7.9294    0.9651 H       1  LIG1        0.0278
     29 C          -0.2024   10.0096   -1.1884 C.ar    1  LIG1        0.0361
     30 C          -0.2651    9.2697    0.0066 C.ar    1  LIG1        0.0017
     31 C          -0.6142    9.9334    1.1842 C.ar    1  LIG1       -0.0350
     32 C          -0.8863   11.3015    1.1291 C.ar    1  LIG1        0.0526
     33 C          -0.7969   11.9544   -0.1140 C.ar    1  LIG1        0.1025
     34 N          -0.4617   11.3296   -1.2597 N.ar    1  LIG1       -0.2517
     35 H          -0.6726    9.3888    2.1372 H       1  LIG1        0.0637
     36 H           0.1179    9.4361   -2.3102 H       1  LIG1        0.0836
     37 C          -1.2155   11.9648    2.1976 C.1     1  LIG1       -0.0675
     38 C          -1.5197   12.5776    3.1849 C.1     1  LIG1       -0.1138
     39 H          -1.7906   13.1236    4.0643 H       1  LIG1        0.1232
     40 C          -1.0409   13.2272   -0.2162 C.ar    1  LIG1        0.0679
     41 C          -1.3832   13.9754   -1.2983 C.ar    1  LIG1       -0.0142
     42 C          -1.5336   15.3280   -0.8527 C.ar    1  LIG1        0.0427
     43 C          -1.2783   15.3465    0.4824 C.ar    1  LIG1        0.0230
     44 N          -0.9758   14.0625    0.8761 N.ar    1  LIG1       -0.3578
     45 H          -0.7473   13.7829    1.8021 H       1  LIG1        0.1654
     46 H          -1.2870   16.3328    1.3293 H       1  LIG1        0.0826
     47 H          -1.5422   13.5400   -2.5128 H       1  LIG1        0.0658
     48 N          -1.8552   16.3519   -1.5864 N.pl3   1  LIG1       -0.3568
     49 H          -1.0790   16.6053   -2.1637 H       1  LIG1        0.1424
     50 H          -2.6369   16.1159   -2.1637 H       1  LIG1        0.1424
@<TRIPOS>BOND
     1    47    41    1
     2    36    29    1
     3    50    48    1
     4    49    48    1
     5    48    42    1
     6    41    42   ar
     7    41    40   ar
     8    34    29   ar
     9    34    33   ar
    10    29    30   ar
    11    12    10    1
    12    42    43   ar
    13    24    23    1
    14    23    22    3
    15    27    25    1
    16     9     7    1
    17     8     7    1
    18    22    14    1
    19    18    15    1
    20    40    33    1
    21    40    44   ar
    22    14    15   ar
    23    14    16   ar
    24    15    17   ar
    25    33    32   ar
    26     5     4   ar
    27     5     1   ar
    28    16     4    1
    29    16    19   ar
    30     4     3   ar
    31     1     2   ar
    32     1     6    1
    33    10     3    1
    34    10    13    1
    35    10    11    1
    36     2     3   ar
    37     2     7    1
    38    17    30    1
    39    17    20   ar
    40    30    31   ar
    41    19    20   ar
    42    19    21    1
    43    20    25    1
    44    25    28    1
    45    25    26    1
    46    43    44   ar
    47    43    46    1
    48    44    45    1
    49    32    31   ar
    50    32    37    1
    51    31    35    1
    52    37    38    3
    53    38    39    1
