@<TRIPOS>MOLECULE
mol_data/noopt/geoms/mol2/12hi12hi(140)4hi(230)13da(240).out
 50 53 0 0 0
SMALL
GASTEIGER

@<TRIPOS>ATOM
      1 C           0.1763    1.8460    0.0000 C.ar    1  LIG1        0.1136
      2 C           1.5558    1.8460    0.0000 C.ar    1  LIG1        0.0665
      3 C           1.9706    3.2334    0.0000 C.ar    1  LIG1        0.0191
      4 C           0.8165    3.9895   -0.0001 C.ar    1  LIG1        0.1762
      5 O          -0.3030    3.1567   -0.0002 O.2     1  LIG1       -0.4576
      6 H          -0.7504    0.9343    0.0000 H       1  LIG1        0.1049
      7 N           2.3515    0.8179    0.0001 N.pl3   1  LIG1       -0.3553
      8 H           1.9098    0.0546   -0.4713 H       1  LIG1        0.1424
      9 H           3.2012    1.0540   -0.4713 H       1  LIG1        0.1424
     10 C           3.2001    3.6568    0.0000 C.3     1  LIG1       -0.0342
     11 H           3.2528    4.5990    0.5044 H       1  LIG1        0.0279
     12 H           3.5373    3.7730   -1.0088 H       1  LIG1        0.0279
     13 H           3.8217    2.9468    0.5044 H       1  LIG1        0.0279
     14 C           0.5416    5.2601   -0.0001 C.ar    1  LIG1        0.1916
     15 C          -0.4282    6.0564    0.5729 C.ar    1  LIG1        0.0776
     16 C          -0.1467    7.4153    0.1594 C.ar    1  LIG1        0.0168
     17 C           0.9770    7.3593   -0.6391 C.ar    1  LIG1        0.1423
     18 O           1.4201    6.0411   -0.7524 O.2     1  LIG1       -0.4495
     19 N          -1.4124    5.6861    1.3374 N.pl3   1  LIG1       -0.3547
     20 H          -2.2117    6.2578    1.1521 H       1  LIG1        0.1424
     21 H          -1.6367    4.7294    1.1521 H       1  LIG1        0.1424
     22 C          -0.8362    8.4667    0.4914 C.3     1  LIG1       -0.0343
     23 H          -1.6853    8.1683    1.0701 H       1  LIG1        0.0279
     24 H          -1.1666    8.9704   -0.3930 H       1  LIG1        0.0279
     25 H          -0.2241    9.1265    1.0700 H       1  LIG1        0.0279
     26 C           1.1794    8.8341   -2.4524 C.ar    1  LIG1        0.0360
     27 C           1.9970    9.7649   -3.1220 C.ar    1  LIG1       -0.0309
     28 C           1.6951    8.2258   -1.2897 C.ar    1  LIG1        0.0385
     29 C           3.2719   10.0782   -2.6560 C.ar    1  LIG1        0.0042
     30 H           1.6187   10.2458   -4.0213 H       1  LIG1        0.0643
     31 C           2.9678    8.5383   -0.8241 C.ar    1  LIG1       -0.0458
     32 C           3.7647    9.4659   -1.5030 C.ar    1  LIG1       -0.0405
     33 H           3.3430    8.0557    0.0748 H       1  LIG1        0.0628
     34 N          -0.0012    8.5830   -2.9353 N.pl3   1  LIG1       -0.3574
     35 H          -0.3025    9.3537   -3.4968 H       1  LIG1        0.1423
     36 H           0.0372    7.7565   -3.4968 H       1  LIG1        0.1423
     37 C           4.9539    9.7539   -1.0630 C.3     1  LIG1       -0.0391
     38 H           4.9086   10.6419   -0.4677 H       1  LIG1        0.0278
     39 H           5.6119    9.9134   -1.8917 H       1  LIG1        0.0278
     40 H           5.3199    8.9436   -0.4678 H       1  LIG1        0.0278
     41 C           3.9998   10.9423   -3.2990 C.ar    1  LIG1        0.0644
     42 C           3.7936   11.5518   -4.4965 C.ar    1  LIG1        0.0769
     43 C           4.9116   12.4141   -4.7356 C.ar    1  LIG1       -0.0264
     44 C           5.7510   12.2950   -3.6729 C.ar    1  LIG1        0.0034
     45 N           5.1968   11.3946   -2.7912 N.ar    1  LIG1       -0.3596
     46 H           5.5970   11.1157   -1.9251 H       1  LIG1        0.1654
     47 H           6.8897   12.8724   -3.4285 H       1  LIG1        0.0807
     48 N           1.8663   11.2280   -5.9684 N.1     1  LIG1       -0.1908
     49 C           2.7696   11.3797   -5.2786 C.1     1  LIG1        0.1013
     50 H           5.0937   13.1727   -5.7755 H       1  LIG1        0.0645
@<TRIPOS>BOND
     1    48    49    3
     2    50    43    1
     3    49    42    1
     4    43    42   ar
     5    43    44   ar
     6    42    41   ar
     7    30    27    1
     8    44    47    1
     9    44    45   ar
    10    36    34    1
    11    35    34    1
    12    41    45   ar
    13    41    29    1
    14    27    29   ar
    15    27    26   ar
    16    34    26    1
    17    45    46    1
    18    29    32   ar
    19    26    28   ar
    20    39    37    1
    21    32    37    1
    22    32    31   ar
    23    28    31   ar
    24    28    17    1
    25    37    40    1
    26    37    38    1
    27    12    10    1
    28    31    33    1
    29    18    17   ar
    30    18    14   ar
    31    17    16   ar
    32     9     7    1
    33     8     7    1
    34    24    22    1
    35     5     4   ar
    36     5     1   ar
    37    14     4    1
    38    14    15   ar
    39     4     3   ar
    40     2     3   ar
    41     2     1   ar
    42     2     7    1
    43    10     3    1
    44    10    13    1
    45    10    11    1
    46     6     1    1
    47    16    22    1
    48    16    15   ar
    49    22    25    1
    50    22    23    1
    51    15    19    1
    52    21    19    1
    53    20    19    1
