@<TRIPOS>MOLECULE
mol_data/noopt/geoms/mol2/12hl4ed12hi-13aa-.out
 48 51 0 0 0
SMALL
GASTEIGER

@<TRIPOS>ATOM
      1 C           0.1763    1.8460    0.0000 C.ar    1  LIG1        0.1169
      2 C           1.5558    1.8460    0.0000 C.ar    1  LIG1        0.1058
      3 C           1.9706    3.2334    0.0000 C.ar    1  LIG1        0.1864
      4 C           0.8165    3.9895   -0.0001 C.ar    1  LIG1        0.1793
      5 O          -0.3030    3.1567   -0.0002 O.2     1  LIG1       -0.4572
      6 H          -0.7504    0.9343    0.0000 H       1  LIG1        0.1050
      7 N           2.3515    0.8179    0.0001 N.pl3   1  LIG1       -0.3527
      8 H           1.9098    0.0546   -0.4713 H       1  LIG1        0.1425
      9 H           3.2012    1.0540   -0.4713 H       1  LIG1        0.1425
     10 O           3.1998    3.6567   -0.0000 O.3     1  LIG1       -0.4896
     11 C           4.0900    2.5376   -0.0001 C.3     1  LIG1        0.0791
     12 H           5.1015    2.8864   -0.0002 H       1  LIG1        0.0660
     13 H           3.9174    1.9445    0.8737 H       1  LIG1        0.0660
     14 H           3.9171    1.9444   -0.8736 H       1  LIG1        0.0660
     15 C           1.5879    6.2051    0.0007 C.ar    1  LIG1        0.0362
     16 C           1.2379    7.5692    0.0022 C.ar    1  LIG1       -0.0337
     17 C           0.5416    5.2600   -0.0001 C.ar    1  LIG1        0.0376
     18 C          -0.0943    7.9766    0.0023 C.ar    1  LIG1        0.0376
     19 H           2.0295    8.3152    0.0030 H       1  LIG1        0.0637
     20 C          -0.7885    5.6662    0.0000 C.ar    1  LIG1       -0.0317
     21 C          -1.1159    7.0261    0.0011 C.ar    1  LIG1        0.0632
     22 H          -1.5772    4.9182   -0.0005 H       1  LIG1        0.0638
     23 C           2.8482    5.8866    0.0003 C.1     1  LIG1       -0.0689
     24 C           4.0128    5.5923    0.0000 C.1     1  LIG1       -0.1139
     25 H           5.0502    5.3302   -0.0002 H       1  LIG1        0.1232
     26 N          -3.4592    7.7295    0.0017 N.1     1  LIG1       -0.1908
     27 C          -2.3610    7.3999    0.0014 C.1     1  LIG1        0.0999
     28 C          -0.3815    9.2445    0.0036 C.ar    1  LIG1        0.1578
     29 C           0.3448   10.4173    0.0046 C.ar    1  LIG1        0.0746
     30 C          -0.6163   11.5004    0.0059 C.ar    1  LIG1        0.0181
     31 C          -1.8668   10.9173    0.0055 C.ar    1  LIG1        0.1565
     32 O          -1.7482    9.5271    0.0040 O.2     1  LIG1       -0.4511
     33 N           1.6378   10.5525    0.0045 N.pl3   1  LIG1       -0.3548
     34 H           2.0542    9.7751   -0.4669 H       1  LIG1        0.1424
     35 H           1.8844   11.3992   -0.4669 H       1  LIG1        0.1424
     36 C          -0.3290   12.7686    0.0070 C.3     1  LIG1       -0.0343
     37 H          -1.1023   13.3091    0.5118 H       1  LIG1        0.0279
     38 H          -0.2500   13.1174   -1.0015 H       1  LIG1        0.0279
     39 H           0.6018   12.9229    0.5117 H       1  LIG1        0.0279
     40 C          -3.0918   11.3526    0.0062 C.ar    1  LIG1        0.0824
     41 C          -3.5765   12.6225    0.0229 C.ar    1  LIG1       -0.0334
     42 C          -5.0058   12.5348    0.0159 C.ar    1  LIG1       -0.0437
     43 C          -5.3316   11.2152   -0.0066 C.ar    1  LIG1        0.0023
     44 N          -4.1628   10.4879   -0.0121 N.ar    1  LIG1       -0.3583
     45 H          -4.1019    9.4959   -0.0276 H       1  LIG1        0.1654
     46 H          -6.4941   10.6335   -0.0206 H       1  LIG1        0.0807
     47 H          -2.8695   13.7133    0.0431 H       1  LIG1        0.0640
     48 H          -5.8410   13.5310    0.0282 H       1  LIG1        0.0633
@<TRIPOS>BOND
     1    38    36    1
     2    14    11    1
     3     9     7    1
     4     8     7    1
     5    35    33    1
     6    34    33    1
     7    45    44    1
     8    46    43    1
     9    44    43   ar
    10    44    40   ar
    11    43    42   ar
    12    22    20    1
    13    12    11    1
    14    25    24    1
    15     5     4   ar
    16     5     1   ar
    17     4    17    1
    18     4     3   ar
    19    17    20   ar
    20    17    15   ar
    21    11    10    1
    22    11    13    1
    23     1     2   ar
    24     1     6    1
    25     2     3   ar
    26     2     7    1
    27     3    10    1
    28    20    21   ar
    29    24    23    3
    30    23    15    1
    31    15    16   ar
    32    21    27    1
    33    21    18   ar
    34    27    26    3
    35    16    18   ar
    36    16    19    1
    37    18    28    1
    38    28    32   ar
    39    28    29   ar
    40    32    31   ar
    41    33    29    1
    42    29    30   ar
    43    31    30   ar
    44    31    40    1
    45    30    36    1
    46    40    41   ar
    47    36    39    1
    48    36    37    1
    49    42    41   ar
    50    42    48    1
    51    41    47    1
