@<TRIPOS>MOLECULE
mol_data/noopt/geoms/mol2/12hl13ed-4ff-6da-.out
 48 51 0 0 0
SMALL
GASTEIGER

@<TRIPOS>ATOM
      1 C           0.1763    1.8460    0.0000 C.ar    1  LIG1        0.1170
      2 C           1.5558    1.8460    0.0000 C.ar    1  LIG1        0.1059
      3 C           1.9706    3.2334    0.0000 C.ar    1  LIG1        0.1878
      4 C           0.8165    3.9895   -0.0001 C.ar    1  LIG1        0.1954
      5 O          -0.3030    3.1567   -0.0002 O.2     1  LIG1       -0.4557
      6 H          -0.7504    0.9343    0.0000 H       1  LIG1        0.1050
      7 N           2.3515    0.8179    0.0001 N.pl3   1  LIG1       -0.3527
      8 H           1.9098    0.0546   -0.4713 H       1  LIG1        0.1425
      9 H           3.2012    1.0540   -0.4713 H       1  LIG1        0.1425
     10 O           3.1998    3.6567   -0.0000 O.3     1  LIG1       -0.4896
     11 C           4.0900    2.5376   -0.0001 C.3     1  LIG1        0.0791
     12 H           5.1015    2.8864   -0.0002 H       1  LIG1        0.0660
     13 H           3.9174    1.9445    0.8737 H       1  LIG1        0.0660
     14 H           3.9171    1.9444   -0.8736 H       1  LIG1        0.0660
     15 C           0.5416    5.2601   -0.0001 C.ar    1  LIG1        0.1031
     16 C           1.3662    6.3409   -0.0005 C.ar    1  LIG1        0.0710
     17 C           0.5391    7.5098    0.0008 C.ar    1  LIG1        0.0931
     18 C          -0.7546    7.0920    0.0002 C.ar    1  LIG1        0.0694
     19 N          -0.7576    5.7154    0.0001 N.ar    1  LIG1       -0.3495
     20 H          -1.5690    5.1412   -0.0005 H       1  LIG1        0.1661
     21 C           2.6659    6.3141   -0.0004 C.1     1  LIG1       -0.0661
     22 C           3.8668    6.2894   -0.0003 C.1     1  LIG1       -0.1138
     23 H           4.9366    6.2674   -0.0002 H       1  LIG1        0.1232
     24 N           1.3056    9.8333    0.0030 N.1     1  LIG1       -0.1908
     25 C           0.9463    8.7444    0.0020 C.1     1  LIG1        0.1025
     26 C          -1.8180    9.1831    0.0231 C.ar    1  LIG1        0.1268
     27 C          -3.0442    9.8757    0.0243 C.ar    1  LIG1       -0.0082
     28 C          -1.8613    7.7740    0.0007 C.ar    1  LIG1        0.0445
     29 C          -4.2608    9.1975    0.0035 C.ar    1  LIG1        0.0298
     30 H          -3.0338   10.9633    0.0416 H       1  LIG1        0.0661
     31 C          -3.0755    7.0964   -0.0200 C.ar    1  LIG1       -0.0069
     32 C          -4.2831    7.8024   -0.0189 C.ar    1  LIG1        0.1255
     33 H          -3.0825    6.0096   -0.0370 H       1  LIG1        0.0662
     34 O          -0.7152    9.8712    0.0429 O.3     1  LIG1       -0.5061
     35 H          -0.9225   10.8086    0.0478 H       1  LIG1        0.2922
     36 O          -5.4152    7.1636   -0.0382 O.3     1  LIG1       -0.5061
     37 H          -5.2494    6.2180   -0.0430 H       1  LIG1        0.2922
     38 C          -6.6099    9.1965   -0.0150 C.ar    1  LIG1        0.1478
     39 C          -5.3741    9.8687    0.0051 C.ar    1  LIG1        0.0216
     40 C          -5.3748   11.2646    0.0270 C.ar    1  LIG1       -0.0498
     41 C          -6.5987   11.9361    0.0279 C.ar    1  LIG1       -0.0429
     42 C          -7.7820   11.1753    0.0066 C.ar    1  LIG1        0.0291
     43 N          -7.7997    9.8282   -0.0145 N.ar    1  LIG1       -0.2440
     44 H          -4.4289   11.8244    0.0421 H       1  LIG1        0.0625
     45 H          -8.9457   11.7547    0.0066 H       1  LIG1        0.0830
     46 N          -6.7056    6.7521   -0.0539 N.1     1  LIG1       -0.1893
     47 C          -6.6608    7.8976   -0.0357 C.1     1  LIG1        0.1197
     48 H          -6.6527   13.2348    0.0477 H       1  LIG1        0.0633
@<TRIPOS>BOND
     1    14    11    1
     2     9     7    1
     3     8     7    1
     4    46    47    3
     5    37    36    1
     6    36    32    1
     7    33    31    1
     8    47    38    1
     9    31    32   ar
    10    31    28   ar
    11    32    29   ar
    12    38    43   ar
    13    38    39   ar
    14    43    42   ar
    15    20    19    1
    16    16    21    1
    17    16    15   ar
    18    16    17   ar
    19    21    22    3
    20    22    23    1
    21    12    11    1
    22     5     4   ar
    23     5     1   ar
    24     4    15    1
    25     4     3   ar
    26    15    19   ar
    27    11    10    1
    28    11    13    1
    29     1     6    1
    30     1     2   ar
    31    10     3    1
    32     3     2   ar
    33     2     7    1
    34    19    18   ar
    35    18    28    1
    36    18    17   ar
    37    28    26   ar
    38    17    25    1
    39    25    24    3
    40    29    39    1
    41    29    27   ar
    42    39    40   ar
    43    45    42    1
    44    42    41   ar
    45    26    27   ar
    46    26    34    1
    47    27    30    1
    48    40    41   ar
    49    40    44    1
    50    41    48    1
    51    34    35    1
