@<TRIPOS>MOLECULE
mol_data/noopt/geoms/mol2/12hl13fh(90)4li(90)6af(120).out
 53 56 0 0 0
SMALL
GASTEIGER

@<TRIPOS>ATOM
      1 C           0.1763    1.8460    0.0000 C.ar    1  LIG1        0.1170
      2 C           1.5558    1.8460    0.0000 C.ar    1  LIG1        0.1059
      3 C           1.9706    3.2334    0.0000 C.ar    1  LIG1        0.1879
      4 C           0.8165    3.9895   -0.0001 C.ar    1  LIG1        0.1978
      5 O          -0.3030    3.1567   -0.0002 O.2     1  LIG1       -0.4556
      6 H          -0.7504    0.9343    0.0000 H       1  LIG1        0.1050
      7 N           2.3515    0.8179    0.0001 N.pl3   1  LIG1       -0.3527
      8 H           1.9098    0.0546   -0.4713 H       1  LIG1        0.1425
      9 H           3.2012    1.0540   -0.4713 H       1  LIG1        0.1425
     10 O           3.1998    3.6567   -0.0000 O.3     1  LIG1       -0.4896
     11 C           4.0900    2.5376   -0.0001 C.3     1  LIG1        0.0791
     12 H           5.1015    2.8864   -0.0002 H       1  LIG1        0.0660
     13 H           3.9174    1.9445    0.8737 H       1  LIG1        0.0660
     14 H           3.9171    1.9444   -0.8736 H       1  LIG1        0.0660
     15 C           0.5416    5.2601   -0.0001 C.ar    1  LIG1        0.1301
     16 C           0.3556    6.1222    1.0344 C.ar    1  LIG1        0.1667
     17 C           0.0757    7.4096    0.4732 C.ar    1  LIG1        0.0931
     18 C           0.1046    7.2779   -0.8796 C.ar    1  LIG1        0.0751
     19 N           0.3891    5.9634   -1.1736 N.ar    1  LIG1       -0.3471
     20 H           0.4718    5.5828   -2.0881 H       1  LIG1        0.1662
     21 O           0.4194    5.8281    2.2991 O.3     1  LIG1       -0.5030
     22 H           1.3195    5.9473    2.6108 H       1  LIG1        0.2923
     23 N          -0.1623    8.5046    1.1323 N.pl3   1  LIG1       -0.3535
     24 H           0.5238    9.1922    0.8950 H       1  LIG1        0.1425
     25 H          -1.0719    8.8455    0.8950 H       1  LIG1        0.1425
     26 C          -0.3776    9.4949   -1.4767 C.ar    1  LIG1        0.1298
     27 C          -0.5778   10.4095   -2.5287 C.ar    1  LIG1       -0.0113
     28 C          -0.0865    8.1580   -1.8170 C.ar    1  LIG1        0.0421
     29 C          -0.4918   10.0129   -3.8613 C.ar    1  LIG1       -0.0099
     30 H          -0.8037   11.4460   -2.2884 H       1  LIG1        0.0660
     31 C          -0.0006    7.7616   -3.1473 C.ar    1  LIG1       -0.0456
     32 C          -0.2023    8.6852   -4.1782 C.ar    1  LIG1       -0.0418
     33 H           0.2250    6.7249   -3.3840 H       1  LIG1        0.0628
     34 O          -0.4706    9.9244   -0.2532 O.3     1  LIG1       -0.4944
     35 C           0.8128   10.3673    0.1960 C.3     1  LIG1        0.0788
     36 H           0.7358   10.7209    1.2029 H       1  LIG1        0.0660
     37 H           1.5054    9.5525    0.1560 H       1  LIG1        0.0660
     38 H           1.1576   11.1597   -0.4349 H       1  LIG1        0.0660
     39 C          -0.1208    8.3087   -5.4201 C.3     1  LIG1       -0.0391
     40 H           0.8573    7.9193   -5.6114 H       1  LIG1        0.0278
     41 H          -0.3022    9.1472   -6.0597 H       1  LIG1        0.0278
     42 H          -0.8505    7.5498   -5.6113 H       1  LIG1        0.0278
     43 C          -0.0298   10.7426   -6.0459 C.ar    1  LIG1        0.0355
     44 C          -0.6823   10.8839   -4.8075 C.ar    1  LIG1        0.0040
     45 C          -1.5333   11.9751   -4.6229 C.ar    1  LIG1       -0.0095
     46 C          -1.7022   12.8805   -5.6718 C.ar    1  LIG1        0.1354
     47 C          -1.0059   12.6539   -6.8732 C.ar    1  LIG1        0.0690
     48 N          -0.1813   11.6064   -7.0685 N.ar    1  LIG1       -0.2590
     49 H          -2.0595   12.1191   -3.6686 H       1  LIG1        0.0661
     50 H          -1.1306   13.4686   -7.8785 H       1  LIG1        0.0867
     51 H           0.7720    9.7432   -6.2656 H       1  LIG1        0.0836
     52 O          -2.4833   13.9125   -5.5496 O.3     1  LIG1       -0.5052
     53 H          -3.3974   13.6207   -5.5195 H       1  LIG1        0.2922
@<TRIPOS>BOND
     1    50    47    1
     2    48    47   ar
     3    48    43   ar
     4    47    46   ar
     5    51    43    1
     6    41    39    1
     7    43    44   ar
     8    46    52    1
     9    46    45   ar
    10    40    39    1
    11    42    39    1
    12    52    53    1
    13    39    32    1
    14    44    45   ar
    15    44    29    1
    16    45    49    1
    17    32    29   ar
    18    32    31   ar
    19    29    27   ar
    20    33    31    1
    21    31    28   ar
    22    27    30    1
    23    27    26   ar
    24    20    19    1
    25    28    26   ar
    26    28    18    1
    27    26    34    1
    28    19    18   ar
    29    19    15   ar
    30    18    17   ar
    31    14    11    1
    32     9     7    1
    33     8     7    1
    34    38    35    1
    35    34    35    1
    36    12    11    1
    37     5     4   ar
    38     5     1   ar
    39     4    15    1
    40     4     3   ar
    41    15    16   ar
    42    11    10    1
    43    11    13    1
    44     6     1    1
    45     1     2   ar
    46     3    10    1
    47     3     2   ar
    48     2     7    1
    49    37    35    1
    50    35    36    1
    51    17    16   ar
    52    17    23    1
    53    25    23    1
    54    24    23    1
    55    16    21    1
    56    21    22    1
