@<TRIPOS>MOLECULE
mol_data/noopt/geoms/mol2/12ia12ia-.out
 22 23 0 0 0
SMALL
GASTEIGER

@<TRIPOS>ATOM
      1 C           0.1763    1.8460    0.0000 C.ar    1  LIG1        0.0956
      2 C           1.5558    1.8460    0.0000 C.ar    1  LIG1       -0.0120
      3 C           1.9706    3.2334    0.0000 C.ar    1  LIG1       -0.0099
      4 C           0.8165    3.9895   -0.0001 C.ar    1  LIG1        0.1702
      5 O          -0.3030    3.1567   -0.0002 O.2     1  LIG1       -0.4596
      6 H          -0.7504    0.9343    0.0000 H       1  LIG1        0.1032
      7 C           2.3517    0.8177    0.0001 C.3     1  LIG1       -0.0367
      8 H           3.2608    1.0704    0.5046 H       1  LIG1        0.0278
      9 H           2.5701    0.5356   -1.0087 H       1  LIG1        0.0278
     10 H           1.8790    0.0009    0.5045 H       1  LIG1        0.0278
     11 H           3.1998    3.6567    0.0000 H       1  LIG1        0.0659
     12 C           0.5416    5.2601   -0.0001 C.ar    1  LIG1        0.1725
     13 C          -0.6119    6.0167   -0.0001 C.ar    1  LIG1       -0.0017
     14 C          -0.1979    7.4043   -0.0001 C.ar    1  LIG1       -0.0203
     15 C           1.1818    7.4036   -0.0002 C.ar    1  LIG1        0.0930
     16 O           1.6612    6.0932   -0.0003 O.2     1  LIG1       -0.4596
     17 H           2.1085    8.3153   -0.0002 H       1  LIG1        0.1029
     18 C          -1.8414    5.5933   -0.0000 C.3     1  LIG1       -0.0360
     19 H          -1.8941    4.6511    0.5044 H       1  LIG1        0.0279
     20 H          -2.1787    5.4770   -1.0089 H       1  LIG1        0.0279
     21 H          -2.4630    6.3032    0.5043 H       1  LIG1        0.0279
     22 H          -0.9936    8.4323   -0.0001 H       1  LIG1        0.0652
@<TRIPOS>BOND
     1    20    18    1
     2     9     7    1
     3    16    15   ar
     4    16    12   ar
     5     5     4   ar
     6     5     1   ar
     7    15    17    1
     8    15    14   ar
     9    13    14   ar
    10    13    12   ar
    11    13    18    1
    12    22    14    1
    13    12     4    1
    14     4     3   ar
    15    18    21    1
    16    18    19    1
    17    11     3    1
    18     1     6    1
    19     1     2   ar
    20     3     2   ar
    21     2     7    1
    22     7    10    1
    23     7     8    1
