@<TRIPOS>MOLECULE
mol_data/noopt/geoms/mol2/12ia12le(120)6fa(170)4fe(10).out
 48 51 0 0 0
SMALL
GASTEIGER

@<TRIPOS>ATOM
      1 C           0.1763    1.8460    0.0000 C.ar    1  LIG1        0.0956
      2 C           1.5558    1.8460    0.0000 C.ar    1  LIG1       -0.0120
      3 C           1.9706    3.2334    0.0000 C.ar    1  LIG1       -0.0098
      4 C           0.8165    3.9895   -0.0001 C.ar    1  LIG1        0.1737
      5 O          -0.3030    3.1567   -0.0002 O.2     1  LIG1       -0.4594
      6 H          -0.7504    0.9343    0.0000 H       1  LIG1        0.1032
      7 C           2.3517    0.8177    0.0001 C.3     1  LIG1       -0.0367
      8 H           3.2608    1.0704    0.5046 H       1  LIG1        0.0278
      9 H           2.5701    0.5356   -1.0087 H       1  LIG1        0.0278
     10 H           1.8790    0.0009    0.5045 H       1  LIG1        0.0278
     11 H           3.1998    3.6567    0.0000 H       1  LIG1        0.0659
     12 C           0.5416    5.2601   -0.0001 C.ar    1  LIG1        0.2131
     13 C          -0.1867    6.1087    0.8077 C.ar    1  LIG1        0.1848
     14 C          -0.0795    7.4299    0.2248 C.ar    1  LIG1        0.1129
     15 C           0.7077    7.3010   -0.9010 C.ar    1  LIG1        0.1600
     16 O           1.1030    5.9725   -1.0608 O.2     1  LIG1       -0.4465
     17 O          -0.8486    5.8081    1.8855 O.3     1  LIG1       -0.4901
     18 C          -1.6490    6.9251    2.2812 C.3     1  LIG1        0.0790
     19 H          -2.1937    6.6773    3.1682 H       1  LIG1        0.0660
     20 H          -1.0167    7.7664    2.4743 H       1  LIG1        0.0660
     21 H          -2.3355    7.1675    1.4971 H       1  LIG1        0.0660
     22 C          -0.6289    8.5112    0.6926 C.1     1  LIG1       -0.0621
     23 C          -1.1366    9.5104    1.1249 C.1     1  LIG1       -0.1137
     24 H          -1.5888   10.4004    1.5099 H       1  LIG1        0.1232
     25 C           2.3702    7.8435   -2.4694 C.ar    1  LIG1        0.2238
     26 C           1.1515    8.1082   -1.8182 C.ar    1  LIG1        0.0799
     27 C           0.4368    9.2515   -2.1804 C.ar    1  LIG1       -0.0439
     28 C           0.9587   10.0844   -3.1716 C.ar    1  LIG1       -0.0347
     29 C           2.1858    9.7351   -3.7646 C.ar    1  LIG1        0.0784
     30 N           2.8884    8.6360   -3.4276 N.ar    1  LIG1       -0.2123
     31 H          -0.5188    9.4917   -1.6930 H       1  LIG1        0.0627
     32 O           3.0717    6.7916   -2.1669 O.3     1  LIG1       -0.4919
     33 H           3.9975    7.0344   -2.0923 H       1  LIG1        0.2938
     34 H           0.3315   11.1605   -3.5440 H       1  LIG1        0.0639
     35 C           4.0670   10.3089   -5.0436 C.ar    1  LIG1        0.1261
     36 C           4.5904   11.1400   -6.0529 C.ar    1  LIG1       -0.0184
     37 C           2.7123   10.4787   -4.6919 C.ar    1  LIG1        0.0430
     38 C           3.8016   12.0980   -6.6858 C.ar    1  LIG1       -0.0429
     39 H           5.6335   11.0258   -6.3396 H       1  LIG1        0.0655
     40 C           1.9243   11.4350   -5.3233 C.ar    1  LIG1       -0.0336
     41 C           2.4626   12.2508   -6.3240 C.ar    1  LIG1        0.0255
     42 H           0.8824   11.5467   -5.0342 H       1  LIG1        0.0637
     43 H           4.3174   12.8483   -7.6136 H       1  LIG1        0.0631
     44 O           4.8522    9.4331   -4.4900 O.3     1  LIG1       -0.5061
     45 H           5.7195    9.8214   -4.3535 H       1  LIG1        0.2922
     46 C           1.7212   13.1431   -6.9106 C.1     1  LIG1       -0.0696
     47 C           1.0362   13.9676   -7.4527 C.1     1  LIG1       -0.1139
     48 H           0.4260   14.7020   -7.9356 H       1  LIG1        0.1232
@<TRIPOS>BOND
     1    48    47    1
     2    43    38    1
     3    47    46    3
     4    46    41    1
     5    38    41   ar
     6    38    36   ar
     7    39    36    1
     8    41    40   ar
     9    36    35   ar
    10    40    42    1
    11    40    37   ar
    12    35    37   ar
    13    35    44    1
    14    37    29    1
    15    44    45    1
    16    29    30   ar
    17    29    28   ar
    18    34    28    1
    19    30    25   ar
    20    28    27   ar
    21    25    32    1
    22    25    26   ar
    23    27    26   ar
    24    27    31    1
    25    32    33    1
    26    26    15    1
    27    16    15   ar
    28    16    12   ar
    29     9     7    1
    30    15    14   ar
    31     5     4   ar
    32     5     1   ar
    33     4    12    1
    34     4     3   ar
    35    12    13   ar
    36     2     3   ar
    37     2     1   ar
    38     2     7    1
    39     3    11    1
    40     6     1    1
    41     7    10    1
    42     7     8    1
    43    14    22    1
    44    14    13   ar
    45    22    23    3
    46    13    17    1
    47    23    24    1
    48    21    18    1
    49    17    18    1
    50    18    20    1
    51    18    19    1
