@<TRIPOS>MOLECULE
mol_data/noopt/geoms/mol2/12ia12ia12ia-12ia-.out
 42 45 0 0 0
SMALL
GASTEIGER

@<TRIPOS>ATOM
      1 C           0.1763    1.8460    0.0000 C.ar    1  LIG1        0.0956
      2 C           1.5558    1.8460    0.0000 C.ar    1  LIG1       -0.0120
      3 C           1.9706    3.2334    0.0000 C.ar    1  LIG1       -0.0099
      4 C           0.8165    3.9895   -0.0001 C.ar    1  LIG1        0.1702
      5 O          -0.3030    3.1567   -0.0002 O.2     1  LIG1       -0.4596
      6 H          -0.7504    0.9343    0.0000 H       1  LIG1        0.1032
      7 C           2.3517    0.8177    0.0001 C.3     1  LIG1       -0.0367
      8 H           3.2608    1.0704    0.5046 H       1  LIG1        0.0278
      9 H           2.5701    0.5356   -1.0087 H       1  LIG1        0.0278
     10 H           1.8790    0.0009    0.5045 H       1  LIG1        0.0278
     11 H           3.1998    3.6567    0.0000 H       1  LIG1        0.0659
     12 C           0.5416    5.2601   -0.0001 C.ar    1  LIG1        0.1736
     13 C           1.2792    6.4258   -0.0001 C.ar    1  LIG1       -0.0009
     14 C           0.3286    7.5182   -0.0001 C.ar    1  LIG1       -0.0091
     15 C          -0.9274    6.9472   -0.0002 C.ar    1  LIG1        0.1713
     16 O          -0.8223    5.5559   -0.0003 O.2     1  LIG1       -0.4484
     17 C           2.5738    6.5485    0.0000 C.3     1  LIG1       -0.0360
     18 H           2.8464    7.4519    0.5045 H       1  LIG1        0.0279
     19 H           2.9289    6.5822   -1.0088 H       1  LIG1        0.0279
     20 H           3.0112    5.7123    0.5044 H       1  LIG1        0.0279
     21 H           0.6282    8.7832   -0.0001 H       1  LIG1        0.0659
     22 C          -2.1481    7.3943   -0.0002 C.ar    1  LIG1        0.1736
     23 C          -3.4042    6.8241   -0.0002 C.ar    1  LIG1       -0.0009
     24 C          -4.3554    7.9160   -0.0002 C.ar    1  LIG1       -0.0091
     25 C          -3.6171    9.0815   -0.0003 C.ar    1  LIG1        0.1712
     26 O          -2.2534    8.7859   -0.0004 O.2     1  LIG1       -0.4484
     27 C          -3.7038    5.5588   -0.0001 C.3     1  LIG1       -0.0360
     28 H          -2.9359    5.0104    0.5043 H       1  LIG1        0.0279
     29 H          -3.7860    5.2116   -1.0090 H       1  LIG1        0.0279
     30 H          -4.6362    5.4131    0.5042 H       1  LIG1        0.0279
     31 H          -5.6496    7.7933   -0.0002 H       1  LIG1        0.0659
     32 C          -3.8920   10.3521   -0.0003 C.ar    1  LIG1        0.1726
     33 C          -5.0455   11.1087   -0.0003 C.ar    1  LIG1       -0.0017
     34 C          -4.6315   12.4963   -0.0002 C.ar    1  LIG1       -0.0203
     35 C          -3.2517   12.4956   -0.0003 C.ar    1  LIG1        0.0930
     36 O          -2.7723   11.1852   -0.0004 O.2     1  LIG1       -0.4596
     37 H          -2.3250   13.4073   -0.0003 H       1  LIG1        0.1029
     38 C          -6.2750   10.6853   -0.0002 C.3     1  LIG1       -0.0360
     39 H          -6.3277    9.7431    0.5043 H       1  LIG1        0.0279
     40 H          -6.6122   10.5690   -1.0090 H       1  LIG1        0.0279
     41 H          -6.8966   11.3952    0.5042 H       1  LIG1        0.0279
     42 H          -5.4271   13.5243   -0.0002 H       1  LIG1        0.0652
@<TRIPOS>BOND
     1    40    38    1
     2    29    27    1
     3    19    17    1
     4     9     7    1
     5    36    35   ar
     6    36    32   ar
     7    26    25   ar
     8    26    22   ar
     9    16    15   ar
    10    16    12   ar
    11    35    37    1
    12    35    34   ar
    13    25    32    1
    14    25    24   ar
    15    33    32   ar
    16    33    34   ar
    17    33    38    1
    18    23    24   ar
    19    23    22   ar
    20    23    27    1
    21    34    42    1
    22    31    24    1
    23    22    15    1
    24    15    14   ar
    25     5     4   ar
    26     5     1   ar
    27    38    41    1
    28    38    39    1
    29    27    30    1
    30    27    28    1
    31    21    14    1
    32    14    13   ar
    33    13    12   ar
    34    13    17    1
    35     4    12    1
    36     4     3   ar
    37    11     3    1
    38     2     3   ar
    39     2     1   ar
    40     2     7    1
    41     6     1    1
    42    17    20    1
    43    17    18    1
    44     7    10    1
    45     7     8    1
