@<TRIPOS>MOLECULE
mol_data/noopt/geoms/mol2/12ia6ei(20)6hi(260)6ld(80).out
 54 56 0 0 0
SMALL
GASTEIGER

@<TRIPOS>ATOM
      1 C           0.1763    1.8460    0.0000 C.ar    1  LIG1        0.0955
      2 C           1.5558    1.8460    0.0000 C.ar    1  LIG1       -0.0121
      3 C           1.9706    3.2334    0.0000 C.ar    1  LIG1       -0.0129
      4 C           0.8165    3.9895   -0.0001 C.ar    1  LIG1        0.1377
      5 O          -0.3030    3.1567   -0.0002 O.2     1  LIG1       -0.4626
      6 H          -0.7504    0.9343    0.0000 H       1  LIG1        0.1032
      7 C           2.3517    0.8177    0.0001 C.3     1  LIG1       -0.0367
      8 H           3.2608    1.0704    0.5046 H       1  LIG1        0.0278
      9 H           2.5701    0.5356   -1.0087 H       1  LIG1        0.0278
     10 H           1.8790    0.0009    0.5045 H       1  LIG1        0.0278
     11 H           3.1998    3.6567    0.0000 H       1  LIG1        0.0658
     12 C          -0.7239    5.7139   -0.4148 C.ar    1  LIG1        0.1245
     13 C           0.5416    5.2601   -0.0001 C.ar    1  LIG1        0.0513
     14 C           1.4869    6.2027    0.4085 C.ar    1  LIG1       -0.0435
     15 C           1.1396    7.5546    0.3892 C.ar    1  LIG1       -0.0236
     16 C          -0.1514    7.9102   -0.0424 C.ar    1  LIG1        0.0786
     17 N          -1.0757    7.0141   -0.4398 N.ar    1  LIG1       -0.2373
     18 H           2.4865    5.8859    0.7382 H       1  LIG1        0.0629
     19 C          -1.6373    4.8747   -0.8040 C.1     1  LIG1       -0.0491
     20 C          -2.4812    4.0992   -1.1636 C.1     1  LIG1       -0.1124
     21 H          -3.2330    3.4085   -1.4840 H       1  LIG1        0.1232
     22 C           1.9844    8.4710    0.7599 C.3     1  LIG1       -0.0377
     23 H           1.4763    9.2088    1.3450 H       1  LIG1        0.0278
     24 H           2.4110    8.9338   -0.1054 H       1  LIG1        0.0278
     25 H           2.7611    8.0244    1.3450 H       1  LIG1        0.0278
     26 C          -0.5311    9.9288    1.0975 C.ar    1  LIG1        0.1261
     27 C          -0.5217    9.1558   -0.0780 C.ar    1  LIG1        0.0404
     28 C          -0.9169    9.7570   -1.2744 C.ar    1  LIG1       -0.0440
     29 C          -1.3050   11.0978   -1.2566 C.ar    1  LIG1       -0.0202
     30 C          -1.2811   11.7875   -0.0305 C.ar    1  LIG1        0.0814
     31 N          -0.9025   11.2232    1.1329 N.ar    1  LIG1       -0.2313
     32 H          -0.9234    9.1845   -2.2127 H       1  LIG1        0.0629
     33 N          -0.1716    9.4137    2.2357 N.pl3   1  LIG1       -0.3426
     34 H          -0.5127    8.4759    2.2998 H       1  LIG1        0.1437
     35 H           0.8263    9.4105    2.2998 H       1  LIG1        0.1437
     36 C          -1.6817   11.7031   -2.3440 C.3     1  LIG1       -0.0216
     37 H          -2.7496   11.7657   -2.3658 H       1  LIG1        0.0317
     38 H          -1.3393   11.1527   -3.1955 H       1  LIG1        0.0317
     39 H          -1.2660   12.6888   -2.3658 H       1  LIG1        0.2937
     40 C          -2.0461   13.7231   -1.1198 C.ar    1  LIG1        0.2218
     41 C          -1.6334   13.0371    0.0370 C.ar    1  LIG1        0.0632
     42 C          -1.6124   13.7279    1.2500 C.ar    1  LIG1       -0.0286
     43 C          -2.0007   15.0686    1.2666 C.ar    1  LIG1        0.0707
     44 C          -2.3976   15.6678    0.0570 C.ar    1  LIG1        0.0488
     45 N          -2.4240   15.0162   -1.1220 N.ar    1  LIG1       -0.2196
     46 H          -1.2948   13.2254    2.1746 H       1  LIG1        0.0639
     47 H          -2.7678   16.9134    0.0214 H       1  LIG1        0.0844
     48 O          -2.0825   13.1228   -2.2724 O.3     1  LIG1       -0.4919
     49 C          -3.4414   12.9839   -2.6955 C.3     2  LIG2       -0.0681
     50 H          -3.4709   12.4899   -3.6442 H       1  LIG1        0.0227
     51 H          -3.9819   12.4058   -1.9754 H       1  LIG1        0.0227
     52 H          -3.8883   13.9521   -2.7836 H       1  LIG1        0.0227
     53 N          -1.9964   16.3611    3.3439 N.1     1  LIG1       -0.1908
     54 C          -1.9985   15.7554    2.3704 C.1     1  LIG1        0.1007
@<TRIPOS>BOND
     1    50    49    1
     2    38    36    1
     3    52    49    1
     4    49    51    1
     5    37    36    1
     6    39    48    1
     7    36    29    1
     8    48    40    1
     9    32    28    1
    10    21    20    1
    11    28    29   ar
    12    28    27   ar
    13    29    30   ar
    14    20    19    3
    15    45    40   ar
    16    45    44   ar
    17    40    41   ar
    18     9     7    1
    19    19    12    1
    20    17    12   ar
    21    17    16   ar
    22    12    13   ar
    23    24    22    1
    24    27    16    1
    25    27    26   ar
    26    16    15   ar
    27    30    41    1
    28    30    31   ar
    29     5     4   ar
    30     5     1   ar
    31    13     4    1
    32    13    14   ar
    33     4     3   ar
    34     1     2   ar
    35     1     6    1
    36     2     3   ar
    37     2     7    1
    38     3    11    1
    39     7    10    1
    40     7     8    1
    41    47    44    1
    42    41    42   ar
    43    44    43   ar
    44    15    14   ar
    45    15    22    1
    46    14    18    1
    47    22    25    1
    48    22    23    1
    49    26    31   ar
    50    26    33    1
    51    42    43   ar
    52    42    46    1
    53    43    54    1
    54    33    34    1
    55    33    35    1
    56    54    53    3
