@<TRIPOS>MOLECULE
mol_data/noopt/geoms/mol2/12ia13fl6le12ih.out
 52 55 0 0 0
SMALL
GASTEIGER

@<TRIPOS>ATOM
      1 C           0.1763    1.8460    0.0000 C.ar    1  LIG1        0.0955
      2 C           1.5558    1.8460    0.0000 C.ar    1  LIG1       -0.0121
      3 C           1.9706    3.2334    0.0000 C.ar    1  LIG1       -0.0114
      4 C           0.8165    3.9895   -0.0001 C.ar    1  LIG1        0.1548
      5 O          -0.3030    3.1567   -0.0002 O.2     1  LIG1       -0.4611
      6 H          -0.7504    0.9343    0.0000 H       1  LIG1        0.1032
      7 C           2.3517    0.8177    0.0001 C.3     1  LIG1       -0.0367
      8 H           3.2608    1.0704    0.5046 H       1  LIG1        0.0278
      9 H           2.5701    0.5356   -1.0087 H       1  LIG1        0.0278
     10 H           1.8790    0.0009    0.5045 H       1  LIG1        0.0278
     11 H           3.1998    3.6567    0.0000 H       1  LIG1        0.0658
     12 C           0.5416    5.2601   -0.0001 C.ar    1  LIG1        0.1283
     13 C           1.3660    6.3408    0.0161 C.ar    1  LIG1        0.1881
     14 C           0.5390    7.5098    0.0084 C.ar    1  LIG1        0.1876
     15 C          -0.7545    7.0921   -0.0139 C.ar    1  LIG1        0.0981
     16 N          -0.7574    5.7154   -0.0188 N.ar    1  LIG1       -0.3457
     17 H          -1.5687    5.1413   -0.0340 H       1  LIG1        0.1662
     18 O           2.6657    6.3141    0.0365 O.3     1  LIG1       -0.5018
     19 H           3.0046    7.2122    0.0416 H       1  LIG1        0.2924
     20 O           0.9462    8.7444    0.0202 O.3     1  LIG1       -0.4895
     21 C           2.3758    8.7754    0.0244 C.3     1  LIG1        0.0791
     22 H           2.7106    9.7917    0.0339 H       1  LIG1        0.0660
     23 H           2.7410    8.2715    0.8949 H       1  LIG1        0.0660
     24 H           2.7458    8.2862   -0.8523 H       1  LIG1        0.0660
     25 C          -3.1034    7.1138   -0.0362 C.ar    1  LIG1        0.2247
     26 C          -1.8611    7.7741   -0.0284 C.ar    1  LIG1        0.0647
     27 C          -1.8480    9.1701   -0.0363 C.ar    1  LIG1       -0.0298
     28 C          -3.0652    9.8534   -0.0518 C.ar    1  LIG1        0.0545
     29 C          -4.2559    9.1041   -0.0587 C.ar    1  LIG1        0.1254
     30 N          -4.2869    7.7571   -0.0511 N.ar    1  LIG1       -0.2080
     31 H          -0.8967    9.7207   -0.0316 H       1  LIG1        0.0639
     32 O          -3.1670    5.8153   -0.0293 O.3     1  LIG1       -0.4792
     33 C          -4.5368    5.4046   -0.0268 C.3     1  LIG1        0.0804
     34 H          -4.5888    4.3359   -0.0212 H       1  LIG1        0.0660
     35 H          -5.0231    5.7899    0.8451 H       1  LIG1        0.0660
     36 H          -5.0236    5.7808   -0.9022 H       1  LIG1        0.0660
     37 C          -3.1064   11.1527   -0.0598 C.1     1  LIG1       -0.0674
     38 C          -3.1444   12.3533   -0.0672 C.1     1  LIG1       -0.1138
     39 H          -3.1783   13.4228   -0.0738 H       1  LIG1        0.1232
     40 C          -5.4139    9.6947   -0.0730 C.ar    1  LIG1        0.1589
     41 C          -5.8502   11.0034   -0.0838 C.ar    1  LIG1        0.0175
     42 C          -7.2975   10.9580   -0.0977 C.ar    1  LIG1        0.0664
     43 C          -7.6497    9.6240   -0.0946 C.ar    1  LIG1        0.1135
     44 O          -6.5056    8.8254   -0.0795 O.2     1  LIG1       -0.4592
     45 H          -8.7681    8.9612   -0.1022 H       1  LIG1        0.1049
     46 C          -5.1265   12.0837   -0.0820 C.3     1  LIG1       -0.0343
     47 H          -5.6541   12.8657    0.4229 H       1  LIG1        0.0279
     48 H          -4.9272   12.3812   -1.0904 H       1  LIG1        0.0279
     49 H          -4.2025   11.8931    0.4228 H       1  LIG1        0.0279
     50 N          -8.0878   11.9901   -0.1106 N.pl3   1  LIG1       -0.3553
     51 H          -7.6393   12.7474   -0.5853 H       1  LIG1        0.1424
     52 H          -8.9359   11.7547   -0.5853 H       1  LIG1        0.1424
@<TRIPOS>BOND
     1    48    46    1
     2     9     7    1
     3    36    33    1
     4    24    21    1
     5    52    50    1
     6    51    50    1
     7    50    42    1
     8    45    43    1
     9    42    43   ar
    10    42    41   ar
    11    43    44   ar
    12    41    46    1
    13    41    40   ar
    14    46    49    1
    15    46    47    1
    16    44    40   ar
    17    39    38    1
    18    40    29    1
    19    38    37    3
    20    37    28    1
    21    29    28   ar
    22    29    30   ar
    23    28    27   ar
    24    30    25   ar
    25    27    31    1
    26    27    26   ar
    27    25    32    1
    28    25    26   ar
    29    17    16    1
    30    32    33    1
    31    26    15    1
    32    33    34    1
    33    33    35    1
    34    16    15   ar
    35    16    12   ar
    36    15    14   ar
    37     5     4   ar
    38     5     1   ar
    39     4    12    1
    40     4     3   ar
    41    12    13   ar
    42     2     3   ar
    43     2     1   ar
    44     2     7    1
    45     3    11    1
    46     6     1    1
    47     7    10    1
    48     7     8    1
    49    14    13   ar
    50    14    20    1
    51    13    18    1
    52    20    21    1
    53    21    22    1
    54    21    23    1
    55    18    19    1
