@<TRIPOS>MOLECULE
mol_data/noopt/geoms/mol2/12ia12ie(330)12ef(300)13de(290).out
 45 48 0 0 0
SMALL
GASTEIGER

@<TRIPOS>ATOM
      1 C           0.1763    1.8460    0.0000 C.ar    1  LIG1        0.0956
      2 C           1.5558    1.8460    0.0000 C.ar    1  LIG1       -0.0120
      3 C           1.9706    3.2334    0.0000 C.ar    1  LIG1       -0.0099
      4 C           0.8165    3.9895   -0.0001 C.ar    1  LIG1        0.1702
      5 O          -0.3030    3.1567   -0.0002 O.2     1  LIG1       -0.4596
      6 H          -0.7504    0.9343    0.0000 H       1  LIG1        0.1032
      7 C           2.3517    0.8177    0.0001 C.3     1  LIG1       -0.0367
      8 H           3.2608    1.0704    0.5046 H       1  LIG1        0.0278
      9 H           2.5701    0.5356   -1.0087 H       1  LIG1        0.0278
     10 H           1.8790    0.0009    0.5045 H       1  LIG1        0.0278
     11 H           3.1998    3.6567    0.0000 H       1  LIG1        0.0659
     12 C           0.5416    5.2601   -0.0001 C.ar    1  LIG1        0.1748
     13 C           1.1775    6.4038   -0.4367 C.ar    1  LIG1        0.0145
     14 C           0.3003    7.5121   -0.1217 C.ar    1  LIG1        0.0771
     15 C          -0.8139    6.9718    0.4868 C.ar    1  LIG1        0.1876
     16 O          -0.6887    5.5848    0.5731 O.2     1  LIG1       -0.4470
     17 C           2.3362    6.4971   -1.0194 C.3     1  LIG1       -0.0348
     18 H           2.8092    7.4116   -0.7282 H       1  LIG1        0.0279
     19 H           2.2035    6.4865   -2.0811 H       1  LIG1        0.0279
     20 H           2.9494    5.6700   -0.7283 H       1  LIG1        0.0279
     21 C           0.5409    8.7643   -0.3745 C.1     1  LIG1       -0.0655
     22 C           0.7632    9.9214   -0.6082 C.1     1  LIG1       -0.1138
     23 H           0.9613   10.9521   -0.8163 H       1  LIG1        0.1232
     24 C          -1.9191    7.4439    0.9826 C.ar    1  LIG1        0.1909
     25 C          -2.8292    8.4117    0.6109 C.ar    1  LIG1        0.1156
     26 C          -3.8542    8.4318    1.6336 C.ar    1  LIG1        0.1806
     27 C          -3.5023    7.4745    2.5627 C.ar    1  LIG1        0.1956
     28 O          -2.3128    6.8516    2.1833 O.2     1  LIG1       -0.4451
     29 C          -2.7973    9.1706   -0.4441 C.1     1  LIG1       -0.0621
     30 C          -2.7679    9.8719   -1.4189 C.1     1  LIG1       -0.1137
     31 H          -2.7416   10.4966   -2.2872 H       1  LIG1        0.1232
     32 O          -4.8944    9.2114    1.6485 O.3     1  LIG1       -0.5023
     33 H          -5.6935    8.6795    1.6521 H       1  LIG1        0.2923
     34 C          -4.0090    7.0335    3.6757 C.ar    1  LIG1        0.1046
     35 C          -5.2237    6.4805    3.9337 C.ar    1  LIG1        0.0954
     36 C          -5.2652    6.1724    5.3316 C.ar    1  LIG1        0.0600
     37 C          -4.0734    6.5492    5.8660 C.ar    1  LIG1        0.0190
     38 N          -3.3015    7.0773    4.8558 N.ar    1  LIG1       -0.3560
     39 H          -2.3794    7.4332    4.9616 H       1  LIG1        0.1655
     40 H          -3.6352    6.4741    7.0877 H       1  LIG1        0.0820
     41 N          -7.0071    6.0892    2.3052 N.1     1  LIG1       -0.1908
     42 C          -6.1713    6.2725    3.0684 C.1     1  LIG1        0.1026
     43 C          -6.2574    5.6318    5.9744 C.1     1  LIG1       -0.0669
     44 C          -7.1742    5.1322    6.5684 C.1     1  LIG1       -0.1138
     45 H          -7.9909    4.6873    7.0976 H       1  LIG1        0.1232
@<TRIPOS>BOND
     1    31    30    1
     2    19    17    1
     3    30    29    3
     4    17    20    1
     5    17    18    1
     6    17    13    1
     7     9     7    1
     8    23    22    1
     9    22    21    3
    10    29    25    1
    11    13    14   ar
    12    13    12   ar
    13    21    14    1
    14    14    15   ar
    15     5     4   ar
    16     5     1   ar
    17    12     4    1
    18    12    16   ar
    19     4     3   ar
    20     1     2   ar
    21     1     6    1
    22    11     3    1
    23     2     3   ar
    24     2     7    1
    25     7    10    1
    26     7     8    1
    27    15    16   ar
    28    15    24    1
    29    25    24   ar
    30    25    26   ar
    31    24    28   ar
    32    26    32    1
    33    26    27   ar
    34    32    33    1
    35    28    27   ar
    36    41    42    3
    37    27    34    1
    38    42    35    1
    39    34    35   ar
    40    34    38   ar
    41    35    36   ar
    42    38    39    1
    43    38    37   ar
    44    36    37   ar
    45    36    43    1
    46    37    40    1
    47    43    44    3
    48    44    45    1
