@<TRIPOS>MOLECULE
mol_data/noopt/geoms/mol2/12ia13ih(350)13af4eh(170).out
 48 51 0 0 0
SMALL
GASTEIGER

@<TRIPOS>ATOM
      1 C           0.1763    1.8460    0.0000 C.ar    1  LIG1        0.0955
      2 C           1.5558    1.8460    0.0000 C.ar    1  LIG1       -0.0121
      3 C           1.9706    3.2334    0.0000 C.ar    1  LIG1       -0.0115
      4 C           0.8165    3.9895   -0.0001 C.ar    1  LIG1        0.1514
      5 O          -0.3030    3.1567   -0.0002 O.2     1  LIG1       -0.4612
      6 H          -0.7504    0.9343    0.0000 H       1  LIG1        0.1032
      7 C           2.3517    0.8177    0.0001 C.3     1  LIG1       -0.0367
      8 H           3.2608    1.0704    0.5046 H       1  LIG1        0.0278
      9 H           2.5701    0.5356   -1.0087 H       1  LIG1        0.0278
     10 H           1.8790    0.0009    0.5045 H       1  LIG1        0.0278
     11 H           3.1998    3.6567    0.0000 H       1  LIG1        0.0658
     12 C           0.5416    5.2601   -0.0001 C.ar    1  LIG1        0.0873
     13 C           1.3531    6.3380   -0.1661 C.ar    1  LIG1       -0.0009
     14 C           0.5332    7.5086   -0.0749 C.ar    1  LIG1        0.0553
     15 C          -0.7434    7.0944    0.1410 C.ar    1  LIG1        0.0847
     16 N          -0.7427    5.7186    0.1880 N.ar    1  LIG1       -0.3489
     17 H          -1.5427    5.1469    0.3339 H       1  LIG1        0.1661
     18 C           2.6372    6.3078   -0.3686 C.3     1  LIG1       -0.0358
     19 H           3.0885    7.1711    0.0741 H       1  LIG1        0.0279
     20 H           2.8324    6.3033   -1.4207 H       1  LIG1        0.0279
     21 H           3.0473    5.4243    0.0741 H       1  LIG1        0.0279
     22 N           0.9324    8.7414   -0.1794 N.pl3   1  LIG1       -0.3561
     23 H           1.7999    8.7699   -0.6760 H       1  LIG1        0.1424
     24 H           0.2463    9.2730   -0.6761 H       1  LIG1        0.1424
     25 C          -1.8383    7.7791    0.2917 C.ar    1  LIG1        0.0687
     26 C          -2.0326    9.1206    0.3935 C.ar    1  LIG1        0.0073
     27 C          -3.4395    9.3385    0.5475 C.ar    1  LIG1        0.1427
     28 C          -4.0432    8.1206    0.5312 C.ar    1  LIG1        0.0902
     29 N          -3.0665    7.1630    0.3753 N.ar    1  LIG1       -0.3500
     30 H          -3.2234    6.1825    0.3296 H       1  LIG1        0.1661
     31 H          -1.1086   10.0344    0.3587 H       1  LIG1        0.0676
     32 O          -4.0336   10.4874    0.6785 O.3     1  LIG1       -0.5046
     33 H          -4.9839   10.3549    0.7108 H       1  LIG1        0.2922
     34 C          -5.6626    6.4644    0.9037 C.ar    1  LIG1        0.0340
     35 C          -7.0355    6.1680    1.0065 C.ar    1  LIG1       -0.0440
     36 C          -5.2987    7.8000    0.6362 C.ar    1  LIG1        0.0190
     37 C          -8.0049    7.1563    0.8508 C.ar    1  LIG1       -0.0399
     38 H          -7.3384    5.1438    1.2123 H       1  LIG1        0.0630
     39 C          -6.2660    8.7870    0.4806 C.ar    1  LIG1       -0.0306
     40 C          -7.6249    8.4728    0.5868 C.ar    1  LIG1        0.0252
     41 H          -5.9601    9.8095    0.2748 H       1  LIG1        0.0643
     42 H          -9.2636    6.8474    0.9522 H       1  LIG1        0.0636
     43 C          -4.8050    5.4998    1.0589 C.1     1  LIG1       -0.0690
     44 C          -4.0126    4.6086    1.2024 C.1     1  LIG1       -0.1139
     45 H          -3.3067    3.8147    1.3301 H       1  LIG1        0.1232
     46 N          -8.5247    9.3995    0.4403 N.pl3   1  LIG1       -0.3579
     47 H          -8.1326   10.1678   -0.0657 H       1  LIG1        0.1423
     48 H          -9.3042    9.0303   -0.0657 H       1  LIG1        0.1423
@<TRIPOS>BOND
     1    20    18    1
     2     9     7    1
     3    24    22    1
     4    23    22    1
     5    18    13    1
     6    18    21    1
     7    18    19    1
     8    22    14    1
     9    13    14   ar
    10    13    12   ar
    11    14    15   ar
    12    48    46    1
    13    47    46    1
    14     5     4   ar
    15     5     1   ar
    16     4    12    1
    17     4     3   ar
    18    12    16   ar
    19     1     2   ar
    20     1     6    1
    21     2     3   ar
    22     2     7    1
    23     3    11    1
    24     7    10    1
    25     7     8    1
    26    15    16   ar
    27    15    25    1
    28    16    17    1
    29    41    39    1
    30    25    29   ar
    31    25    26   ar
    32    30    29    1
    33    31    26    1
    34    29    28   ar
    35    26    27   ar
    36    46    40    1
    37    39    40   ar
    38    39    36   ar
    39    28    27   ar
    40    28    36    1
    41    27    32    1
    42    40    37   ar
    43    36    34   ar
    44    32    33    1
    45    37    42    1
    46    37    35   ar
    47    34    35   ar
    48    34    43    1
    49    35    38    1
    50    43    44    3
    51    44    45    1
