@<TRIPOS>MOLECULE
mol_data/noopt/geoms/mol2/12ia.out
 12 12 0 0 0
SMALL
GASTEIGER

@<TRIPOS>ATOM
      1 C           0.1763    1.8460    0.0000 C.ar    1  LIG1        0.0946
      2 C           1.5558    1.8460    0.0000 C.ar    1  LIG1       -0.0128
      3 C           1.9706    3.2334    0.0000 C.ar    1  LIG1       -0.0210
      4 C           0.8165    3.9895   -0.0001 C.ar    1  LIG1        0.0919
      5 O          -0.3030    3.1567   -0.0002 O.2     1  LIG1       -0.4708
      6 H          -0.7504    0.9343    0.0000 H       1  LIG1        0.1032
      7 H           0.5416    5.2601   -0.0001 H       1  LIG1        0.1029
      8 C           2.3517    0.8177    0.0001 C.3     1  LIG1       -0.0367
      9 H           3.2608    1.0704    0.5046 H       1  LIG1        0.0278
     10 H           2.5701    0.5356   -1.0087 H       1  LIG1        0.0278
     11 H           1.8790    0.0009    0.5045 H       1  LIG1        0.0278
     12 H           3.1998    3.6567    0.0000 H       1  LIG1        0.0652
@<TRIPOS>BOND
     1    10     8    1
     2     5     4   ar
     3     5     1   ar
     4     4     7    1
     5     4     3   ar
     6     1     2   ar
     7     1     6    1
     8     2     3   ar
     9     2     8    1
    10     3    12    1
    11     8    11    1
    12     8     9    1
