@<TRIPOS>MOLECULE
mol_data/noopt/geoms/mol2/12ia13di12id-4hi-.out
 50 53 0 0 0
SMALL
GASTEIGER

@<TRIPOS>ATOM
      1 C           0.1763    1.8460    0.0000 C.ar    1  LIG1        0.0955
      2 C           1.5558    1.8460    0.0000 C.ar    1  LIG1       -0.0121
      3 C           1.9706    3.2334    0.0000 C.ar    1  LIG1       -0.0115
      4 C           0.8165    3.9895   -0.0001 C.ar    1  LIG1        0.1524
      5 O          -0.3030    3.1567   -0.0002 O.2     1  LIG1       -0.4612
      6 H          -0.7504    0.9343    0.0000 H       1  LIG1        0.1032
      7 C           2.3517    0.8177    0.0001 C.3     1  LIG1       -0.0367
      8 H           3.2608    1.0704    0.5046 H       1  LIG1        0.0278
      9 H           2.5701    0.5356   -1.0087 H       1  LIG1        0.0278
     10 H           1.8790    0.0009    0.5045 H       1  LIG1        0.0278
     11 H           3.1998    3.6567    0.0000 H       1  LIG1        0.0658
     12 C           0.5416    5.2601   -0.0001 C.ar    1  LIG1        0.1004
     13 C           1.3660    6.3408    0.0161 C.ar    1  LIG1        0.0836
     14 C           0.5390    7.5098    0.0084 C.ar    1  LIG1       -0.0041
     15 C          -0.7545    7.0921   -0.0139 C.ar    1  LIG1        0.0871
     16 N          -0.7574    5.7154   -0.0188 N.ar    1  LIG1       -0.3481
     17 H          -1.5687    5.1413   -0.0340 H       1  LIG1        0.1661
     18 N           3.8118    6.2904    0.0545 N.1     1  LIG1       -0.1908
     19 C           2.6656    6.3141    0.0365 C.1     1  LIG1        0.1017
     20 C           0.9463    8.7447    0.0202 C.3     1  LIG1       -0.0364
     21 H           0.2269    9.3527    0.5278 H       1  LIG1        0.0279
     22 H           1.0608    9.0920   -0.9854 H       1  LIG1        0.0279
     23 H           1.8863    8.8054    0.5277 H       1  LIG1        0.0279
     24 C          -1.8611    7.7741   -0.0284 C.ar    1  LIG1        0.1562
     25 C          -2.1908    9.1136   -0.0246 C.ar    1  LIG1        0.0148
     26 C          -3.6369    9.1850   -0.0494 C.ar    1  LIG1        0.1010
     27 C          -4.0951    7.8837   -0.0669 C.ar    1  LIG1        0.1551
     28 O          -3.0190    6.9956   -0.0545 O.2     1  LIG1       -0.4517
     29 C          -1.3826   10.1321   -0.0031 C.3     1  LIG1       -0.0348
     30 H          -1.8505   10.9479    0.5072 H       1  LIG1        0.0279
     31 H          -1.1506   10.4246   -1.0059 H       1  LIG1        0.0279
     32 H          -0.4818    9.8618    0.5071 H       1  LIG1        0.0279
     33 N          -4.9631   11.2409   -0.0580 N.1     1  LIG1       -0.1907
     34 C          -4.3416   10.2774   -0.0540 C.1     1  LIG1        0.1032
     35 C          -6.4308    8.1030   -0.0826 C.ar    1  LIG1        0.0354
     36 C          -7.6716    7.4373   -0.1086 C.ar    1  LIG1       -0.0401
     37 C          -5.2630    7.3132   -0.0914 C.ar    1  LIG1        0.0394
     38 C          -7.7484    6.0467   -0.1425 C.ar    1  LIG1       -0.0571
     39 H          -8.5852    8.0275   -0.1022 H       1  LIG1        0.0636
     40 C          -5.3391    5.9250   -0.1253 C.ar    1  LIG1       -0.0464
     41 C          -6.5811    5.2822   -0.1512 C.ar    1  LIG1       -0.0497
     42 H          -4.4242    5.3381   -0.1314 H       1  LIG1        0.0628
     43 H          -8.9108    5.4649   -0.1660 H       1  LIG1        0.0621
     44 N          -6.4231    9.4026   -0.0517 N.pl3   1  LIG1       -0.3574
     45 H          -5.6046    9.7422   -0.5151 H       1  LIG1        0.1423
     46 H          -7.2375    9.7519   -0.5151 H       1  LIG1        0.1423
     47 C          -6.6462    3.9839   -0.1826 C.3     1  LIG1       -0.0397
     48 H          -5.7921    3.5718    0.3130 H       1  LIG1        0.0278
     49 H          -6.6627    3.6521   -1.1998 H       1  LIG1        0.0278
     50 H          -7.5372    3.6593    0.3129 H       1  LIG1        0.0278
@<TRIPOS>BOND
     1    49    47    1
     2     9     7    1
     3    31    29    1
     4    22    20    1
     5    46    44    1
     6    45    44    1
     7    47    41    1
     8    47    50    1
     9    47    48    1
    10    43    38    1
    11    41    38   ar
    12    41    40   ar
    13    38    36   ar
    14    42    40    1
    15    40    37   ar
    16    36    39    1
    17    36    35   ar
    18    37    35   ar
    19    37    27    1
    20    35    44    1
    21    27    28   ar
    22    27    26   ar
    23    33    34    3
    24    28    24   ar
    25    34    26    1
    26    26    25   ar
    27    17    16    1
    28    24    25   ar
    29    24    15    1
    30    25    29    1
    31    16    15   ar
    32    16    12   ar
    33    15    14   ar
    34    29    32    1
    35    29    30    1
    36     5     4   ar
    37     5     1   ar
    38    12     4    1
    39    12    13   ar
    40     4     3   ar
    41     1     2   ar
    42     1     6    1
    43     2     3   ar
    44     2     7    1
    45     3    11    1
    46     7    10    1
    47     7     8    1
    48    14    13   ar
    49    14    20    1
    50    13    19    1
    51    20    23    1
    52    20    21    1
    53    19    18    3
