@<TRIPOS>MOLECULE
mol_data/noopt/geoms/mol2/12ia13ia(280)12ih(320)13ai(210).out
 46 49 0 0 0
SMALL
GASTEIGER

@<TRIPOS>ATOM
      1 C           0.1763    1.8460    0.0000 C.ar    1  LIG1        0.0955
      2 C           1.5558    1.8460    0.0000 C.ar    1  LIG1       -0.0121
      3 C           1.9706    3.2334    0.0000 C.ar    1  LIG1       -0.0115
      4 C           0.8165    3.9895   -0.0001 C.ar    1  LIG1        0.1514
      5 O          -0.3030    3.1567   -0.0002 O.2     1  LIG1       -0.4612
      6 H          -0.7504    0.9343    0.0000 H       1  LIG1        0.1032
      7 C           2.3517    0.8177    0.0001 C.3     1  LIG1       -0.0367
      8 H           3.2608    1.0704    0.5046 H       1  LIG1        0.0278
      9 H           2.5701    0.5356   -1.0087 H       1  LIG1        0.0278
     10 H           1.8790    0.0009    0.5045 H       1  LIG1        0.0278
     11 H           3.1998    3.6567    0.0000 H       1  LIG1        0.0658
     12 C           0.5416    5.2601   -0.0001 C.ar    1  LIG1        0.0855
     13 C           0.5449    6.1632   -1.0162 C.ar    1  LIG1       -0.0215
     14 C           0.1644    7.4288   -0.4647 C.ar    1  LIG1       -0.0298
     15 C          -0.0564    7.2431    0.8637 C.ar    1  LIG1        0.0832
     16 N           0.1738    5.9169    1.1525 N.ar    1  LIG1       -0.3491
     17 H           0.0876    5.4997    2.0506 H       1  LIG1        0.1661
     18 C           0.8412    5.9193   -2.2586 C.3     1  LIG1       -0.0376
     19 H           1.8498    6.2205   -2.4505 H       1  LIG1        0.0278
     20 H           0.1784    6.4650   -2.8971 H       1  LIG1        0.0278
     21 H           0.7392    4.8716   -2.4505 H       1  LIG1        0.0278
     22 H           0.0497    8.5504   -1.1119 H       1  LIG1        0.0642
     23 C          -0.4186    8.0862    1.7846 C.ar    1  LIG1        0.1565
     24 C          -0.1367    9.4046    2.0767 C.ar    1  LIG1        0.0181
     25 C          -0.8914    9.7362    3.2672 C.ar    1  LIG1        0.0760
     26 C          -1.5849    8.5980    3.6237 C.ar    1  LIG1        0.1726
     27 O          -1.3099    7.5670    2.7247 O.2     1  LIG1       -0.4497
     28 C           0.6483   10.2132    1.4280 C.3     1  LIG1       -0.0343
     29 H           0.4120   11.2241    1.6872 H       1  LIG1        0.0279
     30 H           0.5130   10.0739    0.3757 H       1  LIG1        0.0279
     31 H           1.6657   10.0069    1.6872 H       1  LIG1        0.0279
     32 N          -0.8963   10.8912    3.8639 N.pl3   1  LIG1       -0.3548
     33 H          -0.0820   11.4072    3.5981 H       1  LIG1        0.1424
     34 H          -1.7150   11.4003    3.5981 H       1  LIG1        0.1424
     35 C          -2.4099    8.2759    4.5753 C.ar    1  LIG1        0.0842
     36 C          -2.9679    7.0771    4.8907 C.ar    1  LIG1       -0.0304
     37 C          -3.8058    7.2828    6.0336 C.ar    1  LIG1       -0.0325
     38 C          -3.7216    8.5979    6.3675 C.ar    1  LIG1        0.0052
     39 N          -2.8684    9.2097    5.4770 N.ar    1  LIG1       -0.3580
     40 H          -2.6220   10.1726    5.4843 H       1  LIG1        0.1654
     41 H          -4.2949    9.2632    7.3260 H       1  LIG1        0.0809
     42 H          -2.7752    5.9533    4.2662 H       1  LIG1        0.0642
     43 C          -4.5171    6.3806    6.6427 C.3     1  LIG1       -0.0383
     44 H          -3.8798    5.7778    7.2555 H       1  LIG1        0.0278
     45 H          -5.0047    5.7619    5.9185 H       1  LIG1        0.0278
     46 H          -5.2520    6.8596    7.2554 H       1  LIG1        0.0278
@<TRIPOS>BOND
     1    20    18    1
     2    19    18    1
     3    21    18    1
     4    18    13    1
     5    22    14    1
     6    13    14   ar
     7    13    12   ar
     8     9     7    1
     9    14    15   ar
    10     5     4   ar
    11     5     1   ar
    12     4    12    1
    13     4     3   ar
    14    12    16   ar
    15     1     6    1
    16     1     2   ar
    17    11     3    1
    18     3     2   ar
    19     2     7    1
    20     7    10    1
    21     7     8    1
    22    30    28    1
    23    15    16   ar
    24    15    23    1
    25    16    17    1
    26    28    31    1
    27    28    29    1
    28    28    24    1
    29    23    24   ar
    30    23    27   ar
    31    24    25   ar
    32    27    26   ar
    33    25    26   ar
    34    25    32    1
    35    34    32    1
    36    33    32    1
    37    26    35    1
    38    42    36    1
    39    35    36   ar
    40    35    39   ar
    41    36    37   ar
    42    39    40    1
    43    39    38   ar
    44    45    43    1
    45    37    38   ar
    46    37    43    1
    47    38    41    1
    48    43    46    1
    49    43    44    1
