@<TRIPOS>MOLECULE
mol_data/noopt/geoms/mol2/12ia12ia-12ia12ia.out
 42 45 0 0 0
SMALL
GASTEIGER

@<TRIPOS>ATOM
      1 C           0.1763    1.8460    0.0000 C.ar    1  LIG1        0.0956
      2 C           1.5558    1.8460    0.0000 C.ar    1  LIG1       -0.0120
      3 C           1.9706    3.2334    0.0000 C.ar    1  LIG1       -0.0099
      4 C           0.8165    3.9895   -0.0001 C.ar    1  LIG1        0.1702
      5 O          -0.3030    3.1567   -0.0002 O.2     1  LIG1       -0.4596
      6 H          -0.7504    0.9343    0.0000 H       1  LIG1        0.1032
      7 C           2.3517    0.8177    0.0001 C.3     1  LIG1       -0.0367
      8 H           3.2608    1.0704    0.5046 H       1  LIG1        0.0278
      9 H           2.5701    0.5356   -1.0087 H       1  LIG1        0.0278
     10 H           1.8790    0.0009    0.5045 H       1  LIG1        0.0278
     11 H           3.1998    3.6567    0.0000 H       1  LIG1        0.0659
     12 C           0.5416    5.2601   -0.0001 C.ar    1  LIG1        0.1736
     13 C          -0.6119    6.0167   -0.0001 C.ar    1  LIG1       -0.0009
     14 C          -0.1979    7.4043   -0.0001 C.ar    1  LIG1       -0.0091
     15 C           1.1818    7.4036   -0.0002 C.ar    1  LIG1        0.1713
     16 O           1.6612    6.0932   -0.0003 O.2     1  LIG1       -0.4484
     17 C          -1.8414    5.5933   -0.0000 C.3     1  LIG1       -0.0360
     18 H          -1.8941    4.6511    0.5044 H       1  LIG1        0.0279
     19 H          -2.1787    5.4770   -1.0089 H       1  LIG1        0.0279
     20 H          -2.4630    6.3032    0.5043 H       1  LIG1        0.0279
     21 H          -0.9936    8.4323   -0.0001 H       1  LIG1        0.0659
     22 C           2.1085    8.3153   -0.0002 C.ar    1  LIG1        0.1736
     23 C           3.4880    8.3153   -0.0001 C.ar    1  LIG1       -0.0009
     24 C           3.9028    9.7027   -0.0001 C.ar    1  LIG1       -0.0091
     25 C           2.7487   10.4588   -0.0002 C.ar    1  LIG1        0.1712
     26 O           1.6292    9.6260   -0.0003 O.2     1  LIG1       -0.4484
     27 C           4.2839    7.2870   -0.0000 C.3     1  LIG1       -0.0360
     28 H           5.1931    7.5396    0.5044 H       1  LIG1        0.0279
     29 H           4.5023    7.0049   -1.0089 H       1  LIG1        0.0279
     30 H           3.8112    6.4702    0.5043 H       1  LIG1        0.0279
     31 H           5.1320   10.1260   -0.0001 H       1  LIG1        0.0659
     32 C           2.4738   11.7294   -0.0002 C.ar    1  LIG1        0.1726
     33 C           3.2115   12.8951   -0.0002 C.ar    1  LIG1       -0.0017
     34 C           2.2609   13.9875   -0.0002 C.ar    1  LIG1       -0.0203
     35 C           1.0048   13.4165   -0.0003 C.ar    1  LIG1        0.0930
     36 O           1.1100   12.0252   -0.0004 O.2     1  LIG1       -0.4596
     37 H          -0.2159   13.8636   -0.0003 H       1  LIG1        0.1029
     38 C           4.5060   13.0178   -0.0001 C.3     1  LIG1       -0.0360
     39 H           4.7786   13.9212    0.5044 H       1  LIG1        0.0279
     40 H           4.8612   13.0515   -1.0089 H       1  LIG1        0.0279
     41 H           4.9434   12.1816    0.5043 H       1  LIG1        0.0279
     42 H           2.5604   15.2525   -0.0002 H       1  LIG1        0.0652
@<TRIPOS>BOND
     1    40    38    1
     2    19    17    1
     3    29    27    1
     4     9     7    1
     5    36    35   ar
     6    36    32   ar
     7    26    25   ar
     8    26    22   ar
     9    35    37    1
    10    35    34   ar
    11    16    15   ar
    12    16    12   ar
    13    25    32    1
    14    25    24   ar
    15    32    33   ar
    16     5     4   ar
    17     5     1   ar
    18    33    34   ar
    19    33    38    1
    20    34    42    1
    21    15    22    1
    22    15    14   ar
    23    22    23   ar
    24    23    24   ar
    25    23    27    1
    26    13    14   ar
    27    13    12   ar
    28    13    17    1
    29    21    14    1
    30    24    31    1
    31     4    12    1
    32     4     3   ar
    33    38    41    1
    34    38    39    1
    35    17    20    1
    36    17    18    1
    37    27    30    1
    38    27    28    1
    39     2     3   ar
    40     2     1   ar
    41     2     7    1
    42     6     1    1
    43     3    11    1
    44     7    10    1
    45     7     8    1
