@<TRIPOS>MOLECULE
mol_data/noopt/geoms/mol2/12ia12ia12ia12ia.out
 42 45 0 0 0
SMALL
GASTEIGER

@<TRIPOS>ATOM
      1 C           0.1763    1.8460    0.0000 C.ar    1  LIG1        0.0956
      2 C           1.5558    1.8460    0.0000 C.ar    1  LIG1       -0.0120
      3 C           1.9706    3.2334    0.0000 C.ar    1  LIG1       -0.0099
      4 C           0.8165    3.9895   -0.0001 C.ar    1  LIG1        0.1702
      5 O          -0.3030    3.1567   -0.0002 O.2     1  LIG1       -0.4596
      6 H          -0.7504    0.9343    0.0000 H       1  LIG1        0.1032
      7 C           2.3517    0.8177    0.0001 C.3     1  LIG1       -0.0367
      8 H           3.2608    1.0704    0.5046 H       1  LIG1        0.0278
      9 H           2.5701    0.5356   -1.0087 H       1  LIG1        0.0278
     10 H           1.8790    0.0009    0.5045 H       1  LIG1        0.0278
     11 H           3.1998    3.6567    0.0000 H       1  LIG1        0.0659
     12 C           0.5416    5.2601   -0.0001 C.ar    1  LIG1        0.1736
     13 C           1.2792    6.4258   -0.0001 C.ar    1  LIG1       -0.0009
     14 C           0.3286    7.5182   -0.0001 C.ar    1  LIG1       -0.0091
     15 C          -0.9274    6.9472   -0.0002 C.ar    1  LIG1        0.1713
     16 O          -0.8223    5.5559   -0.0003 O.2     1  LIG1       -0.4484
     17 C           2.5738    6.5485    0.0000 C.3     1  LIG1       -0.0360
     18 H           2.8464    7.4519    0.5045 H       1  LIG1        0.0279
     19 H           2.9289    6.5822   -1.0088 H       1  LIG1        0.0279
     20 H           3.0112    5.7123    0.5044 H       1  LIG1        0.0279
     21 H           0.6282    8.7832   -0.0001 H       1  LIG1        0.0659
     22 C          -2.1481    7.3943   -0.0002 C.ar    1  LIG1        0.1736
     23 C          -2.7387    8.6410   -0.0002 C.ar    1  LIG1       -0.0009
     24 C          -4.1701    8.4218   -0.0002 C.ar    1  LIG1       -0.0091
     25 C          -4.3593    7.0551   -0.0003 C.ar    1  LIG1        0.1712
     26 O          -3.1273    6.4000   -0.0004 O.2     1  LIG1       -0.4484
     27 C          -2.1502    9.8005   -0.0001 C.3     1  LIG1       -0.0360
     28 H          -2.7678   10.5139    0.5044 H       1  LIG1        0.0279
     29 H          -1.9888   10.1187   -1.0089 H       1  LIG1        0.0279
     30 H          -1.2097    9.7231    0.5043 H       1  LIG1        0.0279
     31 H          -5.0789    9.3514   -0.0002 H       1  LIG1        0.0659
     32 C          -5.3898    6.2627   -0.0003 C.ar    1  LIG1        0.1726
     33 C          -6.7591    6.4302   -0.0003 C.ar    1  LIG1       -0.0017
     34 C          -7.3393    5.1034   -0.0003 C.ar    1  LIG1       -0.0203
     35 C          -6.2855    4.2128   -0.0004 C.ar    1  LIG1        0.0930
     36 O          -5.0732    4.9035   -0.0005 O.2     1  LIG1       -0.4596
     37 H          -6.1669    2.9182   -0.0004 H       1  LIG1        0.1029
     38 C          -7.4242    7.5475   -0.0002 C.3     1  LIG1       -0.0360
     39 H          -8.3574    7.4071    0.5043 H       1  LIG1        0.0279
     40 H          -7.6068    7.8540   -1.0090 H       1  LIG1        0.0279
     41 H          -6.8559    8.3008    0.5042 H       1  LIG1        0.0279
     42 H          -8.6107    4.8325   -0.0003 H       1  LIG1        0.0652
@<TRIPOS>BOND
     1    40    38    1
     2    29    27    1
     3    19    17    1
     4     9     7    1
     5    36    35   ar
     6    36    32   ar
     7    37    35    1
     8    35    34   ar
     9    26    25   ar
    10    26    22   ar
    11    33    32   ar
    12    33    34   ar
    13    33    38    1
    14    16    15   ar
    15    16    12   ar
    16    25    32    1
    17    25    24   ar
    18    34    42    1
    19    31    24    1
    20    22    23   ar
    21    22    15    1
    22    38    41    1
    23    38    39    1
    24    24    23   ar
    25    23    27    1
    26     5     4   ar
    27     5     1   ar
    28    15    14   ar
    29    21    14    1
    30     4    12    1
    31     4     3   ar
    32    14    13   ar
    33    27    30    1
    34    27    28    1
    35    13    12   ar
    36    13    17    1
    37     2     3   ar
    38     2     1   ar
    39     2     7    1
    40     3    11    1
    41     6     1    1
    42    17    20    1
    43    17    18    1
    44     7    10    1
    45     7     8    1
