@<TRIPOS>MOLECULE
mol_data/noopt/geoms/mol2/12ia12ia-12ia-12ia.out
 42 45 0 0 0
SMALL
GASTEIGER

@<TRIPOS>ATOM
      1 C           0.1763    1.8460    0.0000 C.ar    1  LIG1        0.0956
      2 C           1.5558    1.8460    0.0000 C.ar    1  LIG1       -0.0120
      3 C           1.9706    3.2334    0.0000 C.ar    1  LIG1       -0.0099
      4 C           0.8165    3.9895   -0.0001 C.ar    1  LIG1        0.1702
      5 O          -0.3030    3.1567   -0.0002 O.2     1  LIG1       -0.4596
      6 H          -0.7504    0.9343    0.0000 H       1  LIG1        0.1032
      7 C           2.3517    0.8177    0.0001 C.3     1  LIG1       -0.0367
      8 H           3.2608    1.0704    0.5046 H       1  LIG1        0.0278
      9 H           2.5701    0.5356   -1.0087 H       1  LIG1        0.0278
     10 H           1.8790    0.0009    0.5045 H       1  LIG1        0.0278
     11 H           3.1998    3.6567    0.0000 H       1  LIG1        0.0659
     12 C           0.5416    5.2601   -0.0001 C.ar    1  LIG1        0.1736
     13 C          -0.6119    6.0167   -0.0001 C.ar    1  LIG1       -0.0009
     14 C          -0.1979    7.4043   -0.0001 C.ar    1  LIG1       -0.0091
     15 C           1.1818    7.4036   -0.0002 C.ar    1  LIG1        0.1713
     16 O           1.6612    6.0932   -0.0003 O.2     1  LIG1       -0.4484
     17 C          -1.8414    5.5933   -0.0000 C.3     1  LIG1       -0.0360
     18 H          -1.8941    4.6511    0.5044 H       1  LIG1        0.0279
     19 H          -2.1787    5.4770   -1.0089 H       1  LIG1        0.0279
     20 H          -2.4630    6.3032    0.5043 H       1  LIG1        0.0279
     21 H          -0.9936    8.4323   -0.0001 H       1  LIG1        0.0659
     22 C           2.1085    8.3153   -0.0002 C.ar    1  LIG1        0.1736
     23 C           2.1310    9.6946   -0.0002 C.ar    1  LIG1       -0.0009
     24 C           3.5250   10.0867   -0.0001 C.ar    1  LIG1       -0.0091
     25 C           4.2622    8.9204   -0.0002 C.ar    1  LIG1        0.1712
     26 O           3.4112    7.8147   -0.0003 O.2     1  LIG1       -0.4484
     27 C           1.1159   10.5071   -0.0001 C.3     1  LIG1       -0.0360
     28 H           0.2915   10.0479    0.5044 H       1  LIG1        0.0279
     29 H           0.8373   10.7300   -1.0089 H       1  LIG1        0.0279
     30 H           1.3834   11.4121    0.5043 H       1  LIG1        0.0279
     31 H           3.9683   11.3088   -0.0001 H       1  LIG1        0.0659
     32 C           5.5281    8.6248   -0.0002 C.ar    1  LIG1        0.1726
     33 C           6.2658    7.4591   -0.0001 C.ar    1  LIG1       -0.0017
     34 C           7.6600    7.8504   -0.0001 C.ar    1  LIG1       -0.0203
     35 C           7.6818    9.2300   -0.0002 C.ar    1  LIG1        0.0930
     36 O           6.3794    9.7307   -0.0003 O.2     1  LIG1       -0.4596
     37 H           8.6085   10.1417   -0.0002 H       1  LIG1        0.1029
     38 C           5.8224    6.2367   -0.0000 C.3     1  LIG1       -0.0360
     39 H           6.5220    5.6035    0.5044 H       1  LIG1        0.0279
     40 H           5.7008    5.9013   -1.0089 H       1  LIG1        0.0279
     41 H           4.8794    6.1994    0.5043 H       1  LIG1        0.0279
     42 H           8.6749    7.0381   -0.0001 H       1  LIG1        0.0652
@<TRIPOS>BOND
     1    29    27    1
     2    19    17    1
     3    40    38    1
     4     9     7    1
     5    36    35   ar
     6    36    32   ar
     7    26    25   ar
     8    26    22   ar
     9    16    15   ar
    10    16    12   ar
    11    35    37    1
    12    35    34   ar
    13     5     4   ar
    14     5     1   ar
    15    25    32    1
    16    25    24   ar
    17    15    22    1
    18    15    14   ar
    19    32    33   ar
    20    23    22   ar
    21    23    24   ar
    22    23    27    1
    23    33    34   ar
    24    33    38    1
    25    13    14   ar
    26    13    12   ar
    27    13    17    1
    28    24    31    1
    29    21    14    1
    30    12     4    1
    31     4     3   ar
    32    34    42    1
    33    27    30    1
    34    27    28    1
    35    17    20    1
    36    17    18    1
    37    38    41    1
    38    38    39    1
    39    11     3    1
    40     6     1    1
    41     3     2   ar
    42     2     1   ar
    43     2     7    1
    44     7    10    1
    45     7     8    1
