@<TRIPOS>MOLECULE
mol_data/noopt/geoms/mol2/12id6eh-6el-13ee-13eh-6ad-13ih13ef-.out
 99 107 0 0 0
SMALL
GASTEIGER

@<TRIPOS>ATOM
      1 C           0.1763    1.8460    0.0000 C.ar    1  LIG1        0.0968
      2 C           1.5558    1.8460    0.0000 C.ar    1  LIG1        0.0053
      3 C           1.9706    3.2334    0.0000 C.ar    1  LIG1        0.1003
      4 C           0.8165    3.9895   -0.0001 C.ar    1  LIG1        0.1551
      5 O          -0.3030    3.1567   -0.0002 O.2     1  LIG1       -0.4612
      6 H          -0.7504    0.9343    0.0000 H       1  LIG1        0.1032
      7 C           2.3517    0.8177    0.0001 C.3     1  LIG1       -0.0355
      8 H           3.2608    1.0704    0.5046 H       1  LIG1        0.0279
      9 H           2.5701    0.5356   -1.0087 H       1  LIG1        0.0279
     10 H           1.8790    0.0009    0.5045 H       1  LIG1        0.0279
     11 N           4.2839    4.0300    0.0000 N.1     1  LIG1       -0.1907
     12 C           3.1998    3.6567    0.0000 C.1     1  LIG1        0.1032
     13 C          -0.7951    5.6985   -0.0211 C.ar    1  LIG1        0.1246
     14 C           0.5416    5.2601   -0.0001 C.ar    1  LIG1        0.0541
     15 C           1.5571    6.2179    0.0209 C.ar    1  LIG1       -0.0256
     16 C           1.2066    7.5691    0.0200 C.ar    1  LIG1        0.0517
     17 C          -0.1586    7.9086   -0.0020 C.ar    1  LIG1        0.0957
     18 N          -1.1512    6.9977   -0.0223 N.ar    1  LIG1       -0.2358
     19 H           2.6132    5.9133    0.0367 H       1  LIG1        0.0644
     20 C          -1.7753    4.8448   -0.0410 C.1     1  LIG1       -0.0491
     21 C          -2.6810    4.0560   -0.0594 C.1     1  LIG1       -0.1124
     22 H          -3.4878    3.3534   -0.0758 H       1  LIG1        0.1232
     23 N           2.1148    8.4990    0.0389 N.pl3   1  LIG1       -0.3563
     24 H           2.9366    8.1718   -0.4276 H       1  LIG1        0.1424
     25 H           1.7683    9.3128   -0.4276 H       1  LIG1        0.1424
     26 C          -1.9026    9.4822   -0.0256 C.ar    1  LIG1        0.1233
     27 C          -0.5350    9.1529   -0.0037 C.ar    1  LIG1        0.0395
     28 C           0.4001   10.1894    0.0164 C.ar    1  LIG1       -0.0059
     29 C          -0.0582   11.5080    0.0138 C.ar    1  LIG1        0.1481
     30 C          -1.4463   11.7365   -0.0090 C.ar    1  LIG1        0.1312
     31 N          -2.3622   10.7486   -0.0284 N.ar    1  LIG1       -0.2326
     32 H           1.4772    9.9709    0.0328 H       1  LIG1        0.0662
     33 C          -2.8109    8.5524   -0.0447 C.1     1  LIG1       -0.0491
     34 C          -3.6501    7.6931   -0.0623 C.1     1  LIG1       -0.1124
     35 H          -4.3977    6.9278   -0.0781 H       1  LIG1        0.1232
     36 O           0.7722   12.5081    0.0318 O.3     1  LIG1       -0.4929
     37 C           2.1142   12.0142    0.0383 C.3     1  LIG1        0.0789
     38 H           2.7973   12.8376    0.0530 H       1  LIG1        0.0660
     39 H           2.2671   11.4085    0.9071 H       1  LIG1        0.0660
     40 H           2.2824   11.4268   -0.8401 H       1  LIG1        0.0660
     41 C          -1.9216   12.9465   -0.0123 C.ar    1  LIG1        0.0858
     42 C          -1.2812   14.1456   -0.0148 C.ar    1  LIG1        0.0669
     43 C          -2.2853   15.1666   -0.0168 C.ar    1  LIG1        0.0598
     44 C          -3.4951   14.5465   -0.0171 C.ar    1  LIG1        0.0808
     45 N          -3.2770   13.1872   -0.0139 N.ar    1  LIG1       -0.3497
     46 H          -3.9857   12.4902   -0.0135 H       1  LIG1        0.1661
     47 C           0.0059   14.3279   -0.0140 C.1     1  LIG1       -0.0663
     48 C           1.1952   14.4963   -0.0132 C.1     1  LIG1       -0.1138
     49 H           2.2547   14.6463   -0.0125 H       1  LIG1        0.1232
     50 C          -2.0815   16.4505   -0.0185 C.1     1  LIG1       -0.1080
     51 C          -1.8932   17.6369   -0.0200 C.2     1  LIG1       -0.0112
     52 H          -1.7255   18.6936   -0.0214 H       1  LIG1        0.0712
     53 C          -4.6970   15.0420   -0.0188 C.ar    1  LIG1        0.0814
     54 C          -5.1181   16.3344   -0.0037 C.ar    1  LIG1        0.0650
     55 C          -6.5500   16.3177   -0.0132 C.ar    1  LIG1        0.0659
     56 C          -6.9408   15.0159   -0.0354 C.ar    1  LIG1        0.0706
     57 N          -5.8095   14.2315   -0.0385 N.ar    1  LIG1       -0.3505
     58 H          -5.7979   13.2376   -0.0532 H       1  LIG1        0.1660
     59 C          -4.3579   17.3888    0.0170 C.1     1  LIG1       -0.1074
     60 C          -3.6555   18.3630    0.0362 C.2     1  LIG1       -0.0112
     61 H          -3.0298   19.2308    0.0533 H       1  LIG1        0.0712
     62 N          -7.3348   17.3541   -0.0029 N.pl3   1  LIG1       -0.3554
     63 H          -6.8873   18.1157   -0.4717 H       1  LIG1        0.1424
     64 H          -8.1891   17.1299   -0.4717 H       1  LIG1        0.1424
     65 C          -8.2928   13.0953   -0.0806 C.ar    1  LIG1        0.0376
     66 C          -8.1307   14.4925   -0.0511 C.ar    1  LIG1        0.0195
     67 C          -9.2724   15.2960   -0.0388 C.ar    1  LIG1       -0.0316
     68 C         -10.5261   14.6824   -0.0565 C.ar    1  LIG1        0.0797
     69 C         -10.5856   13.2770   -0.0860 C.ar    1  LIG1        0.1047
     70 N          -9.4944   12.4867   -0.0980 N.ar    1  LIG1       -0.2516
     71 H          -9.1853   16.3915   -0.0167 H       1  LIG1        0.0638
     72 H          -7.2601   12.3056   -0.0930 H       1  LIG1        0.0836
     73 N         -12.5830   16.0071   -0.0372 N.1     1  LIG1       -0.1908
     74 C         -11.6190   15.3863   -0.0462 C.1     1  LIG1        0.1014
     75 C         -11.7295   12.6595   -0.1033 C.ar    1  LIG1        0.0714
     76 C         -12.9970   13.1507   -0.0988 C.ar    1  LIG1       -0.0023
     77 C         -13.8896   12.0311   -0.1239 C.ar    1  LIG1        0.0553
     78 C         -13.1282   10.9051   -0.1445 C.ar    1  LIG1        0.0859
     79 N         -11.8051   11.2852   -0.1315 N.ar    1  LIG1       -0.3501
     80 H         -11.0278   10.6657   -0.1416 H       1  LIG1        0.1661
     81 C         -13.3332   14.4065   -0.0744 C.3     1  LIG1       -0.0359
     82 H         -14.2669   14.5160    0.4367 H       1  LIG1        0.0279
     83 H         -13.4303   14.7693   -1.0763 H       1  LIG1        0.0279
     84 H         -12.5790   14.9678    0.4366 H       1  LIG1        0.0279
     85 N         -15.1887   12.0788   -0.1271 N.pl3   1  LIG1       -0.3561
     86 H         -15.4907   12.9069   -0.5993 H       1  LIG1        0.1424
     87 H         -15.5506   11.2750   -0.5994 H       1  LIG1        0.1424
     88 C         -13.4752    9.6525   -0.1710 C.ar    1  LIG1        0.0839
     89 C         -14.7075    9.0786   -0.1727 C.ar    1  LIG1        0.0927
     90 C         -14.5183    7.6596   -0.2072 C.ar    1  LIG1        0.1500
     91 C         -13.1788    7.4288   -0.2268 C.ar    1  LIG1        0.0454
     92 N         -12.5364    8.6462   -0.2043 N.ar    1  LIG1       -0.3554
     93 H         -11.5512    8.7777   -0.2116 H       1  LIG1        0.1655
     94 H         -12.5158    6.3111   -0.2597 H       1  LIG1        0.0845
     95 C         -15.8459    9.7058   -0.1462 C.1     1  LIG1       -0.0638
     96 C         -16.8977   10.2854   -0.1217 C.1     1  LIG1       -0.1137
     97 H         -17.8347   10.8016   -0.0999 H       1  LIG1        0.1232
     98 O         -15.4526    6.7557   -0.2183 O.3     1  LIG1       -0.5040
     99 H         -15.0537    5.8825   -0.2211 H       1  LIG1        0.2923
@<TRIPOS>BOND
     1    83    81    1
     2     9     7    1
     3    40    37    1
     4    87    85    1
     5    86    85    1
     6    64    62    1
     7    63    62    1
     8    25    23    1
     9    24    23    1
    10    94    91    1
    11    91    90   ar
    12    91    92   ar
    13    99    98    1
    14    98    90    1
    15    93    92    1
    16    90    89   ar
    17    92    88   ar
    18    89    88   ar
    19    89    95    1
    20    88    78    1
    21    95    96    3
    22    78    79   ar
    23    78    77   ar
    24    80    79    1
    25    79    75   ar
    26    85    77    1
    27    77    76   ar
    28    96    97    1
    29    75    76   ar
    30    75    69    1
    31    76    81    1
    32    70    69   ar
    33    70    65   ar
    34    72    65    1
    35    69    68   ar
    36    65    66   ar
    37    35    34    1
    38    22    21    1
    39    81    84    1
    40    81    82    1
    41    34    33    3
    42    21    20    3
    43    68    74    1
    44    68    67   ar
    45    58    57    1
    46    66    67   ar
    47    66    56    1
    48    74    73    3
    49    33    26    1
    50    20    13    1
    51    67    71    1
    52    57    56   ar
    53    57    53   ar
    54    56    55   ar
    55    31    26   ar
    56    31    30   ar
    57    26    27   ar
    58    18    13   ar
    59    18    17   ar
    60    52    51    1
    61    13    14   ar
    62    51    50    2
    63    51    60    1
    64    53    44    2
    65    53    54   ar
    66    50    43    2
    67    44    43   ar
    68    44    45   ar
    69    43    42   ar
    70    42    47    1
    71    42    41   ar
    72    47    48    3
    73    45    46    1
    74    45    41   ar
    75    48    49    1
    76    55    54   ar
    77    55    62    1
    78    41    30    1
    79    30    29   ar
    80    54    59    2
    81    27    17    1
    82    27    28   ar
    83    17    16   ar
    84     5     4   ar
    85     5     1   ar
    86     4    14    1
    87     4     3   ar
    88    14    15   ar
    89     2     3   ar
    90     2     1   ar
    91     2     7    1
    92     3    12    1
    93     6     1    1
    94    11    12    3
    95     7    10    1
    96     7     8    1
    97    29    28   ar
    98    29    36    1
    99    28    32    1
   100    59    60    2
   101    16    15   ar
   102    16    23    1
   103    15    19    1
   104    36    37    1
   105    60    61    1
   106    37    38    1
   107    37    39    1
