@<TRIPOS>MOLECULE
mol_data/noopt/geoms/mol2/12id13hl13di(180)12hl(50).out
 52 55 0 0 0
SMALL
GASTEIGER

@<TRIPOS>ATOM
      1 C           0.1763    1.8460    0.0000 C.ar    1  LIG1        0.0968
      2 C           1.5558    1.8460    0.0000 C.ar    1  LIG1        0.0054
      3 C           1.9706    3.2334    0.0000 C.ar    1  LIG1        0.1018
      4 C           0.8165    3.9895   -0.0001 C.ar    1  LIG1        0.1703
      5 O          -0.3030    3.1567   -0.0002 O.2     1  LIG1       -0.4598
      6 H          -0.7504    0.9343    0.0000 H       1  LIG1        0.1032
      7 C           2.3517    0.8177    0.0001 C.3     1  LIG1       -0.0355
      8 H           3.2608    1.0704    0.5046 H       1  LIG1        0.0279
      9 H           2.5701    0.5356   -1.0087 H       1  LIG1        0.0279
     10 H           1.8790    0.0009    0.5045 H       1  LIG1        0.0279
     11 N           4.2839    4.0300    0.0000 N.1     1  LIG1       -0.1907
     12 C           3.1998    3.6567    0.0000 C.1     1  LIG1        0.1033
     13 C           0.5416    5.2601   -0.0001 C.ar    1  LIG1        0.1084
     14 C           1.3660    6.3408    0.0161 C.ar    1  LIG1        0.0962
     15 C           0.5390    7.5098    0.0084 C.ar    1  LIG1        0.1680
     16 C          -0.7545    7.0921   -0.0139 C.ar    1  LIG1        0.1088
     17 N          -0.7574    5.7154   -0.0188 N.ar    1  LIG1       -0.3461
     18 H          -1.5687    5.1413   -0.0340 H       1  LIG1        0.1662
     19 N           2.6656    6.3141    0.0365 N.pl3   1  LIG1       -0.3534
     20 H           2.9894    5.4907   -0.4296 H       1  LIG1        0.1425
     21 H           3.0231    7.1233   -0.4296 H       1  LIG1        0.1425
     22 O           0.9462    8.7444    0.0202 O.3     1  LIG1       -0.4911
     23 C           2.3758    8.7754    0.0244 C.3     1  LIG1        0.0790
     24 H           2.7106    9.7917    0.0339 H       1  LIG1        0.0660
     25 H           2.7410    8.2715    0.8949 H       1  LIG1        0.0660
     26 H           2.7458    8.2862   -0.8523 H       1  LIG1        0.0660
     27 C          -1.8611    7.7741   -0.0284 C.ar    1  LIG1        0.0849
     28 C          -3.1546    7.3562   -0.0378 C.ar    1  LIG1        0.0821
     29 C          -3.9816    8.5251   -0.0539 C.ar    1  LIG1       -0.0041
     30 C          -3.1571    9.6060   -0.0519 C.ar    1  LIG1        0.0887
     31 N          -1.8580    9.1507   -0.0368 N.ar    1  LIG1       -0.3492
     32 H          -1.0466    9.7248   -0.0320 H       1  LIG1        0.1661
     33 N          -3.9213    5.0328   -0.0313 N.1     1  LIG1       -0.1908
     34 C          -3.5620    6.1217   -0.0343 C.1     1  LIG1        0.1016
     35 C          -5.2816    8.5519   -0.0674 C.3     1  LIG1       -0.0364
     36 H          -5.6614    7.6859    0.4333 H       1  LIG1        0.0279
     37 H          -5.6277    8.5590   -1.0799 H       1  LIG1        0.0279
     38 H          -5.6254    9.4329    0.4332 H       1  LIG1        0.0279
     39 C          -3.4319   10.8766   -0.0626 C.ar    1  LIG1        0.1754
     40 C          -2.9868   11.9848    0.6279 C.ar    1  LIG1        0.1147
     41 C          -3.7261   13.1186    0.1133 C.ar    1  LIG1        0.1789
     42 C          -4.5742   12.6278   -0.8580 C.ar    1  LIG1        0.1361
     43 O          -4.4112   11.2479   -0.9850 O.2     1  LIG1       -0.4558
     44 H          -5.4624   13.1402   -1.6570 H       1  LIG1        0.1068
     45 N          -2.0832   12.0307    1.5614 N.pl3   1  LIG1       -0.3522
     46 H          -1.4721   11.2442    1.4727 H       1  LIG1        0.1425
     47 H          -1.5549   12.8751    1.4727 H       1  LIG1        0.1425
     48 O          -3.5959   14.3504    0.5083 O.3     1  LIG1       -0.4901
     49 C          -2.2076   14.6609    0.6532 C.3     1  LIG1        0.0790
     50 H          -2.1009   15.6748    0.9781 H       1  LIG1        0.0660
     51 H          -1.7694   14.0064    1.3774 H       1  LIG1        0.0660
     52 H          -1.7136   14.5340   -0.2874 H       1  LIG1        0.0660
@<TRIPOS>BOND
     1    44    42    1
     2    37    35    1
     3     9     7    1
     4    43    42   ar
     5    43    39   ar
     6    42    41   ar
     7    26    23    1
     8    21    19    1
     9    20    19    1
    10    52    49    1
    11    35    29    1
    12    35    38    1
    13    35    36    1
    14    39    30    1
    15    39    40   ar
    16    29    30   ar
    17    29    28   ar
    18    30    31   ar
    19    28    34    1
    20    28    27   ar
    21    31    32    1
    22    31    27   ar
    23    34    33    3
    24    18    17    1
    25    27    16    1
    26    17    16   ar
    27    17    13   ar
    28    16    15   ar
    29     5     4   ar
    30     5     1   ar
    31     4    13    1
    32     4     3   ar
    33    13    14   ar
    34     2     3   ar
    35     2     1   ar
    36     2     7    1
    37     3    12    1
    38     1     6    1
    39    11    12    3
    40     7    10    1
    41     7     8    1
    42    15    14   ar
    43    15    22    1
    44    14    19    1
    45    22    23    1
    46    23    24    1
    47    23    25    1
    48    41    48    1
    49    41    40   ar
    50    48    49    1
    51    40    45    1
    52    49    50    1
    53    49    51    1
    54    47    45    1
    55    46    45    1
