@<TRIPOS>MOLECULE
mol_data/noopt/geoms/mol2/12id13af-12hh-4ia-13fe13ff-13aa12hf.out
 85 92 0 0 0
SMALL
GASTEIGER

@<TRIPOS>ATOM
      1 C           0.1763    1.8460    0.0000 C.ar    1  LIG1        0.0968
      2 C           1.5558    1.8460    0.0000 C.ar    1  LIG1        0.0054
      3 C           1.9706    3.2334    0.0000 C.ar    1  LIG1        0.1017
      4 C           0.8165    3.9895   -0.0001 C.ar    1  LIG1        0.1685
      5 O          -0.3030    3.1567   -0.0002 O.2     1  LIG1       -0.4599
      6 H          -0.7504    0.9343    0.0000 H       1  LIG1        0.1032
      7 C           2.3517    0.8177    0.0001 C.3     1  LIG1       -0.0355
      8 H           3.2608    1.0704    0.5046 H       1  LIG1        0.0279
      9 H           2.5701    0.5356   -1.0087 H       1  LIG1        0.0279
     10 H           1.8790    0.0009    0.5045 H       1  LIG1        0.0279
     11 N           4.2839    4.0300    0.0000 N.1     1  LIG1       -0.1907
     12 C           3.1998    3.6567    0.0000 C.1     1  LIG1        0.1033
     13 C           0.5416    5.2601   -0.0001 C.ar    1  LIG1        0.0875
     14 C           1.3662    6.3409   -0.0005 C.ar    1  LIG1        0.0090
     15 C           0.5391    7.5098    0.0008 C.ar    1  LIG1        0.1458
     16 C          -0.7546    7.0920    0.0002 C.ar    1  LIG1        0.1265
     17 N          -0.7576    5.7154    0.0001 N.ar    1  LIG1       -0.3463
     18 H          -1.5690    5.1412   -0.0005 H       1  LIG1        0.1662
     19 H           2.6659    6.3141   -0.0004 H       1  LIG1        0.0677
     20 O           0.9464    8.7444    0.0020 O.3     1  LIG1       -0.5045
     21 H           0.1873    9.3322    0.0023 H       1  LIG1        0.2922
     22 C          -1.8613    7.7741    0.0007 C.ar    1  LIG1        0.1777
     23 C          -2.1910    9.1135    0.0159 C.ar    1  LIG1        0.0942
     24 C          -3.6372    9.1849    0.0058 C.ar    1  LIG1        0.0927
     25 C          -4.0956    7.8837   -0.0150 C.ar    1  LIG1        0.1584
     26 O          -3.0194    6.9956   -0.0186 O.2     1  LIG1       -0.4494
     27 N          -1.3828   10.1316    0.0357 N.pl3   1  LIG1       -0.3535
     28 H          -0.5317    9.8907   -0.4306 H       1  LIG1        0.1425
     29 H          -1.8107   10.9059   -0.4306 H       1  LIG1        0.1425
     30 N          -4.3420   10.2772    0.0149 N.pl3   1  LIG1       -0.3536
     31 H          -3.8384   11.0027   -0.4542 H       1  LIG1        0.1425
     32 H          -5.2105   10.1175   -0.4542 H       1  LIG1        0.1425
     33 C          -6.4314    8.1032   -0.0184 C.ar    1  LIG1       -0.0391
     34 C          -7.6723    7.4375   -0.0357 C.ar    1  LIG1       -0.0489
     35 C          -5.2636    7.3133   -0.0315 C.ar    1  LIG1        0.0221
     36 C          -7.7495    6.0469   -0.0654 C.ar    1  LIG1        0.0022
     37 H          -8.5858    8.0278   -0.0257 H       1  LIG1        0.0627
     38 C          -5.3401    5.9250   -0.0612 C.ar    1  LIG1       -0.0501
     39 C          -6.5823    5.2822   -0.0784 C.ar    1  LIG1       -0.0518
     40 H          -4.4253    5.3379   -0.0708 H       1  LIG1        0.0625
     41 C          -6.4234    9.4032    0.0090 C.3     1  LIG1       -0.0390
     42 H          -7.2949    9.7546    0.5208 H       1  LIG1        0.0278
     43 H          -6.4211    9.7810   -0.9921 H       1  LIG1        0.0278
     44 H          -5.5476    9.7438    0.5207 H       1  LIG1        0.0278
     45 H          -6.6476    3.9841   -0.1060 H       1  LIG1        0.0624
     46 C          -8.9119    5.4651   -0.0808 C.ar    1  LIG1        0.0902
     47 C         -10.1636    5.9954   -0.0750 C.ar    1  LIG1        0.1581
     48 C         -11.0905    4.9040   -0.0983 C.ar    1  LIG1        0.0934
     49 C         -10.3644    3.7549   -0.1191 C.ar    1  LIG1        0.0863
     50 N          -9.0302    4.0939   -0.1080 N.ar    1  LIG1       -0.3490
     51 H          -8.2725    3.4506   -0.1186 H       1  LIG1        0.1661
     52 O         -10.4606    7.2608   -0.0510 O.3     1  LIG1       -0.5035
     53 H         -11.4149    7.3659   -0.0451 H       1  LIG1        0.2923
     54 C         -12.3875    4.9919   -0.0999 C.1     1  LIG1       -0.0638
     55 C         -13.5860    5.0731   -0.1014 C.1     1  LIG1       -0.1137
     56 H         -14.6535    5.1454   -0.1027 H       1  LIG1        0.1232
     57 C         -10.7501    2.5137   -0.1443 C.ar    1  LIG1        0.1105
     58 C         -11.9996    1.9783   -0.1451 C.ar    1  LIG1        0.1863
     59 C         -11.8546    0.5540   -0.1784 C.ar    1  LIG1        0.1863
     60 C         -10.5228    0.2818   -0.1981 C.ar    1  LIG1        0.1091
     61 N          -9.8430    1.4787   -0.1769 N.ar    1  LIG1       -0.3460
     62 H          -8.8542    1.5796   -0.1846 H       1  LIG1        0.1662
     63 O         -13.1180    2.6405   -0.1189 O.3     1  LIG1       -0.5019
     64 H         -13.8548    2.0251   -0.1125 H       1  LIG1        0.2924
     65 O         -12.8165   -0.3205   -0.1884 O.3     1  LIG1       -0.5019
     66 H         -12.4448   -1.2056   -0.1908 H       1  LIG1        0.2924
     67 C          -9.8948   -0.8560   -0.2301 C.ar    1  LIG1        0.0671
     68 C         -10.3741   -2.1281   -0.2355 C.ar    1  LIG1       -0.0342
     69 C          -9.2465   -3.0098   -0.2756 C.ar    1  LIG1       -0.0327
     70 C          -8.1277   -2.2378   -0.2947 C.ar    1  LIG1        0.0845
     71 N          -8.5201   -0.9185   -0.2664 N.ar    1  LIG1       -0.3505
     72 H          -7.9079   -0.1354   -0.2721 H       1  LIG1        0.1660
     73 H         -11.6263   -2.4762   -0.2077 H       1  LIG1        0.0639
     74 H          -9.2820   -4.3092   -0.2914 H       1  LIG1        0.0640
     75 C          -6.8721   -2.5727   -0.3313 C.ar    1  LIG1        0.1751
     76 C          -6.1718   -3.7609   -0.3590 C.ar    1  LIG1        0.1145
     77 C          -4.7665   -3.4133   -0.3948 C.ar    1  LIG1        0.1763
     78 C          -4.7013   -2.0351   -0.3866 C.ar    1  LIG1        0.1359
     79 O          -5.9868   -1.4940   -0.3478 O.2     1  LIG1       -0.4558
     80 H          -3.7468   -1.1528   -0.4062 H       1  LIG1        0.1068
     81 N          -6.6531   -4.9685   -0.3546 N.pl3   1  LIG1       -0.3522
     82 H          -7.5355   -4.9773   -0.8248 H       1  LIG1        0.1425
     83 H          -6.0186   -5.5819   -0.8249 H       1  LIG1        0.1425
     84 O          -3.7779   -4.2569   -0.4278 O.3     1  LIG1       -0.5024
     85 H          -2.9468   -3.7765   -0.4360 H       1  LIG1        0.2923
@<TRIPOS>BOND
     1     9     7    1
     2    43    41    1
     3    83    81    1
     4    82    81    1
     5    32    30    1
     6    31    30    1
     7    85    84    1
     8    29    27    1
     9    28    27    1
    10    84    77    1
    11    80    78    1
    12    77    78   ar
    13    77    76   ar
    14    78    79   ar
    15    76    81    1
    16    76    75   ar
    17    79    75   ar
    18    75    70    1
    19    70    69   ar
    20    70    71   ar
    21    74    69    1
    22    69    68   ar
    23    72    71    1
    24    71    67   ar
    25    68    67   ar
    26    68    73    1
    27    67    60    1
    28    60    59   ar
    29    60    61   ar
    30    66    65    1
    31    65    59    1
    32    62    61    1
    33    59    58   ar
    34    61    57   ar
    35    58    57   ar
    36    58    63    1
    37    57    49    1
    38    49    50   ar
    39    49    48   ar
    40    63    64    1
    41    51    50    1
    42    50    46   ar
    43    45    39    1
    44    56    55    1
    45    55    54    3
    46    54    48    1
    47    48    47   ar
    48    46    47   ar
    49    46    36    1
    50    39    36   ar
    51    39    38   ar
    52    47    52    1
    53    40    38    1
    54    36    34   ar
    55    38    35   ar
    56    52    53    1
    57    34    37    1
    58    34    33   ar
    59    35    33   ar
    60    35    25    1
    61    26    25   ar
    62    26    22   ar
    63    33    41    1
    64    25    24   ar
    65    18    17    1
    66    14    19    1
    67    14    13   ar
    68    14    15   ar
    69     5     4   ar
    70     5     1   ar
    71     4    13    1
    72     4     3   ar
    73    13    17   ar
    74     1     2   ar
    75     1     6    1
    76     3     2   ar
    77     3    12    1
    78     2     7    1
    79    12    11    3
    80    17    16   ar
    81     7    10    1
    82     7     8    1
    83    16    22    1
    84    16    15   ar
    85    22    23   ar
    86    15    20    1
    87    20    21    1
    88    24    30    1
    89    24    23   ar
    90    41    44    1
    91    41    42    1
    92    23    27    1
