@<TRIPOS>MOLECULE
mol_data/noopt/geoms/mol2/12id6hi(130)6ef(10)13lf(270).out
 52 55 0 0 0
SMALL
GASTEIGER

@<TRIPOS>ATOM
      1 C           0.1763    1.8460    0.0000 C.ar    1  LIG1        0.0968
      2 C           1.5558    1.8460    0.0000 C.ar    1  LIG1        0.0053
      3 C           1.9706    3.2334    0.0000 C.ar    1  LIG1        0.1003
      4 C           0.8165    3.9895   -0.0001 C.ar    1  LIG1        0.1556
      5 O          -0.3030    3.1567   -0.0002 O.2     1  LIG1       -0.4612
      6 H          -0.7504    0.9343    0.0000 H       1  LIG1        0.1032
      7 C           2.3517    0.8177    0.0001 C.3     1  LIG1       -0.0355
      8 H           3.2608    1.0704    0.5046 H       1  LIG1        0.0279
      9 H           2.5701    0.5356   -1.0087 H       1  LIG1        0.0279
     10 H           1.8790    0.0009    0.5045 H       1  LIG1        0.0279
     11 N           4.2839    4.0300    0.0000 N.1     1  LIG1       -0.1907
     12 C           3.1998    3.6567    0.0000 C.1     1  LIG1        0.1032
     13 C           1.1542    6.1202   -0.9298 C.ar    1  LIG1        0.1276
     14 C           0.5416    5.2601   -0.0001 C.ar    1  LIG1        0.0583
     15 C          -0.3624    5.8026    0.9151 C.ar    1  LIG1       -0.0428
     16 C          -0.6216    7.1735    0.8714 C.ar    1  LIG1       -0.0236
     17 C           0.0409    7.9518   -0.0955 C.ar    1  LIG1        0.0788
     18 N           0.9157    7.4449   -0.9860 N.ar    1  LIG1       -0.2314
     19 H          -0.8598    5.1619    1.6570 H       1  LIG1        0.0629
     20 N           2.0026    5.6622   -1.8018 N.pl3   1  LIG1       -0.3426
     21 H           1.5540    4.9765   -2.3750 H       1  LIG1        0.1437
     22 H           2.3298    6.4134   -2.3750 H       1  LIG1        0.1437
     23 C          -1.4551    7.7268    1.7021 C.3     1  LIG1       -0.0377
     24 H          -1.8984    6.9725    2.3180 H       1  LIG1        0.0278
     25 H          -2.2207    8.2350    1.1538 H       1  LIG1        0.0278
     26 H          -0.9320    8.4283    2.3180 H       1  LIG1        0.0278
     27 C          -1.4594    9.7282   -0.4298 C.ar    1  LIG1        0.1233
     28 C          -0.1674    9.2325   -0.1758 C.ar    1  LIG1        0.0380
     29 C           0.8767   10.1448   -0.0132 C.ar    1  LIG1       -0.0061
     30 C           0.5980   11.5092   -0.1091 C.ar    1  LIG1        0.1450
     31 C          -0.7267   11.9075   -0.3662 C.ar    1  LIG1        0.1334
     32 N          -1.7461   11.0410   -0.5255 N.ar    1  LIG1       -0.2325
     33 H           1.8996    9.7948    0.1855 H       1  LIG1        0.0662
     34 C          -2.4638    8.9183   -0.5883 C.1     1  LIG1       -0.0491
     35 C          -3.3920    8.1700   -0.7347 C.1     1  LIG1       -0.1124
     36 H          -4.2187    7.5034   -0.8652 H       1  LIG1        0.1232
     37 O           1.5354   12.3984    0.0344 O.3     1  LIG1       -0.5045
     38 H           1.1437   13.2741    0.0697 H       1  LIG1        0.2922
     39 C          -1.0360   13.1664   -0.4642 C.ar    1  LIG1        0.1145
     40 C          -1.2278   13.9446   -1.5622 C.ar    1  LIG1        0.1883
     41 C          -1.5500   15.2618   -1.1019 C.ar    1  LIG1        0.1769
     42 C          -1.5426   15.2301    0.2572 C.ar    1  LIG1        0.0480
     43 N          -1.2280   13.9493    0.6518 N.ar    1  LIG1       -0.3533
     44 H          -1.1522   13.6389    1.5930 H       1  LIG1        0.1656
     45 H          -1.7731   16.1711    1.1241 H       1  LIG1        0.0845
     46 O          -1.1335   13.5605   -2.8006 O.3     1  LIG1       -0.4895
     47 C          -2.4081   13.0983   -3.2553 C.3     1  LIG1        0.0791
     48 H          -2.3302   12.7825   -4.2746 H       1  LIG1        0.0660
     49 H          -2.7257   12.2750   -2.6501 H       1  LIG1        0.0660
     50 H          -3.1223   13.8916   -3.1813 H       1  LIG1        0.0660
     51 O          -1.8037   16.2988   -1.8436 O.3     1  LIG1       -0.5023
     52 H          -2.7453   16.3394   -2.0264 H       1  LIG1        0.2923
@<TRIPOS>BOND
     1    48    47    1
     2    47    50    1
     3    47    46    1
     4    47    49    1
     5    46    40    1
     6    22    20    1
     7    21    20    1
     8    52    51    1
     9    51    41    1
    10    20    13    1
    11    40    41   ar
    12    40    39   ar
    13    41    42   ar
    14     9     7    1
    15    18    13   ar
    16    18    17   ar
    17    13    14   ar
    18    36    35    1
    19    35    34    3
    20    34    27    1
    21    32    27   ar
    22    32    31   ar
    23    39    31    1
    24    39    43   ar
    25    27    28   ar
    26    31    30   ar
    27    28    17    1
    28    28    29   ar
    29    30    29   ar
    30    30    37    1
    31    17    16   ar
    32    29    33    1
    33     5     4   ar
    34     5     1   ar
    35     4    14    1
    36     4     3   ar
    37    14    15   ar
    38     2     3   ar
    39     2     1   ar
    40     2     7    1
    41     3    12    1
    42     1     6    1
    43    11    12    3
    44     7    10    1
    45     7     8    1
    46    37    38    1
    47    42    43   ar
    48    42    45    1
    49    43    44    1
    50    16    15   ar
    51    16    23    1
    52    15    19    1
    53    25    23    1
    54    23    26    1
    55    23    24    1
