@<TRIPOS>MOLECULE
mol_data/noopt/geoms/mol2/12id6hf6lh-12df12lh-12ld13ii12fh-.out
 98 97 0 0 0
SMALL
GASTEIGER

@<TRIPOS>ATOM
      1 C           0.1763    1.8460    0.0000 C.ar    1  LIG1        0.0967
      2 C           1.5558    1.8460    0.0000 C.ar    1  LIG1        0.0053
      3 C           1.9706    3.2334    0.0000 C.ar    1  LIG1        0.1003
      4 C           0.8165    3.9895   -0.0001 C.ar    1  LIG1        0.1546
      5 O          -0.3030    3.1567   -0.0002 O.2     1  LIG1       -0.4613
      6 H          -0.7504    0.9343    0.0000 H       1  LIG1        0.1032
      7 C           2.3517    0.8177    0.0001 C.3     1  LIG1       -0.0355
      8 H           3.2608    1.0704    0.5046 H       1  LIG1        0.0279
      9 H           2.5701    0.5356   -1.0087 H       1  LIG1        0.0279
     10 H           1.8790    0.0009    0.5045 H       1  LIG1        0.0279
     11 N           4.2839    4.0300    0.0000 N.1     1  LIG1       -0.1907
     12 C           3.1998    3.6567    0.0000 C.1     1  LIG1        0.1032
     13 C          -0.7953    5.6985    0.0001 C.ar    1  LIG1        0.1014
     14 C           0.5416    5.2601   -0.0001 C.ar    1  LIG1        0.0495
     15 C           1.5573    6.2179    0.0001 C.ar    1  LIG1       -0.0052
     16 C           1.2067    7.5691    0.0002 C.ar    1  LIG1        0.1436
     17 C          -0.1587    7.9086    0.0001 C.ar    1  LIG1        0.1181
     18 N          -1.1514    6.9977    0.0002 N.ar    1  LIG1       -0.2406
     19 H           2.6135    5.9134   -0.0011 H       1  LIG1        0.0662
     20 N          -1.7757    4.8447    0.0000 N.3     2  LIG2       -0.2731
     21 H          -2.5632    5.2416   -0.4714 H       5  LIG5        0.1629
     22 H          -1.4909    4.0101   -0.4714 H       1  LIG1        0.1366
     23 O           2.1151    8.4991    0.0002 O.3     1  LIG1       -0.5046
     24 H           1.6917    9.3607    0.0001 H       1  LIG1        0.2922
     25 C          -1.9027    9.4822   -0.0206 C.ar    1  LIG1        0.2226
     26 C          -0.5350    9.1529    0.0003 C.ar    1  LIG1        0.0670
     27 C           0.4001   10.1894    0.0214 C.ar    1  LIG1       -0.0244
     28 C          -0.0582   11.5080    0.0208 C.ar    1  LIG1        0.0549
     29 C          -1.4463   11.7365   -0.0012 C.ar    1  LIG1        0.1318
     30 N          -2.3623   10.7486   -0.0215 N.ar    1  LIG1       -0.2074
     31 H           1.4772    9.9709    0.0371 H       1  LIG1        0.0645
     32 O          -2.8110    8.5523   -0.0406 O.3     1  LIG1       -0.4919
     33 C          -4.1087    9.1529   -0.0480 C.3     3  LIG3       -0.0681
     34 H          -4.8560    8.3872   -0.0646 H       2  LIG2        0.0227
     35 H          -4.2302    9.7507    0.8312 H       2  LIG2        0.0227
     36 H          -4.2112    9.7701   -0.9159 H       2  LIG2        0.0227
     37 N           0.7722   12.5081    0.0398 N.pl3   1  LIG1       -0.3562
     38 H           1.6177   12.2482   -0.4267 H       1  LIG1        0.1424
     39 H           0.3613   13.2913   -0.4267 H       1  LIG1        0.1424
     40 C          -1.9217   12.9464   -0.0026 C.ar    1  LIG1        0.1771
     41 C          -1.3809   14.2154    0.0111 C.ar    1  LIG1        0.1463
     42 C          -2.4945   15.1410   -0.0010 C.ar    1  LIG1        0.2455
     43 C          -3.6424   14.3758   -0.0214 C.ar    1  LIG1        0.2222
     44 O          -3.3152   13.0194   -0.0229 O.2     1  LIG1       -0.4446
     45 N           0.9859   14.8343    0.0487 N.1     1  LIG1       -0.1906
     46 C          -0.1233   14.5443    0.0311 C.1     1  LIG1        0.1069
     47 O          -2.4020   16.4378    0.0063 O.3     1  LIG1       -0.2824
     48 H          -3.2818   16.8217    0.0081 H       3  LIG3        0.0194
     49 C          -4.9189   14.6212   -0.0389 C.ar    1  LIG1        0.2229
     50 C          -5.7021   15.7567   -0.0374 C.ar    1  LIG1        0.2488
     51 C          -7.0795   15.3107   -0.0652 C.ar    1  LIG1        0.1224
     52 C          -7.0465   13.9314   -0.0820 C.ar    1  LIG1        0.1990
     53 O          -5.7255   13.4826   -0.0663 O.2     1  LIG1       -0.4424
     54 O          -5.3077   16.9953   -0.0155 O.3     1  LIG1       -0.2818
     55 C          -3.8785   17.0411   -0.0075 C.3     4  LIG4       -0.0776
     56 H          -3.5543   18.0606    0.0103 H       3  LIG3        0.0194
     57 H          -3.5102   16.5345    0.8601 H       3  LIG3        0.0194
     58 H          -3.5014   16.5623   -0.8870 H       3  LIG3        0.0194
     59 N          -8.1258   16.0822   -0.0725 N.pl3   1  LIG1       -0.3520
     60 H          -7.9073   16.9356   -0.5458 H       1  LIG1        0.1425
     61 H          -8.8765   15.6214   -0.5458 H       4  LIG4        0.0309
     62 C          -7.9362   12.9839   -0.1082 C.ar    1  LIG1        0.2203
     63 C          -9.3146   12.9291   -0.1132 C.ar    1  LIG1        0.2455
     64 C          -9.6738   11.5267   -0.1494 C.ar    1  LIG1        0.1462
     65 C          -8.4905   10.8173   -0.1642 C.ar    1  LIG1        0.1734
     66 O          -7.4051   11.6937   -0.1394 O.2     1  LIG1       -0.4448
     67 O         -10.1506   13.9244   -0.0903 O.3     1  LIG1       -0.2824
     68 C          -9.4253   15.1568   -0.0819 C.3     5  LIG5       -0.0309
     69 H         -10.1137   15.9757   -0.0632 H       6  UNK6        0.0000
     70 H          -8.7999   15.1967    0.7854 H       1  LIG1        0.1425
     71 H          -8.8195   15.2201   -0.9616 H       7  UNK7        0.0000
     72 N         -11.9535   10.6390   -0.1778 N.1     1  LIG1       -0.1906
     73 C         -10.8851   11.0550   -0.1645 C.1     1  LIG1        0.1069
     74 C          -8.1652    9.5591   -0.1950 C.ar    1  LIG1        0.0873
     75 C          -8.9461    8.4465   -0.2163 C.ar    1  LIG1       -0.0185
     76 C          -8.0731    7.3118   -0.2462 C.ar    1  LIG1       -0.0184
     77 C          -6.7971    7.7809   -0.2436 C.ar    1  LIG1        0.0895
     78 N          -6.8490    9.1562   -0.2119 N.ar    1  LIG1       -0.3488
     79 H          -6.0610    9.7621   -0.2032 H       1  LIG1        0.1661
     80 C         -10.2461    8.4213   -0.2091 C.3     1  LIG1       -0.0373
     81 H         -10.5830    7.5409    0.2973 H       1  LIG1        0.0278
     82 H         -10.6083    8.4142   -1.2159 H       1  LIG1        0.0278
     83 H         -10.6168    9.2879    0.2973 H       1  LIG1        0.0278
     84 C          -8.4309    6.0619   -0.2716 C.3     1  LIG1       -0.0373
     85 H          -7.6919    5.4691    0.2258 H       1  LIG1        0.0278
     86 H          -8.5236    5.7380   -1.2872 H       1  LIG1        0.0278
     87 H          -9.3717    5.9502    0.2257 H       1  LIG1        0.0278
     88 C          -5.6641    7.1438   -0.2644 C.ar    1  LIG1        0.1939
     89 C          -5.2813    5.8186   -0.2801 C.ar    1  LIG1        0.1730
     90 C          -3.8334    5.8053   -0.3004 C.ar    1  LIG1        0.0805
     91 C          -3.4274    7.1239   -0.2959 C.ar    1  LIG1        0.1830
     92 O          -4.5381    7.9681   -0.2739 O.2     1  LIG1       -0.4458
     93 H          -2.2831    7.7408   -0.3070 H       1  LIG1        0.2937
     94 O          -6.0480    4.7687   -0.2776 O.3     1  LIG1       -0.5027
     95 H          -5.5062    3.9762   -0.2770 H       1  LIG1        0.2923
     96 N          -3.0856    4.7420   -0.3192 N.3     8  LIG8       -0.1629
     97 H          -3.5657    4.0053   -0.7954 H       9  UNK9        0.0000
     98 H          -2.2300    4.9447   -0.7954 H       1  LIG1        0.1366
@<TRIPOS>BOND
     1    86    84    1
     2    82    80    1
     3     9     7    1
     4    36    33    1
     5    58    55    1
     6    98    20    1
     7    61    68    1
     8    60    59    1
     9    22    20    1
    10    21    96    1
    11    39    37    1
    12    38    37    1
    13    93    32    1
    14    90    91   ar
    15    90    89   ar
    16    91    92   ar
    17    89    94    1
    18    89    88   ar
    19    94    95    1
    20    92    88   ar
    21    84    76    1
    22    84    87    1
    23    84    85    1
    24    88    77    1
    25    76    77   ar
    26    76    75   ar
    27    77    78   ar
    28    75    80    1
    29    75    74   ar
    30    78    79    1
    31    78    74   ar
    32    80    83    1
    33    80    81    1
    34    74    65    1
    35    72    73    3
    36    73    64    1
    37    65    64   ar
    38    65    66   ar
    39    64    63   ar
    40    66    62   ar
    41    63    62   ar
    42    63    67    1
    43    62    52    1
    44    52    53   ar
    45    52    51   ar
    46    59    51    1
    47    59    70    1
    48    53    49   ar
    49    51    50   ar
    50    34    33    1
    51    33    35    1
    52    32    25    1
    53    49    50   ar
    54    49    43    1
    55    50    54    1
    56    44    43   ar
    57    44    40   ar
    58    30    25   ar
    59    30    29   ar
    60    43    42   ar
    61    25    26   ar
    62    55    48    1
    63    55    56    1
    64    55    57    1
    65    40    29    1
    66    40    41   ar
    67    29    28   ar
    68    19    15    1
    69    42    47    1
    70    42    41   ar
    71     5     4   ar
    72     5     1   ar
    73     4    14    1
    74     4     3   ar
    75    14    13   ar
    76    14    15   ar
    77    11    12    3
    78     6     1    1
    79    12     3    1
    80     3     2   ar
    81     2     1   ar
    82     2     7    1
    83    13    18   ar
    84    15    16   ar
    85     7    10    1
    86     7     8    1
    87    17    18   ar
    88    17    16   ar
    89    17    26    1
    90    24    23    1
    91    23    16    1
    92    26    27   ar
    93    41    46    1
    94    28    27   ar
    95    28    37    1
    96    27    31    1
    97    46    45    3
