@<TRIPOS>MOLECULE
mol_data/noopt/geoms/mol2/12id13fi(180)12ll(30)6hh(10).out
 53 56 0 0 0
SMALL
GASTEIGER

@<TRIPOS>ATOM
      1 C           0.1763    1.8460    0.0000 C.ar    1  LIG1        0.0968
      2 C           1.5558    1.8460    0.0000 C.ar    1  LIG1        0.0054
      3 C           1.9706    3.2334    0.0000 C.ar    1  LIG1        0.1018
      4 C           0.8165    3.9895   -0.0001 C.ar    1  LIG1        0.1720
      5 O          -0.3030    3.1567   -0.0002 O.2     1  LIG1       -0.4597
      6 H          -0.7504    0.9343    0.0000 H       1  LIG1        0.1032
      7 C           2.3517    0.8177    0.0001 C.3     1  LIG1       -0.0355
      8 H           3.2608    1.0704    0.5046 H       1  LIG1        0.0279
      9 H           2.5701    0.5356   -1.0087 H       1  LIG1        0.0279
     10 H           1.8790    0.0009    0.5045 H       1  LIG1        0.0279
     11 N           4.2839    4.0300    0.0000 N.1     1  LIG1       -0.1907
     12 C           3.1998    3.6567    0.0000 C.1     1  LIG1        0.1033
     13 C           0.5416    5.2601   -0.0001 C.ar    1  LIG1        0.1261
     14 C          -0.6560    5.9034    0.0004 C.ar    1  LIG1        0.1487
     15 C          -0.3860    7.3097   -0.0010 C.ar    1  LIG1        0.0201
     16 C           0.9646    7.4640   -0.0005 C.ar    1  LIG1        0.0930
     17 N           1.5364    6.2117   -0.0004 N.ar    1  LIG1       -0.3461
     18 H           2.5126    6.0243   -0.0000 H       1  LIG1        0.1662
     19 O          -1.8284    5.3417    0.0005 O.3     1  LIG1       -0.5043
     20 H          -1.7265    4.3872    0.0005 H       1  LIG1        0.2922
     21 C          -1.2674    8.2657   -0.0020 C.3     1  LIG1       -0.0341
     22 H          -2.1518    7.9361    0.5021 H       1  LIG1        0.0279
     23 H          -1.5087    8.5273   -1.0112 H       1  LIG1        0.0279
     24 H          -0.8671    9.1204    0.5020 H       1  LIG1        0.0279
     25 C           1.6904    8.5425   -0.0012 C.ar    1  LIG1        0.1973
     26 C           2.9558    8.8765    0.4349 C.ar    1  LIG1        0.2100
     27 C           3.1473   10.2767    0.1192 C.ar    1  LIG1        0.2087
     28 C           1.9856   10.7056   -0.4893 C.ar    1  LIG1        0.1843
     29 O           1.0722    9.6543   -0.5750 O.2     1  LIG1       -0.4456
     30 O           3.8258    8.1060    1.0177 O.3     1  LIG1       -0.4884
     31 C           3.2514    6.8140    1.2316 C.3     1  LIG1        0.0791
     32 H           3.9678    6.1801    1.7111 H       1  LIG1        0.0660
     33 H           2.3852    6.9071    1.8529 H       1  LIG1        0.0660
     34 H           2.9714    6.3879    0.2909 H       1  LIG1        0.0660
     35 O           4.2171   10.9709    0.3715 O.3     1  LIG1       -0.4884
     36 C           5.3436   10.0949    0.4640 C.3     1  LIG1        0.0791
     37 H           6.2240   10.6667    0.6715 H       1  LIG1        0.0660
     38 H           5.1829    9.3891    1.2520 H       1  LIG1        0.0660
     39 H           5.4671    9.5735   -0.4621 H       1  LIG1        0.0660
     40 C           0.2379   11.9459   -1.4513 C.ar    1  LIG1        0.1271
     41 C           1.5603   11.8294   -0.9854 C.ar    1  LIG1        0.0623
     42 C           2.3972   12.9437   -1.0689 C.ar    1  LIG1       -0.0255
     43 C           1.8897   14.1261   -1.6102 C.ar    1  LIG1        0.0437
     44 C           0.5533   14.1442   -2.0496 C.ar    1  LIG1        0.0503
     45 N          -0.2680   13.0786   -1.9764 N.ar    1  LIG1       -0.2382
     46 H           3.4368   12.8904   -0.7159 H       1  LIG1        0.0645
     47 H           0.0353   15.2214   -2.5608 H       1  LIG1        0.0849
     48 N          -0.5791   10.9363   -1.3947 N.pl3   1  LIG1       -0.3426
     49 H          -1.4362   11.1751   -1.8511 H       1  LIG1        0.1437
     50 H          -0.1669   10.1478   -1.8511 H       1  LIG1        0.1437
     51 N           2.6287   15.1910   -1.7100 N.pl3   1  LIG1       -0.3568
     52 H           3.4684   14.9689   -2.2055 H       1  LIG1        0.1424
     53 H           2.1268   15.8998   -2.2056 H       1  LIG1        0.1424
@<TRIPOS>BOND
     1    47    44    1
     2    53    51    1
     3    52    51    1
     4    44    45   ar
     5    44    43   ar
     6    45    40   ar
     7    50    48    1
     8    49    48    1
     9    51    43    1
    10    43    42   ar
    11    40    48    1
    12    40    41   ar
    13    42    41   ar
    14    42    46    1
    15    23    21    1
    16     9     7    1
    17    41    28    1
    18    29    28   ar
    19    29    25   ar
    20    28    27   ar
    21    39    36    1
    22    21    15    1
    23    21    24    1
    24    21    22    1
    25    25    16    1
    26    25    26   ar
    27    15    16   ar
    28    15    14   ar
    29    16    17   ar
    30    17    13   ar
    31    17    18    1
    32     5     4   ar
    33     5     1   ar
    34    13     4    1
    35    13    14   ar
    36     4     3   ar
    37     1     2   ar
    38     1     6    1
    39     2     3   ar
    40     2     7    1
    41     3    12    1
    42    11    12    3
    43     7    10    1
    44     7     8    1
    45    14    19    1
    46    19    20    1
    47    27    35    1
    48    27    26   ar
    49    34    31    1
    50    35    36    1
    51    26    30    1
    52    36    37    1
    53    36    38    1
    54    30    31    1
    55    31    32    1
    56    31    33    1
