@<TRIPOS>MOLECULE
mol_data/noopt/geoms/mol2/12id12fl(160)13fi(350)13fh(310).out
 48 50 0 0 0
SMALL
GASTEIGER

@<TRIPOS>ATOM
      1 C           0.1763    1.8460    0.0000 C.ar    1  LIG1        0.0969
      2 C           1.5558    1.8460    0.0000 C.ar    1  LIG1        0.0054
      3 C           1.9706    3.2334    0.0000 C.ar    1  LIG1        0.1035
      4 C           0.8165    3.9895   -0.0001 C.ar    1  LIG1        0.1910
      5 O          -0.3030    3.1567   -0.0002 O.2     1  LIG1       -0.4581
      6 H          -0.7504    0.9343    0.0000 H       1  LIG1        0.1032
      7 C           2.3517    0.8177    0.0001 C.3     1  LIG1       -0.0355
      8 H           3.2608    1.0704    0.5046 H       1  LIG1        0.0279
      9 H           2.5701    0.5356   -1.0087 H       1  LIG1        0.0279
     10 H           1.8790    0.0009    0.5045 H       1  LIG1        0.0279
     11 N           4.2839    4.0300    0.0000 N.1     1  LIG1       -0.1907
     12 C           3.1998    3.6567    0.0000 C.1     1  LIG1        0.1033
     13 C           0.5416    5.2601   -0.0001 C.ar    1  LIG1        0.2171
     14 C          -0.5672    6.0263    0.2938 C.ar    1  LIG1        0.2144
     15 C          -0.1854    7.4070    0.0817 C.ar    1  LIG1        0.2678
     16 C           1.1320    7.3928   -0.3278 C.ar    1  LIG1        0.2057
     17 O           1.6026    6.0805   -0.3859 O.2     1  LIG1       -0.4423
     18 O          -1.7368    5.6159    0.6859 O.3     1  LIG1       -0.5006
     19 H          -1.7255    4.6609    0.7825 H       1  LIG1        0.2924
     20 O          -0.9553    8.4407    0.2519 O.3     1  LIG1       -0.2799
     21 C          -0.1568    9.6253    0.3144 C.3     2  LIG2       -0.0681
     22 H          -0.7907   10.4758    0.4543 H       1  LIG1        0.0227
     23 H           0.5272    9.5517    1.1339 H       1  LIG1        0.0227
     24 H           0.3908    9.7349   -0.5984 H       1  LIG1        0.0227
     25 C           2.0080    8.2935   -0.6615 C.ar    1  LIG1        0.1288
     26 C           3.3045    8.1622   -1.0484 C.ar    1  LIG1        0.1487
     27 C           3.8116    9.4779   -1.2985 C.ar    1  LIG1        0.0185
     28 C           2.8021   10.3552   -1.0551 C.ar    1  LIG1        0.0736
     29 N           1.6962    9.6344   -0.6645 N.ar    1  LIG1       -0.3473
     30 H           0.8126   10.0207   -0.4235 H       1  LIG1        0.1662
     31 O           3.9605    7.0460   -1.1668 O.3     1  LIG1       -0.5043
     32 H           4.9023    7.2294   -1.1959 H       1  LIG1        0.2922
     33 C           5.0148    9.7814   -1.6871 C.3     1  LIG1       -0.0342
     34 H           5.2773   10.7486   -1.3124 H       1  LIG1        0.0279
     35 H           5.0524    9.7909   -2.7565 H       1  LIG1        0.0279
     36 H           5.7046    9.0543   -1.3124 H       1  LIG1        0.0279
     37 C           2.7726   11.6521   -1.1407 C.ar    1  LIG1        0.1071
     38 C           3.4503   12.4974   -1.9617 C.ar    1  LIG1        0.1643
     39 C           3.0427   13.8304   -1.6338 C.ar    1  LIG1        0.0849
     40 C           2.1325   13.7410   -0.6280 C.ar    1  LIG1        0.0267
     41 N           1.9645   12.4091   -0.3228 N.ar    1  LIG1       -0.3549
     42 H           1.3559   12.0509    0.3768 H       1  LIG1        0.1655
     43 H           1.4799   14.6707    0.0042 H       1  LIG1        0.0827
     44 O           4.3106   12.1550   -2.8743 O.3     1  LIG1       -0.5031
     45 H           4.8572   12.9114   -3.0992 H       1  LIG1        0.2923
     46 N           3.4628   14.9263   -2.1928 N.pl3   1  LIG1       -0.3540
     47 H           4.2604   14.7258   -2.7617 H       1  LIG1        0.1425
     48 H           2.7357   15.3103   -2.7618 H       1  LIG1        0.1425
@<TRIPOS>BOND
     1    45    44    1
     2    44    38    1
     3    48    46    1
     4    47    46    1
     5    35    33    1
     6    46    39    1
     7    38    39   ar
     8    38    37   ar
     9    33    36    1
    10    33    34    1
    11    33    27    1
    12    39    40   ar
    13    27    28   ar
    14    27    26   ar
    15    32    31    1
    16    31    26    1
    17    37    28    1
    18    37    41   ar
    19    28    29   ar
    20    26    25   ar
    21     9     7    1
    22    29    25   ar
    23    29    30    1
    24    25    16    1
    25    40    41   ar
    26    40    43    1
    27    24    21    1
    28    17    16   ar
    29    17    13   ar
    30    16    15   ar
    31    41    42    1
    32     5     4   ar
    33     5     1   ar
    34     4    13    1
    35     4     3   ar
    36    13    14   ar
    37    12     3    1
    38    12    11    3
    39     2     3   ar
    40     2     1   ar
    41     2     7    1
    42     6     1    1
    43     7    10    1
    44     7     8    1
    45    15    20    1
    46    15    14   ar
    47    14    18    1
    48    21    22    1
    49    21    23    1
    50    18    19    1
