@<TRIPOS>MOLECULE
mol_data/noopt/geoms/mol2/12id12ai4da4ae.out
 46 49 0 0 0
SMALL
GASTEIGER

@<TRIPOS>ATOM
      1 C           0.1763    1.8460    0.0000 C.ar    1  LIG1        0.0969
      2 C           1.5558    1.8460    0.0000 C.ar    1  LIG1        0.0054
      3 C           1.9706    3.2334    0.0000 C.ar    1  LIG1        0.1033
      4 C           0.8165    3.9895   -0.0001 C.ar    1  LIG1        0.1872
      5 O          -0.3030    3.1567   -0.0002 O.2     1  LIG1       -0.4582
      6 H          -0.7504    0.9343    0.0000 H       1  LIG1        0.1032
      7 C           2.3517    0.8177    0.0001 C.3     1  LIG1       -0.0355
      8 H           3.2608    1.0704    0.5046 H       1  LIG1        0.0279
      9 H           2.5701    0.5356   -1.0087 H       1  LIG1        0.0279
     10 H           1.8790    0.0009    0.5045 H       1  LIG1        0.0279
     11 N           4.2839    4.0300    0.0000 N.1     1  LIG1       -0.1907
     12 C           3.1998    3.6567    0.0000 C.1     1  LIG1        0.1033
     13 C           0.5416    5.2601   -0.0001 C.ar    1  LIG1        0.1721
     14 C           1.2791    6.4258    0.0147 C.ar    1  LIG1       -0.0092
     15 C           0.3286    7.5182    0.0040 C.ar    1  LIG1       -0.0040
     16 C          -0.9273    6.9473   -0.0167 C.ar    1  LIG1        0.1399
     17 O          -0.8221    5.5559   -0.0197 O.2     1  LIG1       -0.4514
     18 H           2.5732    6.5484    0.0345 H       1  LIG1        0.0659
     19 C           0.6282    8.7835    0.0126 C.3     1  LIG1       -0.0361
     20 H          -0.1406    9.3286    0.5194 H       1  LIG1        0.0279
     21 H           0.7118    9.1371   -0.9939 H       1  LIG1        0.0279
     22 H           1.5598    8.9260    0.5193 H       1  LIG1        0.0279
     23 C          -2.3868    8.7838   -0.0418 C.ar    1  LIG1        0.0630
     24 C          -3.7266    9.2175   -0.0585 C.ar    1  LIG1       -0.0359
     25 C          -2.1478    7.3944   -0.0335 C.ar    1  LIG1        0.0349
     26 C          -4.7832    8.3097   -0.0671 C.ar    1  LIG1       -0.0166
     27 H          -3.9336   10.2854   -0.0649 H       1  LIG1        0.0637
     28 C          -3.2022    6.4877   -0.0421 C.ar    1  LIG1       -0.0493
     29 C          -4.5264    6.9381   -0.0591 C.ar    1  LIG1       -0.0533
     30 H          -2.9920    5.4212   -0.0353 H       1  LIG1        0.0625
     31 N          -0.6120   10.4677   -0.0284 N.1     1  LIG1       -0.1908
     32 C          -1.4438    9.6786   -0.0347 C.1     1  LIG1        0.0999
     33 H          -5.5080    6.0859   -0.0669 H       1  LIG1        0.0624
     34 C          -6.2605   10.1320   -0.0902 C.ar    1  LIG1       -0.0540
     35 C          -7.6044   10.5527   -0.1055 C.ar    1  LIG1       -0.0600
     36 C          -6.0080    8.7450   -0.0826 C.ar    1  LIG1       -0.0167
     37 C          -8.6522    9.6347   -0.1135 C.ar    1  LIG1       -0.0463
     38 H          -7.8218   11.6185   -0.1114 H       1  LIG1        0.0618
     39 C          -7.0536    7.8280   -0.0906 C.ar    1  LIG1       -0.0386
     40 C          -8.3821    8.2657   -0.1061 C.ar    1  LIG1        0.0253
     41 H          -6.8330    6.7637   -0.0844 H       1  LIG1        0.0636
     42 H          -9.8813   10.0581   -0.1277 H       1  LIG1        0.0630
     43 H          -5.3262   11.0359   -0.0837 H       1  LIG1        0.0624
     44 C          -9.3554    7.4039   -0.1134 C.1     1  LIG1       -0.0696
     45 C         -10.2547    6.6077   -0.1200 C.1     1  LIG1       -0.1139
     46 H         -11.0558    5.8984   -0.1260 H       1  LIG1        0.1232
@<TRIPOS>BOND
     1     9     7    1
     2    21    19    1
     3    42    37    1
     4    46    45    1
     5    45    44    3
     6    37    40   ar
     7    37    35   ar
     8    44    40    1
     9    38    35    1
    10    40    39   ar
    11    35    34   ar
    12    39    41    1
    13    39    36   ar
    14    34    43    1
    15    34    36   ar
    16    36    26    1
    17    26    29   ar
    18    26    24   ar
    19    33    29    1
    20    27    24    1
    21    29    28   ar
    22    24    23   ar
    23    28    30    1
    24    28    25   ar
    25    23    32    1
    26    23    25   ar
    27    32    31    3
    28    25    16    1
    29    17    16   ar
    30    17    13   ar
    31    16    15   ar
    32     5     4   ar
    33     5     1   ar
    34    13     4    1
    35    13    14   ar
    36     4     3   ar
    37    11    12    3
    38    12     3    1
    39     6     1    1
    40     3     2   ar
    41     1     2   ar
    42     2     7    1
    43     7    10    1
    44     7     8    1
    45    15    19    1
    46    15    14   ar
    47    19    22    1
    48    19    20    1
    49    14    18    1
