@<TRIPOS>MOLECULE
mol_data/noopt/geoms/mol2/12ie12ie-12ie.out
 38 40 0 0 0
SMALL
GASTEIGER

@<TRIPOS>ATOM
      1 C           0.1763    1.8460    0.0000 C.ar    1  LIG1        0.0968
      2 C           1.5558    1.8460    0.0000 C.ar    1  LIG1        0.0034
      3 C           1.9706    3.2334    0.0000 C.ar    1  LIG1        0.0763
      4 C           0.8165    3.9895   -0.0001 C.ar    1  LIG1        0.1855
      5 O          -0.3030    3.1567   -0.0002 O.2     1  LIG1       -0.4583
      6 H          -0.7504    0.9343    0.0000 H       1  LIG1        0.1032
      7 C           2.3517    0.8177    0.0001 C.3     1  LIG1       -0.0355
      8 H           3.2608    1.0704    0.5046 H       1  LIG1        0.0279
      9 H           2.5701    0.5356   -1.0087 H       1  LIG1        0.0279
     10 H           1.8790    0.0009    0.5045 H       1  LIG1        0.0279
     11 C           3.1998    3.6567    0.0000 C.1     1  LIG1       -0.0655
     12 C           4.3355    4.0478    0.0000 C.1     1  LIG1       -0.1138
     13 H           5.3472    4.3962    0.0000 H       1  LIG1        0.1232
     14 C           0.5416    5.2601   -0.0001 C.ar    1  LIG1        0.1760
     15 C          -0.6119    6.0167   -0.0001 C.ar    1  LIG1        0.0145
     16 C          -0.1979    7.4043   -0.0001 C.ar    1  LIG1        0.0771
     17 C           1.1818    7.4036   -0.0002 C.ar    1  LIG1        0.1865
     18 O           1.6612    6.0932   -0.0003 O.2     1  LIG1       -0.4470
     19 C          -1.8414    5.5933   -0.0000 C.3     1  LIG1       -0.0348
     20 H          -1.8941    4.6511    0.5044 H       1  LIG1        0.0279
     21 H          -2.1787    5.4770   -1.0089 H       1  LIG1        0.0279
     22 H          -2.4630    6.3032    0.5043 H       1  LIG1        0.0279
     23 C          -0.9936    8.4323   -0.0001 C.1     1  LIG1       -0.0655
     24 C          -1.7288    9.3823   -0.0001 C.1     1  LIG1       -0.1138
     25 H          -2.3837   10.2284   -0.0001 H       1  LIG1        0.1232
     26 C           2.1085    8.3153   -0.0002 C.ar    1  LIG1        0.1750
     27 C           3.4880    8.3153   -0.0001 C.ar    1  LIG1        0.0138
     28 C           3.9028    9.7027   -0.0001 C.ar    1  LIG1        0.0659
     29 C           2.7487   10.4588   -0.0002 C.ar    1  LIG1        0.1083
     30 O           1.6292    9.6260   -0.0003 O.2     1  LIG1       -0.4583
     31 H           2.4738   11.7294   -0.0002 H       1  LIG1        0.1042
     32 C           4.2839    7.2870   -0.0000 C.3     1  LIG1       -0.0348
     33 H           5.1931    7.5396    0.5044 H       1  LIG1        0.0279
     34 H           4.5023    7.0049   -1.0089 H       1  LIG1        0.0279
     35 H           3.8112    6.4702    0.5043 H       1  LIG1        0.0279
     36 C           5.1320   10.1260   -0.0001 C.1     1  LIG1       -0.0662
     37 C           6.2677   10.5171   -0.0001 C.1     1  LIG1       -0.1138
     38 H           7.2794   10.8655   -0.0001 H       1  LIG1        0.1232
@<TRIPOS>BOND
     1    21    19    1
     2    34    32    1
     3     9     7    1
     4    30    29   ar
     5    30    26   ar
     6    18    17   ar
     7    18    14   ar
     8    29    31    1
     9    29    28   ar
    10     5     4   ar
    11     5     1   ar
    12    17    26    1
    13    17    16   ar
    14    26    27   ar
    15    25    24    1
    16    27    28   ar
    17    27    32    1
    18    24    23    3
    19    15    16   ar
    20    15    14   ar
    21    15    19    1
    22    23    16    1
    23    28    36    1
    24    14     4    1
    25     4     3   ar
    26    36    37    3
    27    37    38    1
    28    19    22    1
    29    19    20    1
    30    32    35    1
    31    32    33    1
    32     1     6    1
    33     1     2   ar
    34    13    12    1
    35    12    11    3
    36    11     3    1
    37     3     2   ar
    38     2     7    1
    39     7    10    1
    40     7     8    1
