@<TRIPOS>MOLECULE
mol_data/noopt/geoms/mol2/12ie12ie12ie-12ie-.out
 50 53 0 0 0
SMALL
GASTEIGER

@<TRIPOS>ATOM
      1 C           0.1763    1.8460    0.0000 C.ar    1  LIG1        0.0968
      2 C           1.5558    1.8460    0.0000 C.ar    1  LIG1        0.0034
      3 C           1.9706    3.2334    0.0000 C.ar    1  LIG1        0.0763
      4 C           0.8165    3.9895   -0.0001 C.ar    1  LIG1        0.1855
      5 O          -0.3030    3.1567   -0.0002 O.2     1  LIG1       -0.4583
      6 H          -0.7504    0.9343    0.0000 H       1  LIG1        0.1032
      7 C           2.3517    0.8177    0.0001 C.3     1  LIG1       -0.0355
      8 H           3.2608    1.0704    0.5046 H       1  LIG1        0.0279
      9 H           2.5701    0.5356   -1.0087 H       1  LIG1        0.0279
     10 H           1.8790    0.0009    0.5045 H       1  LIG1        0.0279
     11 C           3.1998    3.6567    0.0000 C.1     1  LIG1       -0.0655
     12 C           4.3355    4.0478    0.0000 C.1     1  LIG1       -0.1138
     13 H           5.3472    4.3962    0.0000 H       1  LIG1        0.1232
     14 C           0.5416    5.2601   -0.0001 C.ar    1  LIG1        0.1760
     15 C           1.2792    6.4258   -0.0001 C.ar    1  LIG1        0.0145
     16 C           0.3286    7.5182   -0.0001 C.ar    1  LIG1        0.0771
     17 C          -0.9274    6.9472   -0.0002 C.ar    1  LIG1        0.1866
     18 O          -0.8223    5.5559   -0.0003 O.2     1  LIG1       -0.4470
     19 C           2.5738    6.5485    0.0000 C.3     1  LIG1       -0.0348
     20 H           2.8464    7.4519    0.5045 H       1  LIG1        0.0279
     21 H           2.9289    6.5822   -1.0088 H       1  LIG1        0.0279
     22 H           3.0112    5.7123    0.5044 H       1  LIG1        0.0279
     23 C           0.6282    8.7832   -0.0001 C.1     1  LIG1       -0.0655
     24 C           0.9050    9.9521   -0.0001 C.1     1  LIG1       -0.1138
     25 H           1.1515   10.9933   -0.0001 H       1  LIG1        0.1232
     26 C          -2.1481    7.3943   -0.0002 C.ar    1  LIG1        0.1761
     27 C          -3.4042    6.8241   -0.0002 C.ar    1  LIG1        0.0145
     28 C          -4.3554    7.9160   -0.0002 C.ar    1  LIG1        0.0771
     29 C          -3.6171    9.0815   -0.0003 C.ar    1  LIG1        0.1865
     30 O          -2.2534    8.7859   -0.0004 O.2     1  LIG1       -0.4470
     31 C          -3.7038    5.5588   -0.0001 C.3     1  LIG1       -0.0348
     32 H          -2.9359    5.0104    0.5043 H       1  LIG1        0.0279
     33 H          -3.7860    5.2116   -1.0090 H       1  LIG1        0.0279
     34 H          -4.6362    5.4131    0.5042 H       1  LIG1        0.0279
     35 C          -5.6496    7.7933   -0.0002 C.1     1  LIG1       -0.0655
     36 C          -6.8455    7.6800   -0.0002 C.1     1  LIG1       -0.1138
     37 H          -7.9107    7.5790   -0.0002 H       1  LIG1        0.1232
     38 C          -3.8920   10.3521   -0.0003 C.ar    1  LIG1        0.1750
     39 C          -5.0455   11.1087   -0.0003 C.ar    1  LIG1        0.0138
     40 C          -4.6315   12.4963   -0.0002 C.ar    1  LIG1        0.0659
     41 C          -3.2517   12.4956   -0.0003 C.ar    1  LIG1        0.1083
     42 O          -2.7723   11.1852   -0.0004 O.2     1  LIG1       -0.4583
     43 H          -2.3250   13.4073   -0.0003 H       1  LIG1        0.1042
     44 C          -6.2750   10.6853   -0.0002 C.3     1  LIG1       -0.0348
     45 H          -6.3277    9.7431    0.5043 H       1  LIG1        0.0279
     46 H          -6.6122   10.5690   -1.0090 H       1  LIG1        0.0279
     47 H          -6.8966   11.3952    0.5042 H       1  LIG1        0.0279
     48 C          -5.4271   13.5243   -0.0002 C.1     1  LIG1       -0.0662
     49 C          -6.1623   14.4743   -0.0002 C.1     1  LIG1       -0.1138
     50 H          -6.8172   15.3204   -0.0002 H       1  LIG1        0.1232
@<TRIPOS>BOND
     1    46    44    1
     2    33    31    1
     3    21    19    1
     4     9     7    1
     5    42    41   ar
     6    42    38   ar
     7    30    29   ar
     8    30    26   ar
     9    18    17   ar
    10    18    14   ar
    11    41    43    1
    12    41    40   ar
    13    29    38    1
    14    29    28   ar
    15    39    38   ar
    16    39    40   ar
    17    39    44    1
    18    37    36    1
    19    36    35    3
    20    27    28   ar
    21    27    26   ar
    22    27    31    1
    23    40    48    1
    24    35    28    1
    25    48    49    3
    26    49    50    1
    27    26    17    1
    28    17    16   ar
    29     5     4   ar
    30     5     1   ar
    31    44    47    1
    32    44    45    1
    33    31    34    1
    34    31    32    1
    35    24    23    3
    36    24    25    1
    37    23    16    1
    38     4    14    1
    39     4     3   ar
    40    16    15   ar
    41    15    14   ar
    42    15    19    1
    43     1     2   ar
    44     1     6    1
    45     2     3   ar
    46     2     7    1
    47     3    11    1
    48    11    12    3
    49    12    13    1
    50    19    22    1
    51    19    20    1
    52     7    10    1
    53     7     8    1
