@<TRIPOS>MOLECULE
mol_data/noopt/geoms/mol2/12ie12ii(90)4de(90)13ee(70).out
 52 55 0 0 0
SMALL
GASTEIGER

@<TRIPOS>ATOM
      1 C           0.1763    1.8460    0.0000 C.ar    1  LIG1        0.0968
      2 C           1.5558    1.8460    0.0000 C.ar    1  LIG1        0.0034
      3 C           1.9706    3.2334    0.0000 C.ar    1  LIG1        0.0763
      4 C           0.8165    3.9895   -0.0001 C.ar    1  LIG1        0.1855
      5 O          -0.3030    3.1567   -0.0002 O.2     1  LIG1       -0.4583
      6 H          -0.7504    0.9343    0.0000 H       1  LIG1        0.1032
      7 C           2.3517    0.8177    0.0001 C.3     1  LIG1       -0.0355
      8 H           3.2608    1.0704    0.5046 H       1  LIG1        0.0279
      9 H           2.5701    0.5356   -1.0087 H       1  LIG1        0.0279
     10 H           1.8790    0.0009    0.5045 H       1  LIG1        0.0279
     11 C           3.1998    3.6567    0.0000 C.1     1  LIG1       -0.0655
     12 C           4.3355    4.0478    0.0000 C.1     1  LIG1       -0.1138
     13 H           5.3472    4.3962    0.0000 H       1  LIG1        0.1232
     14 C           0.5416    5.2601   -0.0001 C.ar    1  LIG1        0.1749
     15 C           0.3337    6.2212    0.9674 C.ar    1  LIG1        0.0019
     16 C           0.0654    7.4612    0.2693 C.ar    1  LIG1       -0.0011
     17 C           0.1273    7.1754   -1.0791 C.ar    1  LIG1        0.1402
     18 O           0.4197    5.8246   -1.2706 O.2     1  LIG1       -0.4511
     19 C           0.3661    6.0709    2.2585 C.3     1  LIG1       -0.0357
     20 H           1.1234    6.7034    2.6724 H       1  LIG1        0.0279
     21 H           0.5862    5.0504    2.4934 H       1  LIG1        0.0279
     22 H          -0.5847    6.3350    2.6723 H       1  LIG1        0.0279
     23 C          -0.1827    8.6080    0.8297 C.3     1  LIG1       -0.0358
     24 H          -1.0587    8.5254    1.4386 H       1  LIG1        0.0279
     25 H          -0.3428    9.3476    0.0731 H       1  LIG1        0.0279
     26 H           0.6491    8.8949    1.4385 H       1  LIG1        0.0279
     27 C          -0.3183    9.2314   -2.1176 C.ar    1  LIG1        0.0631
     28 C          -0.4693    9.9223   -3.3354 C.ar    1  LIG1       -0.0333
     29 C          -0.0197    7.8548   -2.1776 C.ar    1  LIG1        0.0361
     30 C          -0.3290    9.2734   -4.5601 C.ar    1  LIG1        0.0161
     31 H          -0.7000   10.9850   -3.3120 H       1  LIG1        0.0637
     32 C           0.1204    7.2065   -3.4000 C.ar    1  LIG1       -0.0338
     33 C          -0.0330    7.9103   -4.5990 C.ar    1  LIG1        0.0346
     34 H           0.3508    6.1443   -3.4199 H       1  LIG1        0.0637
     35 N          -0.5863   10.4733   -0.0267 N.1     1  LIG1       -0.1908
     36 C          -0.4607    9.8913   -1.0066 C.1     1  LIG1        0.0999
     37 C           0.0990    7.2989   -5.7387 C.1     1  LIG1       -0.0690
     38 C           0.2210    6.7340   -6.7917 C.1     1  LIG1       -0.1139
     39 H           0.3296    6.2308   -7.7297 H       1  LIG1        0.1232
     40 C          -0.4750    9.9420   -5.6654 C.ar    1  LIG1        0.0645
     41 C          -0.3763   11.2758   -5.9088 C.ar    1  LIG1        0.0653
     42 C          -0.6326   11.4761   -7.3034 C.ar    1  LIG1        0.0579
     43 C          -0.8751   10.2558   -7.8511 C.ar    1  LIG1        0.0188
     44 N          -0.7801    9.3138   -6.8517 N.ar    1  LIG1       -0.3585
     45 H          -0.9103    8.3353   -6.9683 H       1  LIG1        0.1654
     46 H          -1.1557    9.9215   -9.0756 H       1  LIG1        0.0820
     47 C          -0.1011   12.1970   -5.0338 C.1     1  LIG1       -0.0663
     48 C           0.1531   13.0482   -4.2253 C.1     1  LIG1       -0.1138
     49 H           0.3795   13.8065   -3.5051 H       1  LIG1        0.1232
     50 C          -0.6338   12.6134   -7.9331 C.1     1  LIG1       -0.0669
     51 C          -0.6348   13.6643   -8.5150 C.1     1  LIG1       -0.1138
     52 H          -0.6357   14.6003   -9.0333 H       1  LIG1        0.1232
@<TRIPOS>BOND
     1    46    43    1
     2    52    51    1
     3    51    50    3
     4    50    42    1
     5    43    42   ar
     6    43    44   ar
     7    39    38    1
     8    42    41   ar
     9    45    44    1
    10    44    40   ar
    11    38    37    3
    12    41    40   ar
    13    41    47    1
    14    37    33    1
    15    40    30    1
    16    47    48    3
    17    33    30   ar
    18    33    32   ar
    19    30    28   ar
    20    48    49    1
    21    34    32    1
    22    32    29   ar
    23    28    31    1
    24    28    27   ar
    25    29    27   ar
    26    29    17    1
    27    27    36    1
    28    18    17   ar
    29    18    14   ar
    30    17    16   ar
    31     9     7    1
    32    36    35    3
    33     5     4   ar
    34     5     1   ar
    35    14     4    1
    36    14    15   ar
    37     4     3   ar
    38    13    12    1
    39    12    11    3
    40    11     3    1
    41     6     1    1
    42     3     2   ar
    43     1     2   ar
    44     2     7    1
    45     7    10    1
    46     7     8    1
    47    25    23    1
    48    16    23    1
    49    16    15   ar
    50    23    26    1
    51    23    24    1
    52    15    19    1
    53    19    21    1
    54    19    22    1
    55    19    20    1
