@<TRIPOS>MOLECULE
mol_data/noopt/geoms/mol2/12ie4ae(180)6fe(320)4ld(160).out
 53 56 0 0 0
SMALL
GASTEIGER

@<TRIPOS>ATOM
      1 C           0.1763    1.8460    0.0000 C.ar    1  LIG1        0.0967
      2 C           1.5558    1.8460    0.0000 C.ar    1  LIG1        0.0033
      3 C           1.9706    3.2334    0.0000 C.ar    1  LIG1        0.0732
      4 C           0.8165    3.9895   -0.0001 C.ar    1  LIG1        0.1504
      5 O          -0.3030    3.1567   -0.0002 O.2     1  LIG1       -0.4614
      6 H          -0.7504    0.9343    0.0000 H       1  LIG1        0.1032
      7 C           2.3517    0.8177    0.0001 C.3     1  LIG1       -0.0355
      8 H           3.2608    1.0704    0.5046 H       1  LIG1        0.0279
      9 H           2.5701    0.5356   -1.0087 H       1  LIG1        0.0279
     10 H           1.8790    0.0009    0.5045 H       1  LIG1        0.0279
     11 C           3.1998    3.6567    0.0000 C.1     1  LIG1       -0.0656
     12 C           4.3355    4.0478    0.0000 C.1     1  LIG1       -0.1138
     13 H           5.3472    4.3962    0.0000 H       1  LIG1        0.1232
     14 C          -0.8017    5.6881   -0.0008 C.ar    1  LIG1       -0.0504
     15 C          -1.0469    7.0749   -0.0024 C.ar    1  LIG1       -0.0520
     16 C           0.5416    5.2600   -0.0001 C.ar    1  LIG1        0.0197
     17 C          -0.0023    7.9965   -0.0025 C.ar    1  LIG1        0.0026
     18 H          -2.0761    7.4269   -0.0032 H       1  LIG1        0.0624
     19 C           1.5848    6.1797   -0.0002 C.ar    1  LIG1       -0.0350
     20 C           1.3209    7.5533   -0.0013 C.ar    1  LIG1        0.0332
     21 H           2.6122    5.8246    0.0003 H       1  LIG1        0.0637
     22 H          -1.8177    4.8771   -0.0005 H       1  LIG1        0.0625
     23 C           2.3001    8.4083   -0.0016 C.1     1  LIG1       -0.0690
     24 C           3.2050    9.1984   -0.0019 C.1     1  LIG1       -0.1139
     25 H           4.0110    9.9021   -0.0021 H       1  LIG1        0.1232
     26 C          -1.3197    9.7791    0.7755 C.ar    1  LIG1        0.2209
     27 C          -0.2649    9.2697   -0.0038 C.ar    1  LIG1        0.0459
     28 C           0.4868   10.1605   -0.7723 C.ar    1  LIG1       -0.0314
     29 C           0.1625   11.5178   -0.7370 C.ar    1  LIG1        0.0515
     30 C          -0.9108   11.9309    0.0735 C.ar    1  LIG1        0.0937
     31 N          -1.6463   11.0853    0.8213 N.ar    1  LIG1       -0.2112
     32 H           1.3179    9.7993   -1.3944 H       1  LIG1        0.0638
     33 O          -2.0479    8.9894    1.5077 O.3     1  LIG1       -0.4920
     34 H          -1.5621    8.1813    1.6882 H       1  LIG1        0.2937
     35 C           0.8317   12.3870   -1.4345 C.1     1  LIG1       -0.0675
     36 C           1.4502   13.1902   -2.0789 C.1     1  LIG1       -0.1138
     37 H           2.0010   13.9057   -2.6530 H       1  LIG1        0.1232
     38 C          -2.5381   13.5393    0.5922 C.ar    1  LIG1        0.1293
     39 C          -2.8585   14.9097    0.6441 C.ar    1  LIG1       -0.0181
     40 C          -1.2510   13.1838    0.1397 C.ar    1  LIG1        0.0445
     41 C          -1.9393   15.8848    0.2632 C.ar    1  LIG1       -0.0409
     42 H          -3.8462   15.2060    0.9901 H       1  LIG1        0.0655
     43 C          -0.3330   14.1568   -0.2407 C.ar    1  LIG1       -0.0316
     44 C          -0.6700   15.5131   -0.1817 C.ar    1  LIG1        0.0526
     45 H           0.6531   13.8574   -0.5862 H       1  LIG1        0.0638
     46 H          -2.2686   17.1409    0.3238 H       1  LIG1        0.0631
     47 O          -3.4375   12.6761    0.9609 O.3     1  LIG1       -0.4945
     48 C          -4.7011   13.3318    1.0962 C.3     1  LIG1        0.0788
     49 H          -5.4412   12.6209    1.3995 H       1  LIG1        0.0660
     50 H          -4.6252   14.1040    1.8330 H       1  LIG1        0.0660
     51 H          -4.9826   13.7610    0.1574 H       1  LIG1        0.0660
     52 N           0.9526   17.2166   -0.8535 N.1     1  LIG1       -0.1909
     53 C           0.1921   16.4182   -0.5386 C.1     1  LIG1        0.0992
@<TRIPOS>BOND
     1    37    36    1
     2    36    35    3
     3    35    29    1
     4    32    28    1
     5     9     7    1
     6    52    53    3
     7    28    29   ar
     8    28    27   ar
     9    29    30   ar
    10    45    43    1
    11    53    44    1
    12    43    44   ar
    13    43    40   ar
    14    44    41   ar
    15    27    17    1
    16    27    26   ar
    17    18    15    1
    18    17    15   ar
    19    17    20   ar
    20    15    14   ar
    21    25    24    1
    22    24    23    3
    23    23    20    1
    24    20    19   ar
    25    14    22    1
    26    14    16   ar
    27    19    16   ar
    28    19    21    1
    29     5     4   ar
    30     5     1   ar
    31    16     4    1
    32     4     3   ar
    33    11     3    1
    34    11    12    3
    35     2     3   ar
    36     2     1   ar
    37     2     7    1
    38     6     1    1
    39    12    13    1
    40     7    10    1
    41     7     8    1
    42    30    40    1
    43    30    31   ar
    44    40    38   ar
    45    51    48    1
    46    41    46    1
    47    41    39   ar
    48    38    39   ar
    49    38    47    1
    50    39    42    1
    51    26    31   ar
    52    26    33    1
    53    47    48    1
    54    48    49    1
    55    48    50    1
    56    33    34    1
