@<TRIPOS>MOLECULE
mol_data/noopt/geoms/mol2/12ie6de(210)13da(280)4hl(310).out
 51 54 0 0 0
SMALL
GASTEIGER

@<TRIPOS>ATOM
      1 C           0.1763    1.8460    0.0000 C.ar    1  LIG1        0.0967
      2 C           1.5558    1.8460    0.0000 C.ar    1  LIG1        0.0033
      3 C           1.9706    3.2334    0.0000 C.ar    1  LIG1        0.0733
      4 C           0.8165    3.9895   -0.0001 C.ar    1  LIG1        0.1531
      5 O          -0.3030    3.1567   -0.0002 O.2     1  LIG1       -0.4613
      6 H          -0.7504    0.9343    0.0000 H       1  LIG1        0.1032
      7 C           2.3517    0.8177    0.0001 C.3     1  LIG1       -0.0355
      8 H           3.2608    1.0704    0.5046 H       1  LIG1        0.0279
      9 H           2.5701    0.5356   -1.0087 H       1  LIG1        0.0279
     10 H           1.8790    0.0009    0.5045 H       1  LIG1        0.0279
     11 C           3.1998    3.6567    0.0000 C.1     1  LIG1       -0.0656
     12 C           4.3355    4.0478    0.0000 C.1     1  LIG1       -0.1138
     13 H           5.3472    4.3962    0.0000 H       1  LIG1        0.1232
     14 C           1.4191    6.1775    0.6063 C.ar    1  LIG1        0.1515
     15 C           0.5416    5.2601   -0.0001 C.ar    1  LIG1        0.0555
     16 C          -0.6228    5.7462   -0.5974 C.ar    1  LIG1       -0.0308
     17 C          -0.8695    7.1199   -0.5691 C.ar    1  LIG1        0.0528
     18 C           0.0683    7.9577    0.0618 C.ar    1  LIG1        0.1052
     19 N           1.1968    7.5057    0.6428 N.ar    1  LIG1       -0.2329
     20 H          -1.3327    5.0596   -1.0801 H       1  LIG1        0.0638
     21 N           3.4831    5.4166    1.6772 N.1     1  LIG1       -0.1893
     22 C           2.5158    5.7732    1.1753 C.1     1  LIG1        0.1198
     23 C          -1.9393    7.6219   -1.1109 C.1     1  LIG1       -0.0674
     24 C          -2.9278    8.0857   -1.6116 C.1     1  LIG1       -0.1138
     25 H          -3.8083    8.4989   -2.0576 H       1  LIG1        0.1232
     26 C          -0.1170    9.2434    0.1140 C.ar    1  LIG1        0.0842
     27 C          -0.0562   10.1837   -0.8659 C.ar    1  LIG1        0.0791
     28 C          -0.3440   11.4498   -0.2621 C.ar    1  LIG1       -0.0183
     29 C          -0.5697   11.2274    1.0599 C.ar    1  LIG1        0.0501
     30 N          -0.4312    9.8779    1.2945 N.ar    1  LIG1       -0.3518
     31 H          -0.5414    9.4324    2.1762 H       1  LIG1        0.1660
     32 N           0.4544    9.7802   -3.2243 N.1     1  LIG1       -0.1908
     33 C           0.2151    9.9693   -2.1191 C.1     1  LIG1        0.1013
     34 H          -0.3836   12.6015   -0.8637 H       1  LIG1        0.0652
     35 C          -0.5192   13.4178    1.8988 C.ar    1  LIG1        0.0340
     36 C          -0.8617   14.2749    2.9624 C.ar    1  LIG1       -0.0370
     37 C          -0.8667   12.0564    2.0161 C.ar    1  LIG1        0.0224
     38 C          -1.5216   13.7999    4.0936 C.ar    1  LIG1       -0.0182
     39 H          -0.6027   15.3290    2.8925 H       1  LIG1        0.0637
     40 C          -1.5255   11.5817    3.1452 C.ar    1  LIG1       -0.0091
     41 C          -1.8576   12.4490    4.1911 C.ar    1  LIG1        0.1208
     42 H          -1.7827   10.5276    3.2120 H       1  LIG1        0.0661
     43 H          -1.8228   14.6193    5.0569 H       1  LIG1        0.0655
     44 N           0.0959   13.9196    0.8693 N.pl3   1  LIG1       -0.3575
     45 H           0.4805   13.1795    0.3175 H       1  LIG1        0.1423
     46 H          -0.5517   14.4449    0.3174 H       1  LIG1        0.1423
     47 O          -2.4733   11.9995    5.2441 O.3     1  LIG1       -0.4951
     48 C          -3.4943   12.9232    5.6307 C.3     1  LIG1        0.0788
     49 H          -4.0009   12.5528    6.4973 H       1  LIG1        0.0660
     50 H          -3.0514   13.8713    5.8545 H       1  LIG1        0.0660
     51 H          -4.1944   13.0368    4.8296 H       1  LIG1        0.0660
@<TRIPOS>BOND
     1    32    33    3
     2    33    27    1
     3    25    24    1
     4    24    23    3
     5    23    17    1
     6    20    16    1
     7     9     7    1
     8    27    28   ar
     9    27    26   ar
    10    34    28    1
    11    16    17   ar
    12    16    15   ar
    13    17    18   ar
    14    28    29   ar
    15     5     4   ar
    16     5     1   ar
    17    15     4    1
    18    15    14   ar
    19     4     3   ar
    20     1     6    1
    21     1     2   ar
    22    13    12    1
    23    12    11    3
    24    11     3    1
    25     3     2   ar
    26     2     7    1
    27     7    10    1
    28     7     8    1
    29    18    26    1
    30    18    19   ar
    31    26    30   ar
    32    46    44    1
    33    45    44    1
    34    14    19   ar
    35    14    22    1
    36    44    35    1
    37    29    30   ar
    38    29    37    1
    39    22    21    3
    40    30    31    1
    41    35    37   ar
    42    35    36   ar
    43    37    40   ar
    44    39    36    1
    45    36    38   ar
    46    40    42    1
    47    40    41   ar
    48    38    41   ar
    49    38    43    1
    50    41    47    1
    51    51    48    1
    52    47    48    1
    53    48    50    1
    54    48    49    1
