@<TRIPOS>MOLECULE
mol_data/noopt/geoms/mol2/12ie12ie12ie.out
 38 40 0 0 0
SMALL
GASTEIGER

@<TRIPOS>ATOM
      1 C           0.1763    1.8460    0.0000 C.ar    1  LIG1        0.0968
      2 C           1.5558    1.8460    0.0000 C.ar    1  LIG1        0.0034
      3 C           1.9706    3.2334    0.0000 C.ar    1  LIG1        0.0763
      4 C           0.8165    3.9895   -0.0001 C.ar    1  LIG1        0.1855
      5 O          -0.3030    3.1567   -0.0002 O.2     1  LIG1       -0.4583
      6 H          -0.7504    0.9343    0.0000 H       1  LIG1        0.1032
      7 C           2.3517    0.8177    0.0001 C.3     1  LIG1       -0.0355
      8 H           3.2608    1.0704    0.5046 H       1  LIG1        0.0279
      9 H           2.5701    0.5356   -1.0087 H       1  LIG1        0.0279
     10 H           1.8790    0.0009    0.5045 H       1  LIG1        0.0279
     11 C           3.1998    3.6567    0.0000 C.1     1  LIG1       -0.0655
     12 C           4.3355    4.0478    0.0000 C.1     1  LIG1       -0.1138
     13 H           5.3472    4.3962    0.0000 H       1  LIG1        0.1232
     14 C           0.5416    5.2601   -0.0001 C.ar    1  LIG1        0.1760
     15 C           1.2792    6.4258   -0.0001 C.ar    1  LIG1        0.0145
     16 C           0.3286    7.5182   -0.0001 C.ar    1  LIG1        0.0771
     17 C          -0.9274    6.9472   -0.0002 C.ar    1  LIG1        0.1865
     18 O          -0.8223    5.5559   -0.0003 O.2     1  LIG1       -0.4470
     19 C           2.5738    6.5485    0.0000 C.3     1  LIG1       -0.0348
     20 H           2.8464    7.4519    0.5045 H       1  LIG1        0.0279
     21 H           2.9289    6.5822   -1.0088 H       1  LIG1        0.0279
     22 H           3.0112    5.7123    0.5044 H       1  LIG1        0.0279
     23 C           0.6282    8.7832   -0.0001 C.1     1  LIG1       -0.0655
     24 C           0.9050    9.9521   -0.0001 C.1     1  LIG1       -0.1138
     25 H           1.1515   10.9933   -0.0001 H       1  LIG1        0.1232
     26 C          -2.1481    7.3943   -0.0002 C.ar    1  LIG1        0.1750
     27 C          -2.7387    8.6410   -0.0002 C.ar    1  LIG1        0.0138
     28 C          -4.1701    8.4218   -0.0002 C.ar    1  LIG1        0.0659
     29 C          -4.3593    7.0551   -0.0003 C.ar    1  LIG1        0.1083
     30 O          -3.1273    6.4000   -0.0004 O.2     1  LIG1       -0.4583
     31 H          -5.3898    6.2627   -0.0003 H       1  LIG1        0.1042
     32 C          -2.1502    9.8005   -0.0001 C.3     1  LIG1       -0.0348
     33 H          -2.7678   10.5139    0.5044 H       1  LIG1        0.0279
     34 H          -1.9888   10.1187   -1.0089 H       1  LIG1        0.0279
     35 H          -1.2097    9.7231    0.5043 H       1  LIG1        0.0279
     36 C          -5.0789    9.3514   -0.0002 C.1     1  LIG1       -0.0662
     37 C          -5.9187   10.2103   -0.0002 C.1     1  LIG1       -0.1138
     38 H          -6.6667   10.9754   -0.0002 H       1  LIG1        0.1232
@<TRIPOS>BOND
     1    34    32    1
     2    21    19    1
     3     9     7    1
     4    30    29   ar
     5    30    26   ar
     6    31    29    1
     7    18    17   ar
     8    18    14   ar
     9    29    28   ar
    10    36    28    1
    11    36    37    3
    12     5     4   ar
    13     5     1   ar
    14    28    27   ar
    15    37    38    1
    16    26    27   ar
    17    26    17    1
    18    27    32    1
    19    17    16   ar
    20    25    24    1
    21    24    23    3
    22    23    16    1
    23    16    15   ar
    24    15    14   ar
    25    15    19    1
    26    14     4    1
    27    32    35    1
    28    32    33    1
    29     4     3   ar
    30     1     6    1
    31     1     2   ar
    32    19    22    1
    33    19    20    1
    34    13    12    1
    35    12    11    3
    36    11     3    1
    37     3     2   ar
    38     2     7    1
    39     7    10    1
    40     7     8    1
