@<TRIPOS>MOLECULE
mol_data/noopt/geoms/mol2/12ie12ie.out
 26 27 0 0 0
SMALL
GASTEIGER

@<TRIPOS>ATOM
      1 C           0.1763    1.8460    0.0000 C.ar    1  LIG1        0.0968
      2 C           1.5558    1.8460    0.0000 C.ar    1  LIG1        0.0034
      3 C           1.9706    3.2334    0.0000 C.ar    1  LIG1        0.0763
      4 C           0.8165    3.9895   -0.0001 C.ar    1  LIG1        0.1855
      5 O          -0.3030    3.1567   -0.0002 O.2     1  LIG1       -0.4583
      6 H          -0.7504    0.9343    0.0000 H       1  LIG1        0.1032
      7 C           2.3517    0.8177    0.0001 C.3     1  LIG1       -0.0355
      8 H           3.2608    1.0704    0.5046 H       1  LIG1        0.0279
      9 H           2.5701    0.5356   -1.0087 H       1  LIG1        0.0279
     10 H           1.8790    0.0009    0.5045 H       1  LIG1        0.0279
     11 C           3.1998    3.6567    0.0000 C.1     1  LIG1       -0.0655
     12 C           4.3355    4.0478    0.0000 C.1     1  LIG1       -0.1138
     13 H           5.3472    4.3962    0.0000 H       1  LIG1        0.1232
     14 C           0.5416    5.2601   -0.0001 C.ar    1  LIG1        0.1750
     15 C           1.2792    6.4258   -0.0001 C.ar    1  LIG1        0.0138
     16 C           0.3286    7.5182   -0.0001 C.ar    1  LIG1        0.0659
     17 C          -0.9274    6.9472   -0.0002 C.ar    1  LIG1        0.1083
     18 O          -0.8223    5.5559   -0.0003 O.2     1  LIG1       -0.4583
     19 H          -2.1481    7.3943   -0.0002 H       1  LIG1        0.1042
     20 C           2.5738    6.5485    0.0000 C.3     1  LIG1       -0.0348
     21 H           2.8464    7.4519    0.5045 H       1  LIG1        0.0279
     22 H           2.9289    6.5822   -1.0088 H       1  LIG1        0.0279
     23 H           3.0112    5.7123    0.5044 H       1  LIG1        0.0279
     24 C           0.6282    8.7832   -0.0001 C.1     1  LIG1       -0.0662
     25 C           0.9050    9.9521   -0.0001 C.1     1  LIG1       -0.1138
     26 H           1.1515   10.9933   -0.0001 H       1  LIG1        0.1232
@<TRIPOS>BOND
     1    22    20    1
     2     9     7    1
     3    18    17   ar
     4    18    14   ar
     5     5     4   ar
     6     5     1   ar
     7    19    17    1
     8    17    16   ar
     9    14    15   ar
    10    14     4    1
    11    26    25    1
    12    25    24    3
    13    24    16    1
    14    16    15   ar
    15    15    20    1
    16     4     3   ar
    17    13    12    1
    18     1     6    1
    19     1     2   ar
    20    12    11    3
    21    11     3    1
    22    20    23    1
    23    20    21    1
    24     3     2   ar
    25     2     7    1
    26     7    10    1
    27     7     8    1
