@<TRIPOS>MOLECULE
mol_data/noopt/geoms/mol2/12ie12ie-12ie12ie-.out
 50 53 0 0 0
SMALL
GASTEIGER

@<TRIPOS>ATOM
      1 C           0.1763    1.8460    0.0000 C.ar    1  LIG1        0.0968
      2 C           1.5558    1.8460    0.0000 C.ar    1  LIG1        0.0034
      3 C           1.9706    3.2334    0.0000 C.ar    1  LIG1        0.0763
      4 C           0.8165    3.9895   -0.0001 C.ar    1  LIG1        0.1855
      5 O          -0.3030    3.1567   -0.0002 O.2     1  LIG1       -0.4583
      6 H          -0.7504    0.9343    0.0000 H       1  LIG1        0.1032
      7 C           2.3517    0.8177    0.0001 C.3     1  LIG1       -0.0355
      8 H           3.2608    1.0704    0.5046 H       1  LIG1        0.0279
      9 H           2.5701    0.5356   -1.0087 H       1  LIG1        0.0279
     10 H           1.8790    0.0009    0.5045 H       1  LIG1        0.0279
     11 C           3.1998    3.6567    0.0000 C.1     1  LIG1       -0.0655
     12 C           4.3355    4.0478    0.0000 C.1     1  LIG1       -0.1138
     13 H           5.3472    4.3962    0.0000 H       1  LIG1        0.1232
     14 C           0.5416    5.2601   -0.0001 C.ar    1  LIG1        0.1760
     15 C          -0.6119    6.0167   -0.0001 C.ar    1  LIG1        0.0145
     16 C          -0.1979    7.4043   -0.0001 C.ar    1  LIG1        0.0771
     17 C           1.1818    7.4036   -0.0002 C.ar    1  LIG1        0.1866
     18 O           1.6612    6.0932   -0.0003 O.2     1  LIG1       -0.4470
     19 C          -1.8414    5.5933   -0.0000 C.3     1  LIG1       -0.0348
     20 H          -1.8941    4.6511    0.5044 H       1  LIG1        0.0279
     21 H          -2.1787    5.4770   -1.0089 H       1  LIG1        0.0279
     22 H          -2.4630    6.3032    0.5043 H       1  LIG1        0.0279
     23 C          -0.9936    8.4323   -0.0001 C.1     1  LIG1       -0.0655
     24 C          -1.7288    9.3823   -0.0001 C.1     1  LIG1       -0.1138
     25 H          -2.3837   10.2284   -0.0001 H       1  LIG1        0.1232
     26 C           2.1085    8.3153   -0.0002 C.ar    1  LIG1        0.1761
     27 C           3.4880    8.3153   -0.0001 C.ar    1  LIG1        0.0145
     28 C           3.9028    9.7027   -0.0001 C.ar    1  LIG1        0.0771
     29 C           2.7487   10.4588   -0.0002 C.ar    1  LIG1        0.1865
     30 O           1.6292    9.6260   -0.0003 O.2     1  LIG1       -0.4470
     31 C           4.2839    7.2870   -0.0000 C.3     1  LIG1       -0.0348
     32 H           5.1931    7.5396    0.5044 H       1  LIG1        0.0279
     33 H           4.5023    7.0049   -1.0089 H       1  LIG1        0.0279
     34 H           3.8112    6.4702    0.5043 H       1  LIG1        0.0279
     35 C           5.1320   10.1260   -0.0001 C.1     1  LIG1       -0.0655
     36 C           6.2677   10.5171   -0.0001 C.1     1  LIG1       -0.1138
     37 H           7.2794   10.8655   -0.0001 H       1  LIG1        0.1232
     38 C           2.4738   11.7294   -0.0002 C.ar    1  LIG1        0.1750
     39 C           1.3203   12.4859   -0.0002 C.ar    1  LIG1        0.0138
     40 C           1.7343   13.8736   -0.0002 C.ar    1  LIG1        0.0659
     41 C           3.1141   13.8729   -0.0003 C.ar    1  LIG1        0.1083
     42 O           3.5935   12.5625   -0.0004 O.2     1  LIG1       -0.4583
     43 H           4.0408   14.7846   -0.0002 H       1  LIG1        0.1042
     44 C           0.0909   12.0625   -0.0001 C.3     1  LIG1       -0.0348
     45 H           0.0381   11.1204    0.5043 H       1  LIG1        0.0279
     46 H          -0.2464   11.9463   -1.0090 H       1  LIG1        0.0279
     47 H          -0.5308   12.7725    0.5042 H       1  LIG1        0.0279
     48 C           0.9387   14.9016   -0.0002 C.1     1  LIG1       -0.0662
     49 C           0.2035   15.8515   -0.0002 C.1     1  LIG1       -0.1138
     50 H          -0.4514   16.6977   -0.0002 H       1  LIG1        0.1232
@<TRIPOS>BOND
     1    46    44    1
     2    21    19    1
     3    33    31    1
     4     9     7    1
     5    42    41   ar
     6    42    38   ar
     7    30    29   ar
     8    30    26   ar
     9    18    17   ar
    10    18    14   ar
    11    41    43    1
    12    41    40   ar
    13    29    38    1
    14    29    28   ar
    15    39    38   ar
    16    39    40   ar
    17    39    44    1
    18     5     4   ar
    19     5     1   ar
    20    49    50    1
    21    49    48    3
    22    40    48    1
    23    17    26    1
    24    17    16   ar
    25    26    27   ar
    26    44    47    1
    27    44    45    1
    28    25    24    1
    29    27    28   ar
    30    27    31    1
    31    24    23    3
    32    15    16   ar
    33    15    14   ar
    34    15    19    1
    35    23    16    1
    36    28    35    1
    37     4    14    1
    38     4     3   ar
    39    35    36    3
    40    36    37    1
    41    19    22    1
    42    19    20    1
    43    31    34    1
    44    31    32    1
    45     2     3   ar
    46     2     1   ar
    47     2     7    1
    48    11     3    1
    49    11    12    3
    50     6     1    1
    51    12    13    1
    52     7    10    1
    53     7     8    1
