@<TRIPOS>MOLECULE
mol_data/noopt/geoms/mol2/12ie12ie-12ie-12ie-.out
 50 53 0 0 0
SMALL
GASTEIGER

@<TRIPOS>ATOM
      1 C           0.1763    1.8460    0.0000 C.ar    1  LIG1        0.0968
      2 C           1.5558    1.8460    0.0000 C.ar    1  LIG1        0.0034
      3 C           1.9706    3.2334    0.0000 C.ar    1  LIG1        0.0763
      4 C           0.8165    3.9895   -0.0001 C.ar    1  LIG1        0.1855
      5 O          -0.3030    3.1567   -0.0002 O.2     1  LIG1       -0.4583
      6 H          -0.7504    0.9343    0.0000 H       1  LIG1        0.1032
      7 C           2.3517    0.8177    0.0001 C.3     1  LIG1       -0.0355
      8 H           3.2608    1.0704    0.5046 H       1  LIG1        0.0279
      9 H           2.5701    0.5356   -1.0087 H       1  LIG1        0.0279
     10 H           1.8790    0.0009    0.5045 H       1  LIG1        0.0279
     11 C           3.1998    3.6567    0.0000 C.1     1  LIG1       -0.0655
     12 C           4.3355    4.0478    0.0000 C.1     1  LIG1       -0.1138
     13 H           5.3472    4.3962    0.0000 H       1  LIG1        0.1232
     14 C           0.5416    5.2601   -0.0001 C.ar    1  LIG1        0.1760
     15 C          -0.6119    6.0167   -0.0001 C.ar    1  LIG1        0.0145
     16 C          -0.1979    7.4043   -0.0001 C.ar    1  LIG1        0.0771
     17 C           1.1818    7.4036   -0.0002 C.ar    1  LIG1        0.1866
     18 O           1.6612    6.0932   -0.0003 O.2     1  LIG1       -0.4470
     19 C          -1.8414    5.5933   -0.0000 C.3     1  LIG1       -0.0348
     20 H          -1.8941    4.6511    0.5044 H       1  LIG1        0.0279
     21 H          -2.1787    5.4770   -1.0089 H       1  LIG1        0.0279
     22 H          -2.4630    6.3032    0.5043 H       1  LIG1        0.0279
     23 C          -0.9936    8.4323   -0.0001 C.1     1  LIG1       -0.0655
     24 C          -1.7288    9.3823   -0.0001 C.1     1  LIG1       -0.1138
     25 H          -2.3837   10.2284   -0.0001 H       1  LIG1        0.1232
     26 C           2.1085    8.3153   -0.0002 C.ar    1  LIG1        0.1761
     27 C           2.1310    9.6946   -0.0002 C.ar    1  LIG1        0.0145
     28 C           3.5250   10.0867   -0.0001 C.ar    1  LIG1        0.0771
     29 C           4.2622    8.9204   -0.0002 C.ar    1  LIG1        0.1865
     30 O           3.4112    7.8147   -0.0003 O.2     1  LIG1       -0.4470
     31 C           1.1159   10.5071   -0.0001 C.3     1  LIG1       -0.0348
     32 H           0.2915   10.0479    0.5044 H       1  LIG1        0.0279
     33 H           0.8373   10.7300   -1.0089 H       1  LIG1        0.0279
     34 H           1.3834   11.4121    0.5043 H       1  LIG1        0.0279
     35 C           3.9683   11.3088   -0.0001 C.1     1  LIG1       -0.0655
     36 C           4.3779   12.4380   -0.0001 C.1     1  LIG1       -0.1138
     37 H           4.7428   13.4439   -0.0001 H       1  LIG1        0.1232
     38 C           5.5281    8.6248   -0.0002 C.ar    1  LIG1        0.1750
     39 C           6.7057    9.3433   -0.0002 C.ar    1  LIG1        0.0138
     40 C           7.7825    8.3750   -0.0001 C.ar    1  LIG1        0.0659
     41 C           7.1911    7.1285   -0.0002 C.ar    1  LIG1        0.1083
     42 O           5.8017    7.2563   -0.0003 O.2     1  LIG1       -0.4583
     43 H           7.6182    5.9007   -0.0001 H       1  LIG1        0.1042
     44 C           6.8495   10.6357   -0.0001 C.3     1  LIG1       -0.0348
     45 H           6.0207   11.0868    0.5044 H       1  LIG1        0.0279
     46 H           6.8889   10.9902   -1.0089 H       1  LIG1        0.0279
     47 H           7.7573   10.8935    0.5043 H       1  LIG1        0.0279
     48 C           9.0522    8.6539   -0.0001 C.1     1  LIG1       -0.0662
     49 C          10.2254    8.9116   -0.0001 C.1     1  LIG1       -0.1138
     50 H          11.2705    9.1411   -0.0000 H       1  LIG1        0.1232
@<TRIPOS>BOND
     1    33    31    1
     2    46    44    1
     3    21    19    1
     4     9     7    1
     5    30    29   ar
     6    30    26   ar
     7    42    41   ar
     8    42    38   ar
     9    18    17   ar
    10    18    14   ar
    11     5     4   ar
    12     5     1   ar
    13    29    38    1
    14    29    28   ar
    15    41    43    1
    16    41    40   ar
    17    17    26    1
    18    17    16   ar
    19    38    39   ar
    20    27    26   ar
    21    27    28   ar
    22    27    31    1
    23    39    40   ar
    24    39    44    1
    25    25    24    1
    26    24    23    3
    27    15    16   ar
    28    15    14   ar
    29    15    19    1
    30    28    35    1
    31    23    16    1
    32    35    36    3
    33    40    48    1
    34    36    37    1
    35    14     4    1
    36     4     3   ar
    37    31    34    1
    38    31    32    1
    39    44    47    1
    40    44    45    1
    41    48    49    3
    42    49    50    1
    43    19    22    1
    44    19    20    1
    45    13    12    1
    46    12    11    3
    47    11     3    1
    48     6     1    1
    49     3     2   ar
    50     2     1   ar
    51     2     7    1
    52     7    10    1
    53     7     8    1
