@<TRIPOS>MOLECULE
mol_data/noopt/geoms/mol2/12ie12ie12ie12ie-.out
 50 53 0 0 0
SMALL
GASTEIGER

@<TRIPOS>ATOM
      1 C           0.1763    1.8460    0.0000 C.ar    1  LIG1        0.0968
      2 C           1.5558    1.8460    0.0000 C.ar    1  LIG1        0.0034
      3 C           1.9706    3.2334    0.0000 C.ar    1  LIG1        0.0763
      4 C           0.8165    3.9895   -0.0001 C.ar    1  LIG1        0.1855
      5 O          -0.3030    3.1567   -0.0002 O.2     1  LIG1       -0.4583
      6 H          -0.7504    0.9343    0.0000 H       1  LIG1        0.1032
      7 C           2.3517    0.8177    0.0001 C.3     1  LIG1       -0.0355
      8 H           3.2608    1.0704    0.5046 H       1  LIG1        0.0279
      9 H           2.5701    0.5356   -1.0087 H       1  LIG1        0.0279
     10 H           1.8790    0.0009    0.5045 H       1  LIG1        0.0279
     11 C           3.1998    3.6567    0.0000 C.1     1  LIG1       -0.0655
     12 C           4.3355    4.0478    0.0000 C.1     1  LIG1       -0.1138
     13 H           5.3472    4.3962    0.0000 H       1  LIG1        0.1232
     14 C           0.5416    5.2601   -0.0001 C.ar    1  LIG1        0.1760
     15 C           1.2792    6.4258   -0.0001 C.ar    1  LIG1        0.0145
     16 C           0.3286    7.5182   -0.0001 C.ar    1  LIG1        0.0771
     17 C          -0.9274    6.9472   -0.0002 C.ar    1  LIG1        0.1866
     18 O          -0.8223    5.5559   -0.0003 O.2     1  LIG1       -0.4470
     19 C           2.5738    6.5485    0.0000 C.3     1  LIG1       -0.0348
     20 H           2.8464    7.4519    0.5045 H       1  LIG1        0.0279
     21 H           2.9289    6.5822   -1.0088 H       1  LIG1        0.0279
     22 H           3.0112    5.7123    0.5044 H       1  LIG1        0.0279
     23 C           0.6282    8.7832   -0.0001 C.1     1  LIG1       -0.0655
     24 C           0.9050    9.9521   -0.0001 C.1     1  LIG1       -0.1138
     25 H           1.1515   10.9933   -0.0001 H       1  LIG1        0.1232
     26 C          -2.1481    7.3943   -0.0002 C.ar    1  LIG1        0.1761
     27 C          -2.7387    8.6410   -0.0002 C.ar    1  LIG1        0.0145
     28 C          -4.1701    8.4218   -0.0002 C.ar    1  LIG1        0.0771
     29 C          -4.3593    7.0551   -0.0003 C.ar    1  LIG1        0.1865
     30 O          -3.1273    6.4000   -0.0004 O.2     1  LIG1       -0.4470
     31 C          -2.1502    9.8005   -0.0001 C.3     1  LIG1       -0.0348
     32 H          -2.7678   10.5139    0.5044 H       1  LIG1        0.0279
     33 H          -1.9888   10.1187   -1.0089 H       1  LIG1        0.0279
     34 H          -1.2097    9.7231    0.5043 H       1  LIG1        0.0279
     35 C          -5.0789    9.3514   -0.0002 C.1     1  LIG1       -0.0655
     36 C          -5.9187   10.2103   -0.0002 C.1     1  LIG1       -0.1138
     37 H          -6.6667   10.9754   -0.0002 H       1  LIG1        0.1232
     38 C          -5.3898    6.2627   -0.0003 C.ar    1  LIG1        0.1750
     39 C          -5.5796    4.8963   -0.0003 C.ar    1  LIG1        0.0138
     40 C          -7.0109    4.6763   -0.0003 C.ar    1  LIG1        0.0659
     41 C          -7.6010    5.9235   -0.0004 C.ar    1  LIG1        0.1083
     42 O          -6.6221    6.9178   -0.0005 O.2     1  LIG1       -0.4583
     43 H          -8.8217    6.3706   -0.0004 H       1  LIG1        0.1042
     44 C          -4.6706    3.9665   -0.0002 C.3     1  LIG1       -0.0348
     45 H          -3.7966    4.3222    0.5042 H       1  LIG1        0.0279
     46 H          -4.4211    3.7115   -1.0091 H       1  LIG1        0.0279
     47 H          -5.0460    3.1008    0.5041 H       1  LIG1        0.0279
     48 C          -7.5993    3.5171   -0.0003 C.1     1  LIG1       -0.0662
     49 C          -8.1429    2.4460   -0.0003 C.1     1  LIG1       -0.1138
     50 H          -8.6272    1.4918   -0.0003 H       1  LIG1        0.1232
@<TRIPOS>BOND
     1    46    44    1
     2    33    31    1
     3    21    19    1
     4     9     7    1
     5    42    41   ar
     6    42    38   ar
     7    30    29   ar
     8    30    26   ar
     9    41    43    1
    10    41    40   ar
    11    50    49    1
    12    49    48    3
    13    39    40   ar
    14    39    38   ar
    15    39    44    1
    16    48    40    1
    17    29    38    1
    18    29    28   ar
    19    18    17   ar
    20    18    14   ar
    21    44    47    1
    22    44    45    1
    23    28    27   ar
    24    28    35    1
    25    26    27   ar
    26    26    17    1
    27    27    31    1
    28    35    36    3
    29    36    37    1
    30     5     4   ar
    31     5     1   ar
    32    17    16   ar
    33    24    25    1
    34    24    23    3
    35     4    14    1
    36     4     3   ar
    37    14    15   ar
    38    15    16   ar
    39    15    19    1
    40    16    23    1
    41    31    34    1
    42    31    32    1
    43     2     3   ar
    44     2     1   ar
    45     2     7    1
    46     3    11    1
    47     1     6    1
    48    11    12    3
    49    12    13    1
    50    19    22    1
    51    19    20    1
    52     7    10    1
    53     7     8    1
