@<TRIPOS>MOLECULE
mol_data/noopt/geoms/mol2/12ie6ef(210)6aa(330)12ie(240).out
 47 50 0 0 0
SMALL
GASTEIGER

@<TRIPOS>ATOM
      1 C           0.1763    1.8460    0.0000 C.ar    1  LIG1        0.0967
      2 C           1.5558    1.8460    0.0000 C.ar    1  LIG1        0.0033
      3 C           1.9706    3.2334    0.0000 C.ar    1  LIG1        0.0733
      4 C           0.8165    3.9895   -0.0001 C.ar    1  LIG1        0.1531
      5 O          -0.3030    3.1567   -0.0002 O.2     1  LIG1       -0.4613
      6 H          -0.7504    0.9343    0.0000 H       1  LIG1        0.1032
      7 C           2.3517    0.8177    0.0001 C.3     1  LIG1       -0.0355
      8 H           3.2608    1.0704    0.5046 H       1  LIG1        0.0279
      9 H           2.5701    0.5356   -1.0087 H       1  LIG1        0.0279
     10 H           1.8790    0.0009    0.5045 H       1  LIG1        0.0279
     11 C           3.1998    3.6567    0.0000 C.1     1  LIG1       -0.0656
     12 C           4.3355    4.0478    0.0000 C.1     1  LIG1       -0.1138
     13 H           5.3472    4.3962    0.0000 H       1  LIG1        0.1232
     14 C           1.4191    6.1775    0.6063 C.ar    1  LIG1        0.1247
     15 C           0.5416    5.2601   -0.0001 C.ar    1  LIG1        0.0557
     16 C          -0.6228    5.7462   -0.5974 C.ar    1  LIG1       -0.0047
     17 C          -0.8695    7.1199   -0.5691 C.ar    1  LIG1        0.1435
     18 C           0.0683    7.9577    0.0618 C.ar    1  LIG1        0.1151
     19 N           1.1968    7.5057    0.6428 N.ar    1  LIG1       -0.2340
     20 H          -1.3327    5.0596   -1.0801 H       1  LIG1        0.0663
     21 C           2.5158    5.7732    1.1753 C.1     1  LIG1       -0.0491
     22 C           3.5291    5.3996    1.7011 C.1     1  LIG1       -0.1124
     23 H           4.4318    5.0668    2.1694 H       1  LIG1        0.1232
     24 O          -1.9393    7.6219   -1.1110 O.3     1  LIG1       -0.5046
     25 H          -2.5874    6.9264   -1.2445 H       1  LIG1        0.2922
     26 C          -1.2555    9.7726    0.7487 C.ar    1  LIG1        0.0377
     27 C          -0.1170    9.2434    0.1140 C.ar    1  LIG1        0.0221
     28 C           0.8017   10.1282   -0.4537 C.ar    1  LIG1       -0.0489
     29 C           0.5544   11.4994   -0.3692 C.ar    1  LIG1       -0.0320
     30 C          -0.6131   11.9321    0.2860 C.ar    1  LIG1        0.1063
     31 N          -1.5098   11.0925    0.8394 N.ar    1  LIG1       -0.2512
     32 H           1.7025    9.7517   -0.9588 H       1  LIG1        0.0625
     33 H          -2.1393    8.9892    1.2920 H       1  LIG1        0.0836
     34 H           1.3789   12.3639   -0.8819 H       1  LIG1        0.0640
     35 C          -0.8871   13.1986    0.3905 C.ar    1  LIG1        0.1570
     36 C          -1.6285   14.1075   -0.3357 C.ar    1  LIG1        0.0122
     37 C          -1.5106   15.3789    0.3472 C.ar    1  LIG1        0.0659
     38 C          -0.7046   15.1625    1.4460 C.ar    1  LIG1        0.1082
     39 O          -0.3077   13.8258    1.4943 O.2     1  LIG1       -0.4599
     40 H          -0.2447   15.8956    2.4161 H       1  LIG1        0.1042
     41 C          -2.3088   13.8920   -1.4227 C.3     1  LIG1       -0.0349
     42 H          -2.6336   12.8727   -1.4441 H       1  LIG1        0.0279
     43 H          -1.6914   14.0875   -2.2745 H       1  LIG1        0.0279
     44 H          -3.1611   14.5385   -1.4441 H       1  LIG1        0.0279
     45 C          -2.0671   16.4933   -0.0249 C.1     1  LIG1       -0.0662
     46 C          -2.5814   17.5229   -0.3686 C.1     1  LIG1       -0.1138
     47 H          -3.0395   18.4401   -0.6749 H       1  LIG1        0.1232
@<TRIPOS>BOND
     1    43    41    1
     2    42    41    1
     3    44    41    1
     4    41    36    1
     5    25    24    1
     6    24    17    1
     7    20    16    1
     8     9     7    1
     9    32    28    1
    10    34    29    1
    11    47    46    1
    12    16    17   ar
    13    16    15   ar
    14    17    18   ar
    15    28    29   ar
    16    28    27   ar
    17    29    30   ar
    18    46    45    3
    19    36    37   ar
    20    36    35   ar
    21    45    37    1
    22     5     4   ar
    23     5     1   ar
    24    15     4    1
    25    15    14   ar
    26     4     3   ar
    27    12    13    1
    28    12    11    3
    29     1     2   ar
    30     1     6    1
    31     2     3   ar
    32     2     7    1
    33     3    11    1
    34     7    10    1
    35     7     8    1
    36    18    27    1
    37    18    19   ar
    38    27    26   ar
    39    30    35    1
    40    30    31   ar
    41    37    38   ar
    42    35    39   ar
    43    14    19   ar
    44    14    21    1
    45    26    31   ar
    46    26    33    1
    47    21    22    3
    48    38    39   ar
    49    38    40    1
    50    22    23    1
