@<TRIPOS>MOLECULE
mol_data/noopt/geoms/mol2/12ie6fd6eh-6ah-.out
 49 51 0 0 0
SMALL
GASTEIGER

@<TRIPOS>ATOM
      1 C           0.1763    1.8460    0.0000 C.2     1  LIG1       -0.0573
      2 C           1.5558    1.8460    0.0000 C.2     1  LIG1       -0.0313
      3 C           1.9706    3.2334    0.0000 C.2     1  LIG1        0.0749
      4 C           0.8165    3.9895   -0.0001 C.2     1  LIG1        0.2067
      5 O          -0.3030    3.1567   -0.0002 O.2     1  LIG1       -0.2858
      6 H          -0.7504    0.9343    0.0000 H       1  LIG1        0.0621
      7 C           2.3517    0.8177    0.0001 C.3     1  LIG1       -0.0384
      8 H           3.2608    1.0704    0.5046 H       1  LIG1        0.0278
      9 H           2.5701    0.5356   -1.0087 H       1  LIG1        0.0278
     10 H           1.8790    0.0009    0.5045 H       1  LIG1        0.0278
     11 C           3.1998    3.6567    0.0000 C.1     1  LIG1       -0.0655
     12 C           4.3355    4.0478    0.0000 C.1     1  LIG1       -0.1138
     13 H           5.3472    4.3962    0.0000 H       1  LIG1        0.1232
     14 C          -0.7953    5.6985    0.0001 C.ar    1  LIG1        0.2241
     15 C           0.5416    5.2601   -0.0001 C.ar    1  LIG1        0.0854
     16 C           1.5573    6.2179    0.0001 C.ar    1  LIG1       -0.0263
     17 C           1.2067    7.5691    0.0002 C.ar    1  LIG1        0.0787
     18 C          -0.1587    7.9086    0.0001 C.ar    1  LIG1        0.0949
     19 N          -1.1514    6.9977    0.0002 N.ar    1  LIG1       -0.2110
     20 H           2.6135    5.9134   -0.0011 H       1  LIG1        0.0640
     21 O          -1.7757    4.8447    0.0000 O.3     1  LIG1       -0.4919
     22 H          -1.4230    3.9518    0.0000 H       1  LIG1        0.2938
     23 N           2.9163    9.3193    0.0001 N.1     1  LIG1       -0.1908
     24 C           2.1151    8.4991    0.0002 C.1     1  LIG1        0.1013
     25 C          -1.9027    9.4822   -0.0206 C.ar    1  LIG1        0.1231
     26 C          -0.5350    9.1529    0.0003 C.ar    1  LIG1        0.0373
     27 C           0.4001   10.1894    0.0214 C.ar    1  LIG1       -0.0271
     28 C          -0.0582   11.5080    0.0208 C.ar    1  LIG1        0.0516
     29 C          -1.4463   11.7365   -0.0012 C.ar    1  LIG1        0.0945
     30 N          -2.3623   10.7486   -0.0215 N.ar    1  LIG1       -0.2359
     31 H           1.4772    9.9709    0.0371 H       1  LIG1        0.0644
     32 C          -2.8109    8.5524   -0.0406 C.1     1  LIG1       -0.0491
     33 C          -3.6502    7.6932   -0.0590 C.1     1  LIG1       -0.1124
     34 H          -4.3978    6.9278   -0.0755 H       1  LIG1        0.1232
     35 N           0.7722   12.5081    0.0398 N.pl3   1  LIG1       -0.3563
     36 H           1.6177   12.2482   -0.4267 H       1  LIG1        0.1424
     37 H           0.3613   13.2913   -0.4267 H       1  LIG1        0.1424
     38 C          -3.3114   13.1645   -0.0244 C.ar    1  LIG1        0.0369
     39 C          -1.9217   12.9464   -0.0026 C.ar    1  LIG1        0.0220
     40 C          -1.0731   14.0549    0.0176 C.ar    1  LIG1       -0.0289
     41 C          -1.6361   15.3322    0.0152 C.ar    1  LIG1        0.0435
     42 C          -3.0381   15.4481   -0.0076 C.ar    1  LIG1        0.0482
     43 N          -3.8715   14.3897   -0.0270 N.ar    1  LIG1       -0.2608
     44 H           0.0181   13.9238    0.0339 H       1  LIG1        0.0643
     45 H          -3.6093   16.6159   -0.0106 H       1  LIG1        0.0848
     46 H          -4.1418   12.1645   -0.0436 H       1  LIG1        0.0836
     47 N          -0.8890   16.3960    0.0333 N.pl3   1  LIG1       -0.3568
     48 H          -0.0255   16.2048   -0.4334 H       1  LIG1        0.1424
     49 H          -1.3618   17.1433   -0.4335 H       1  LIG1        0.1424
@<TRIPOS>BOND
     1     9     7    1
     2    49    47    1
     3    48    47    1
     4    37    35    1
     5    36    35    1
     6    34    33    1
     7    33    32    3
     8    46    38    1
     9    32    25    1
    10    43    38   ar
    11    43    42   ar
    12    38    39   ar
    13    30    25   ar
    14    30    29   ar
    15    25    26   ar
    16    45    42    1
    17    42    41   ar
    18    39    29    1
    19    39    40   ar
    20    29    28   ar
    21    20    16    1
    22     5     4    1
    23    15     4    1
    24    15    14   ar
    25    15    16   ar
    26     4     3    2
    27    12    11    3
    28    12    13    1
    29     2     3    1
    30     2     1    2
    31     2     7    1
    32     3    11    1
    33     6     1    1
    34    22    21    1
    35    21    14    1
    36    14    19   ar
    37    16    17   ar
    38     7    10    1
    39     7     8    1
    40    23    24    3
    41    18    19   ar
    42    18    17   ar
    43    18    26    1
    44    24    17    1
    45    26    27   ar
    46    41    40   ar
    47    41    47    1
    48    40    44    1
    49    28    27   ar
    50    28    35    1
    51    27    31    1
