@<TRIPOS>MOLECULE
mol_data/noopt/geoms/mol2/12if4ia-4hd4eh.out
 53 56 0 0 0
SMALL
GASTEIGER

@<TRIPOS>ATOM
      1 C           0.1763    1.8460    0.0000 C.ar    1  LIG1        0.0991
      2 C           1.5558    1.8460    0.0000 C.ar    1  LIG1        0.0294
      3 C           1.9706    3.2334    0.0000 C.ar    1  LIG1        0.1655
      4 C           0.8165    3.9895   -0.0001 C.ar    1  LIG1        0.1765
      5 O          -0.3030    3.1567   -0.0002 O.2     1  LIG1       -0.4589
      6 H          -0.7504    0.9343    0.0000 H       1  LIG1        0.1033
      7 C           2.3517    0.8177    0.0001 C.3     1  LIG1       -0.0332
      8 H           3.2608    1.0704    0.5046 H       1  LIG1        0.0280
      9 H           2.5701    0.5356   -1.0087 H       1  LIG1        0.0280
     10 H           1.8790    0.0009    0.5045 H       1  LIG1        0.0280
     11 O           3.1998    3.6567    0.0000 O.3     1  LIG1       -0.5030
     12 H           3.2081    4.6167    0.0000 H       1  LIG1        0.2923
     13 C           1.5877    6.2051    0.0220 C.ar    1  LIG1       -0.0391
     14 C           1.2377    7.5692    0.0226 C.ar    1  LIG1       -0.0504
     15 C           0.5416    5.2600   -0.0001 C.ar    1  LIG1        0.0238
     16 C          -0.0943    7.9766    0.0015 C.ar    1  LIG1       -0.0158
     17 H           2.0291    8.3151    0.0396 H       1  LIG1        0.0626
     18 C          -0.7883    5.6663   -0.0212 C.ar    1  LIG1       -0.0501
     19 C          -1.1157    7.0262   -0.0206 C.ar    1  LIG1       -0.0533
     20 H          -1.5769    4.9183   -0.0379 H       1  LIG1        0.0625
     21 C           2.8482    5.8865    0.0420 C.3     1  LIG1       -0.0390
     22 H           3.4005    6.6480    0.5518 H       1  LIG1        0.0278
     23 H           3.2090    5.7953   -0.9612 H       1  LIG1        0.0278
     24 H           2.9723    4.9539    0.5518 H       1  LIG1        0.0278
     25 H          -2.3607    7.3999   -0.0402 H       1  LIG1        0.0624
     26 C           0.6555   10.1996    0.0039 C.ar    1  LIG1        0.0330
     27 C           0.2922   11.5603    0.0066 C.ar    1  LIG1       -0.0315
     28 C          -0.3815    9.2445    0.0026 C.ar    1  LIG1        0.0040
     29 C          -1.0438   11.9547    0.0073 C.ar    1  LIG1        0.0025
     30 H           1.0766   12.3139    0.0079 H       1  LIG1        0.0643
     31 C          -1.7155    9.6377    0.0033 C.ar    1  LIG1       -0.0343
     32 C          -2.0561   10.9943    0.0055 C.ar    1  LIG1        0.0602
     33 H          -2.4969    8.8821    0.0023 H       1  LIG1        0.0637
     34 N           1.9189    9.8934    0.0031 N.pl3   1  LIG1       -0.3575
     35 H           2.0502    9.0214   -0.4685 H       1  LIG1        0.1423
     36 H           2.4349   10.6084   -0.4685 H       1  LIG1        0.1423
     37 N          -4.4062   11.6749    0.0070 N.1     1  LIG1       -0.1908
     38 C          -3.3048   11.3560    0.0063 C.1     1  LIG1        0.0998
     39 C          -0.3156   14.1849    0.0117 C.ar    1  LIG1        0.0325
     40 C          -0.6920   15.5420    0.0158 C.ar    1  LIG1       -0.0440
     41 C          -1.3433   13.2197    0.0097 C.ar    1  LIG1        0.0005
     42 C          -2.0318   15.9234    0.0172 C.ar    1  LIG1       -0.0399
     43 H           0.0850   16.3031    0.0176 H       1  LIG1        0.0630
     44 C          -2.6810   13.6000    0.0110 C.ar    1  LIG1       -0.0321
     45 C          -3.0348   14.9533    0.0147 C.ar    1  LIG1        0.0252
     46 H          -3.4551   12.8368    0.0095 H       1  LIG1        0.0642
     47 H          -2.3436   17.1855    0.0209 H       1  LIG1        0.0636
     48 C           0.9507   13.8909    0.0103 C.1     1  LIG1       -0.0691
     49 C           2.1208   13.6193    0.0091 C.1     1  LIG1       -0.1139
     50 H           3.1631   13.3774    0.0079 H       1  LIG1        0.1232
     51 N          -4.2869   15.3028    0.0161 N.pl3   1  LIG1       -0.3579
     52 H          -4.3890   16.1790   -0.4549 H       1  LIG1        0.1423
     53 H          -4.8280   14.6061   -0.4549 H       1  LIG1        0.1423
@<TRIPOS>BOND
     1     9     7    1
     2    23    21    1
     3    36    34    1
     4    35    34    1
     5    53    51    1
     6    52    51    1
     7    25    19    1
     8    20    18    1
     9    18    19   ar
    10    18    15   ar
    11    19    16   ar
    12     5     4   ar
    13     5     1   ar
    14     4    15    1
    15     4     3   ar
    16    15    13   ar
    17     1     2   ar
    18     1     6    1
    19     2     3   ar
    20     2     7    1
    21     3    11    1
    22    12    11    1
    23     7    10    1
    24     7     8    1
    25    16    28    1
    26    16    14   ar
    27    33    31    1
    28    28    31   ar
    29    28    26   ar
    30    34    26    1
    31    31    32   ar
    32    26    27   ar
    33    32    38    1
    34    32    29   ar
    35    38    37    3
    36    27    29   ar
    37    27    30    1
    38    29    41    1
    39    50    49    1
    40    49    48    3
    41    46    44    1
    42    41    44   ar
    43    41    39   ar
    44    48    39    1
    45    44    45   ar
    46    39    40   ar
    47    45    51    1
    48    45    42   ar
    49    40    42   ar
    50    40    43    1
    51    42    47    1
    52    13    14   ar
    53    13    21    1
    54    14    17    1
    55    21    24    1
    56    21    22    1
