@<TRIPOS>MOLECULE
mol_data/noopt/geoms/mol2/12if12if12if12if-.out
 46 49 0 0 0
SMALL
GASTEIGER

@<TRIPOS>ATOM
      1 C           0.1763    1.8460    0.0000 C.ar    1  LIG1        0.0993
      2 C           1.5558    1.8460    0.0000 C.ar    1  LIG1        0.0295
      3 C           1.9706    3.2334    0.0000 C.ar    1  LIG1        0.1687
      4 C           0.8165    3.9895   -0.0001 C.ar    1  LIG1        0.2114
      5 O          -0.3030    3.1567   -0.0002 O.2     1  LIG1       -0.4557
      6 H          -0.7504    0.9343    0.0000 H       1  LIG1        0.1033
      7 C           2.3517    0.8177    0.0001 C.3     1  LIG1       -0.0332
      8 H           3.2608    1.0704    0.5046 H       1  LIG1        0.0280
      9 H           2.5701    0.5356   -1.0087 H       1  LIG1        0.0280
     10 H           1.8790    0.0009    0.5045 H       1  LIG1        0.0280
     11 O           3.1998    3.6567    0.0000 O.3     1  LIG1       -0.5030
     12 H           3.2081    4.6167    0.0000 H       1  LIG1        0.2923
     13 C           0.5416    5.2601   -0.0001 C.ar    1  LIG1        0.1809
     14 C           1.2792    6.4258   -0.0001 C.ar    1  LIG1        0.0407
     15 C           0.3286    7.5182   -0.0001 C.ar    1  LIG1        0.1694
     16 C          -0.9274    6.9472   -0.0002 C.ar    1  LIG1        0.2125
     17 O          -0.8223    5.5559   -0.0003 O.2     1  LIG1       -0.4444
     18 C           2.5738    6.5485    0.0000 C.3     1  LIG1       -0.0325
     19 H           2.8464    7.4519    0.5045 H       1  LIG1        0.0280
     20 H           2.9289    6.5822   -1.0088 H       1  LIG1        0.0280
     21 H           3.0112    5.7123    0.5044 H       1  LIG1        0.0280
     22 O           0.6282    8.7833   -0.0001 O.3     1  LIG1       -0.5029
     23 H          -0.1786    9.3036   -0.0001 H       1  LIG1        0.2923
     24 C          -2.1481    7.3943   -0.0002 C.ar    1  LIG1        0.1809
     25 C          -2.7387    8.6410   -0.0002 C.ar    1  LIG1        0.0407
     26 C          -4.1701    8.4218   -0.0002 C.ar    1  LIG1        0.1694
     27 C          -4.3593    7.0551   -0.0003 C.ar    1  LIG1        0.2124
     28 O          -3.1273    6.4000   -0.0004 O.2     1  LIG1       -0.4444
     29 C          -2.1502    9.8005   -0.0001 C.3     1  LIG1       -0.0325
     30 H          -2.7678   10.5139    0.5044 H       1  LIG1        0.0280
     31 H          -1.9888   10.1187   -1.0089 H       1  LIG1        0.0280
     32 H          -1.2097    9.7231    0.5043 H       1  LIG1        0.0280
     33 O          -5.0790    9.3514   -0.0002 O.3     1  LIG1       -0.5029
     34 H          -5.9500    8.9479   -0.0002 H       1  LIG1        0.2923
     35 C          -5.3898    6.2627   -0.0003 C.ar    1  LIG1        0.1799
     36 C          -5.5796    4.8963   -0.0003 C.ar    1  LIG1        0.0399
     37 C          -7.0109    4.6763   -0.0003 C.ar    1  LIG1        0.1581
     38 C          -7.6010    5.9235   -0.0004 C.ar    1  LIG1        0.1343
     39 O          -6.6221    6.9178   -0.0005 O.2     1  LIG1       -0.4557
     40 H          -8.8217    6.3706   -0.0004 H       1  LIG1        0.1068
     41 C          -4.6706    3.9665   -0.0002 C.3     1  LIG1       -0.0325
     42 H          -3.7966    4.3222    0.5042 H       1  LIG1        0.0280
     43 H          -4.4211    3.7115   -1.0091 H       1  LIG1        0.0280
     44 H          -5.0460    3.1008    0.5041 H       1  LIG1        0.0280
     45 O          -7.5993    3.5171   -0.0003 O.3     1  LIG1       -0.5034
     46 H          -6.9374    2.8218   -0.0003 H       1  LIG1        0.2923
@<TRIPOS>BOND
     1    43    41    1
     2    31    29    1
     3    20    18    1
     4     9     7    1
     5    39    38   ar
     6    39    35   ar
     7    28    27   ar
     8    28    24   ar
     9    38    40    1
    10    38    37   ar
    11    46    45    1
    12    36    37   ar
    13    36    35   ar
    14    36    41    1
    15    45    37    1
    16    27    35    1
    17    27    26   ar
    18    17    16   ar
    19    17    13   ar
    20    41    44    1
    21    41    42    1
    22    24    25   ar
    23    24    16    1
    24    25    26   ar
    25    25    29    1
    26    26    33    1
    27    33    34    1
    28     5     4   ar
    29     5     1   ar
    30    16    15   ar
    31    22    15    1
    32    22    23    1
    33     4    13    1
    34     4     3   ar
    35    13    14   ar
    36    14    15   ar
    37    14    18    1
    38    29    32    1
    39    29    30    1
    40     2     3   ar
    41     2     1   ar
    42     2     7    1
    43     3    11    1
    44     1     6    1
    45    11    12    1
    46    18    21    1
    47    18    19    1
    48     7    10    1
    49     7     8    1
