@<TRIPOS>MOLECULE
mol_data/noopt/geoms/mol2/12if12if-12if.out
 35 37 0 0 0
SMALL
GASTEIGER

@<TRIPOS>ATOM
      1 C           0.1763    1.8460    0.0000 C.ar    1  LIG1        0.0993
      2 C           1.5558    1.8460    0.0000 C.ar    1  LIG1        0.0295
      3 C           1.9706    3.2334    0.0000 C.ar    1  LIG1        0.1687
      4 C           0.8165    3.9895   -0.0001 C.ar    1  LIG1        0.2114
      5 O          -0.3030    3.1567   -0.0002 O.2     1  LIG1       -0.4557
      6 H          -0.7504    0.9343    0.0000 H       1  LIG1        0.1033
      7 C           2.3517    0.8177    0.0001 C.3     1  LIG1       -0.0332
      8 H           3.2608    1.0704    0.5046 H       1  LIG1        0.0280
      9 H           2.5701    0.5356   -1.0087 H       1  LIG1        0.0280
     10 H           1.8790    0.0009    0.5045 H       1  LIG1        0.0280
     11 O           3.1998    3.6567    0.0000 O.3     1  LIG1       -0.5030
     12 H           3.2081    4.6167    0.0000 H       1  LIG1        0.2923
     13 C           0.5416    5.2601   -0.0001 C.ar    1  LIG1        0.1809
     14 C          -0.6119    6.0167   -0.0001 C.ar    1  LIG1        0.0407
     15 C          -0.1979    7.4043   -0.0001 C.ar    1  LIG1        0.1694
     16 C           1.1818    7.4036   -0.0002 C.ar    1  LIG1        0.2124
     17 O           1.6612    6.0932   -0.0003 O.2     1  LIG1       -0.4444
     18 C          -1.8414    5.5933   -0.0000 C.3     1  LIG1       -0.0325
     19 H          -1.8941    4.6511    0.5044 H       1  LIG1        0.0280
     20 H          -2.1787    5.4770   -1.0089 H       1  LIG1        0.0280
     21 H          -2.4630    6.3032    0.5043 H       1  LIG1        0.0280
     22 O          -0.9936    8.4324   -0.0001 O.3     1  LIG1       -0.5029
     23 H          -1.9053    8.1319   -0.0001 H       1  LIG1        0.2923
     24 C           2.1085    8.3153   -0.0002 C.ar    1  LIG1        0.1799
     25 C           3.4880    8.3153   -0.0001 C.ar    1  LIG1        0.0399
     26 C           3.9028    9.7027   -0.0001 C.ar    1  LIG1        0.1581
     27 C           2.7487   10.4588   -0.0002 C.ar    1  LIG1        0.1343
     28 O           1.6292    9.6260   -0.0003 O.2     1  LIG1       -0.4557
     29 H           2.4738   11.7294   -0.0002 H       1  LIG1        0.1068
     30 C           4.2839    7.2870   -0.0000 C.3     1  LIG1       -0.0325
     31 H           5.1931    7.5396    0.5044 H       1  LIG1        0.0280
     32 H           4.5023    7.0049   -1.0089 H       1  LIG1        0.0280
     33 H           3.8112    6.4702    0.5043 H       1  LIG1        0.0280
     34 O           5.1320   10.1260   -0.0001 O.3     1  LIG1       -0.5034
     35 H           5.1403   11.0859   -0.0001 H       1  LIG1        0.2923
@<TRIPOS>BOND
     1    20    18    1
     2    32    30    1
     3     9     7    1
     4    28    27   ar
     5    28    24   ar
     6    17    16   ar
     7    17    13   ar
     8    27    29    1
     9    27    26   ar
    10     5     4   ar
    11     5     1   ar
    12    16    24    1
    13    16    15   ar
    14    24    25   ar
    15    25    26   ar
    16    25    30    1
    17    23    22    1
    18    14    15   ar
    19    14    13   ar
    20    14    18    1
    21    22    15    1
    22    26    34    1
    23    13     4    1
    24     4     3   ar
    25    34    35    1
    26    18    21    1
    27    18    19    1
    28    30    33    1
    29    30    31    1
    30     1     6    1
    31     1     2   ar
    32    12    11    1
    33    11     3    1
    34     3     2   ar
    35     2     7    1
    36     7    10    1
    37     7     8    1
