@<TRIPOS>MOLECULE
mol_data/noopt/geoms/mol2/12if4ff(300)4ai(170)4ha(210).out
 50 53 0 0 0
SMALL
GASTEIGER

@<TRIPOS>ATOM
      1 C           0.1763    1.8460    0.0000 C.ar    1  LIG1        0.0991
      2 C           1.5558    1.8460    0.0000 C.ar    1  LIG1        0.0294
      3 C           1.9706    3.2334    0.0000 C.ar    1  LIG1        0.1657
      4 C           0.8165    3.9895   -0.0001 C.ar    1  LIG1        0.1798
      5 O          -0.3030    3.1567   -0.0002 O.2     1  LIG1       -0.4588
      6 H          -0.7504    0.9343    0.0000 H       1  LIG1        0.1033
      7 C           2.3517    0.8177    0.0001 C.3     1  LIG1       -0.0332
      8 H           3.2608    1.0704    0.5046 H       1  LIG1        0.0280
      9 H           2.5701    0.5356   -1.0087 H       1  LIG1        0.0280
     10 H           1.8790    0.0009    0.5045 H       1  LIG1        0.0280
     11 O           3.1998    3.6567    0.0000 O.3     1  LIG1       -0.5030
     12 H           3.2081    4.6167    0.0000 H       1  LIG1        0.2923
     13 C           0.9911    6.0760   -1.0584 C.ar    1  LIG1        0.1284
     14 C           0.6686    7.4461   -1.0112 C.ar    1  LIG1       -0.0083
     15 C           0.5416    5.2600   -0.0001 C.ar    1  LIG1        0.0657
     16 C          -0.0693    7.9821    0.0419 C.ar    1  LIG1        0.0270
     17 H           1.0057    8.0937   -1.8175 H       1  LIG1        0.0661
     18 C          -0.1950    5.7946    1.0514 C.ar    1  LIG1       -0.0053
     19 C          -0.5057    7.1581    1.0801 C.ar    1  LIG1        0.1254
     20 H          -0.5302    5.1448    1.8558 H       1  LIG1        0.0662
     21 O           1.6822    5.6343   -2.0671 O.3     1  LIG1       -0.5060
     22 H           2.3399    6.2880   -2.3157 H       1  LIG1        0.2922
     23 O          -1.1945    7.6523    2.0657 O.3     1  LIG1       -0.5061
     24 H          -1.8918    7.0387    2.3086 H       1  LIG1        0.2922
     25 C          -1.6758    9.6763    0.2712 C.ar    1  LIG1       -0.0533
     26 C          -1.9276   11.0619    0.2729 C.ar    1  LIG1       -0.0531
     27 C          -0.3492    9.2514    0.0534 C.ar    1  LIG1       -0.0140
     28 C          -0.9051   11.9855    0.0677 C.ar    1  LIG1       -0.0132
     29 H          -2.9442   11.4114    0.4389 H       1  LIG1        0.0624
     30 C           0.6719   10.1731   -0.1515 C.ar    1  LIG1       -0.0504
     31 C           0.4018   11.5455   -0.1458 C.ar    1  LIG1       -0.0421
     32 H           1.6867    9.8205   -0.3173 H       1  LIG1        0.0626
     33 H          -2.6709    8.8633    0.4686 H       1  LIG1        0.0624
     34 C           1.3606   12.4026   -0.3381 C.3     1  LIG1       -0.0391
     35 H           1.0970   13.3387    0.1080 H       1  LIG1        0.0278
     36 H           1.5123   12.5383   -1.3886 H       1  LIG1        0.0278
     37 H           2.2615   12.0360    0.1080 H       1  LIG1        0.0278
     38 C          -2.3543   13.7304   -0.5316 C.ar    1  LIG1        0.0324
     39 C          -2.5982   15.1169   -0.4974 C.ar    1  LIG1       -0.0405
     40 C          -1.1731   13.2575    0.0758 C.ar    1  LIG1        0.0030
     41 C          -1.7072   15.9956    0.1146 C.ar    1  LIG1       -0.0600
     42 H          -3.5036   15.5031   -0.9603 H       1  LIG1        0.0636
     43 C          -0.2832   14.1343    0.6869 C.ar    1  LIG1       -0.0523
     44 C          -0.5435   15.5084    0.7109 C.ar    1  LIG1       -0.0611
     45 H           0.6208   13.7451    1.1484 H       1  LIG1        0.0624
     46 H          -1.9639   17.2700    0.1279 H       1  LIG1        0.0618
     47 N          -3.2230   12.9605   -1.1172 N.pl3   1  LIG1       -0.3575
     48 H          -3.8283   13.5150   -1.6882 H       1  LIG1        0.1423
     49 H          -2.7452   12.2929   -1.6882 H       1  LIG1        0.1423
     50 H           0.2921   16.3232    1.2835 H       1  LIG1        0.0618
@<TRIPOS>BOND
     1    22    21    1
     2    21    13    1
     3    17    14    1
     4    49    47    1
     5    48    47    1
     6    36    34    1
     7    47    38    1
     8    13    14   ar
     9    13    15   ar
    10    14    16   ar
    11     9     7    1
    12    42    39    1
    13    38    39   ar
    14    38    40   ar
    15    39    41   ar
    16    34    31    1
    17    34    37    1
    18    34    35    1
    19    32    30    1
    20    30    31   ar
    21    30    27   ar
    22    31    28   ar
    23     5     4   ar
    24     5     1   ar
    25    15     4    1
    26    15    18   ar
    27     4     3   ar
    28    12    11    1
    29     1     2   ar
    30     1     6    1
    31     2     3   ar
    32     2     7    1
    33     3    11    1
    34     7    10    1
    35     7     8    1
    36    16    27    1
    37    16    19   ar
    38    27    25   ar
    39    28    40    1
    40    28    26   ar
    41    40    43   ar
    42    41    46    1
    43    41    44   ar
    44    25    26   ar
    45    25    33    1
    46    26    29    1
    47    43    44   ar
    48    43    45    1
    49    44    50    1
    50    18    19   ar
    51    18    20    1
    52    19    23    1
    53    23    24    1
