@<TRIPOS>MOLECULE
mol_data/noopt/geoms/mol2/12if12if12if.out
 35 37 0 0 0
SMALL
GASTEIGER

@<TRIPOS>ATOM
      1 C           0.1763    1.8460    0.0000 C.ar    1  LIG1        0.0993
      2 C           1.5558    1.8460    0.0000 C.ar    1  LIG1        0.0295
      3 C           1.9706    3.2334    0.0000 C.ar    1  LIG1        0.1687
      4 C           0.8165    3.9895   -0.0001 C.ar    1  LIG1        0.2114
      5 O          -0.3030    3.1567   -0.0002 O.2     1  LIG1       -0.4557
      6 H          -0.7504    0.9343    0.0000 H       1  LIG1        0.1033
      7 C           2.3517    0.8177    0.0001 C.3     1  LIG1       -0.0332
      8 H           3.2608    1.0704    0.5046 H       1  LIG1        0.0280
      9 H           2.5701    0.5356   -1.0087 H       1  LIG1        0.0280
     10 H           1.8790    0.0009    0.5045 H       1  LIG1        0.0280
     11 O           3.1998    3.6567    0.0000 O.3     1  LIG1       -0.5030
     12 H           3.2081    4.6167    0.0000 H       1  LIG1        0.2923
     13 C           0.5416    5.2601   -0.0001 C.ar    1  LIG1        0.1809
     14 C           1.2792    6.4258   -0.0001 C.ar    1  LIG1        0.0407
     15 C           0.3286    7.5182   -0.0001 C.ar    1  LIG1        0.1694
     16 C          -0.9274    6.9472   -0.0002 C.ar    1  LIG1        0.2124
     17 O          -0.8223    5.5559   -0.0003 O.2     1  LIG1       -0.4444
     18 C           2.5738    6.5485    0.0000 C.3     1  LIG1       -0.0325
     19 H           2.8464    7.4519    0.5045 H       1  LIG1        0.0280
     20 H           2.9289    6.5822   -1.0088 H       1  LIG1        0.0280
     21 H           3.0112    5.7123    0.5044 H       1  LIG1        0.0280
     22 O           0.6282    8.7833   -0.0001 O.3     1  LIG1       -0.5029
     23 H          -0.1786    9.3036   -0.0001 H       1  LIG1        0.2923
     24 C          -2.1481    7.3943   -0.0002 C.ar    1  LIG1        0.1799
     25 C          -2.7387    8.6410   -0.0002 C.ar    1  LIG1        0.0399
     26 C          -4.1701    8.4218   -0.0002 C.ar    1  LIG1        0.1581
     27 C          -4.3593    7.0551   -0.0003 C.ar    1  LIG1        0.1343
     28 O          -3.1273    6.4000   -0.0004 O.2     1  LIG1       -0.4557
     29 H          -5.3898    6.2627   -0.0003 H       1  LIG1        0.1068
     30 C          -2.1502    9.8005   -0.0001 C.3     1  LIG1       -0.0325
     31 H          -2.7678   10.5139    0.5044 H       1  LIG1        0.0280
     32 H          -1.9888   10.1187   -1.0089 H       1  LIG1        0.0280
     33 H          -1.2097    9.7231    0.5043 H       1  LIG1        0.0280
     34 O          -5.0790    9.3514   -0.0002 O.3     1  LIG1       -0.5034
     35 H          -5.9500    8.9479   -0.0002 H       1  LIG1        0.2923
@<TRIPOS>BOND
     1    32    30    1
     2    20    18    1
     3     9     7    1
     4    28    27   ar
     5    28    24   ar
     6    29    27    1
     7    27    26   ar
     8    17    16   ar
     9    17    13   ar
    10    35    34    1
    11    34    26    1
    12     5     4   ar
    13     5     1   ar
    14    26    25   ar
    15    24    25   ar
    16    24    16    1
    17    25    30    1
    18    16    15   ar
    19    22    23    1
    20    22    15    1
    21    15    14   ar
    22    14    13   ar
    23    14    18    1
    24    13     4    1
    25    30    33    1
    26    30    31    1
    27     4     3   ar
    28    18    21    1
    29    18    19    1
    30     1     6    1
    31     1     2   ar
    32    12    11    1
    33    11     3    1
    34     3     2   ar
    35     2     7    1
    36     7    10    1
    37     7     8    1
