@<TRIPOS>MOLECULE
mol_data/noopt/geoms/mol2/12if12if-12if-12if-.out
 46 49 0 0 0
SMALL
GASTEIGER

@<TRIPOS>ATOM
      1 C           0.1763    1.8460    0.0000 C.ar    1  LIG1        0.0993
      2 C           1.5558    1.8460    0.0000 C.ar    1  LIG1        0.0295
      3 C           1.9706    3.2334    0.0000 C.ar    1  LIG1        0.1687
      4 C           0.8165    3.9895   -0.0001 C.ar    1  LIG1        0.2114
      5 O          -0.3030    3.1567   -0.0002 O.2     1  LIG1       -0.4557
      6 H          -0.7504    0.9343    0.0000 H       1  LIG1        0.1033
      7 C           2.3517    0.8177    0.0001 C.3     1  LIG1       -0.0332
      8 H           3.2608    1.0704    0.5046 H       1  LIG1        0.0280
      9 H           2.5701    0.5356   -1.0087 H       1  LIG1        0.0280
     10 H           1.8790    0.0009    0.5045 H       1  LIG1        0.0280
     11 O           3.1998    3.6567    0.0000 O.3     1  LIG1       -0.5030
     12 H           3.2081    4.6167    0.0000 H       1  LIG1        0.2923
     13 C           0.5416    5.2601   -0.0001 C.ar    1  LIG1        0.1809
     14 C          -0.6119    6.0167   -0.0001 C.ar    1  LIG1        0.0407
     15 C          -0.1979    7.4043   -0.0001 C.ar    1  LIG1        0.1694
     16 C           1.1818    7.4036   -0.0002 C.ar    1  LIG1        0.2125
     17 O           1.6612    6.0932   -0.0003 O.2     1  LIG1       -0.4444
     18 C          -1.8414    5.5933   -0.0000 C.3     1  LIG1       -0.0325
     19 H          -1.8941    4.6511    0.5044 H       1  LIG1        0.0280
     20 H          -2.1787    5.4770   -1.0089 H       1  LIG1        0.0280
     21 H          -2.4630    6.3032    0.5043 H       1  LIG1        0.0280
     22 O          -0.9936    8.4324   -0.0001 O.3     1  LIG1       -0.5029
     23 H          -1.9053    8.1319   -0.0001 H       1  LIG1        0.2923
     24 C           2.1085    8.3153   -0.0002 C.ar    1  LIG1        0.1809
     25 C           2.1310    9.6946   -0.0002 C.ar    1  LIG1        0.0407
     26 C           3.5250   10.0867   -0.0001 C.ar    1  LIG1        0.1694
     27 C           4.2622    8.9204   -0.0002 C.ar    1  LIG1        0.2124
     28 O           3.4112    7.8147   -0.0003 O.2     1  LIG1       -0.4444
     29 C           1.1159   10.5071   -0.0001 C.3     1  LIG1       -0.0325
     30 H           0.2915   10.0479    0.5044 H       1  LIG1        0.0280
     31 H           0.8373   10.7300   -1.0089 H       1  LIG1        0.0280
     32 H           1.3834   11.4121    0.5043 H       1  LIG1        0.0280
     33 O           3.9683   11.3088   -0.0001 O.3     1  LIG1       -0.5029
     34 H           3.2269   11.9186   -0.0001 H       1  LIG1        0.2923
     35 C           5.5281    8.6248   -0.0002 C.ar    1  LIG1        0.1799
     36 C           6.7057    9.3433   -0.0002 C.ar    1  LIG1        0.0399
     37 C           7.7825    8.3750   -0.0001 C.ar    1  LIG1        0.1581
     38 C           7.1911    7.1285   -0.0002 C.ar    1  LIG1        0.1343
     39 O           5.8017    7.2563   -0.0003 O.2     1  LIG1       -0.4557
     40 H           7.6182    5.9007   -0.0001 H       1  LIG1        0.1068
     41 C           6.8495   10.6357   -0.0001 C.3     1  LIG1       -0.0325
     42 H           6.0207   11.0868    0.5044 H       1  LIG1        0.0280
     43 H           6.8889   10.9902   -1.0089 H       1  LIG1        0.0280
     44 H           7.7573   10.8935    0.5043 H       1  LIG1        0.0280
     45 O           9.0522    8.6539   -0.0001 O.3     1  LIG1       -0.5034
     46 H           9.1711    9.6065   -0.0001 H       1  LIG1        0.2923
@<TRIPOS>BOND
     1    31    29    1
     2    43    41    1
     3    20    18    1
     4     9     7    1
     5    28    27   ar
     6    28    24   ar
     7    39    38   ar
     8    39    35   ar
     9    17    16   ar
    10    17    13   ar
    11     5     4   ar
    12     5     1   ar
    13    27    35    1
    14    27    26   ar
    15    38    40    1
    16    38    37   ar
    17    16    24    1
    18    16    15   ar
    19    35    36   ar
    20    25    24   ar
    21    25    26   ar
    22    25    29    1
    23    36    37   ar
    24    36    41    1
    25    14    15   ar
    26    14    13   ar
    27    14    18    1
    28    23    22    1
    29    26    33    1
    30    22    15    1
    31    33    34    1
    32    37    45    1
    33    13     4    1
    34     4     3   ar
    35    29    32    1
    36    29    30    1
    37    41    44    1
    38    41    42    1
    39    45    46    1
    40    18    21    1
    41    18    19    1
    42    12    11    1
    43    11     3    1
    44     6     1    1
    45     3     2   ar
    46     2     1   ar
    47     2     7    1
    48     7    10    1
    49     7     8    1
