@<TRIPOS>MOLECULE
mol_data/noopt/geoms/mol2/12if6el-12il4fl.out
 57 59 0 0 0
SMALL
GASTEIGER

@<TRIPOS>ATOM
      1 C           0.1763    1.8460    0.0000 C.ar    1  LIG1        0.0991
      2 C           1.5558    1.8460    0.0000 C.ar    1  LIG1        0.0294
      3 C           1.9706    3.2334    0.0000 C.ar    1  LIG1        0.1656
      4 C           0.8165    3.9895   -0.0001 C.ar    1  LIG1        0.1790
      5 O          -0.3030    3.1567   -0.0002 O.2     1  LIG1       -0.4588
      6 H          -0.7504    0.9343    0.0000 H       1  LIG1        0.1033
      7 C           2.3517    0.8177    0.0001 C.3     1  LIG1       -0.0332
      8 H           3.2608    1.0704    0.5046 H       1  LIG1        0.0280
      9 H           2.5701    0.5356   -1.0087 H       1  LIG1        0.0280
     10 H           1.8790    0.0009    0.5045 H       1  LIG1        0.0280
     11 O           3.1998    3.6567    0.0000 O.3     1  LIG1       -0.5030
     12 H           3.2081    4.6167    0.0000 H       1  LIG1        0.2923
     13 C          -0.7951    5.6985   -0.0211 C.ar    1  LIG1        0.1249
     14 C           0.5416    5.2601   -0.0001 C.ar    1  LIG1        0.0583
     15 C           1.5571    6.2179    0.0209 C.ar    1  LIG1        0.0008
     16 C           1.2066    7.5691    0.0200 C.ar    1  LIG1        0.2085
     17 C          -0.1586    7.9086   -0.0020 C.ar    1  LIG1        0.1542
     18 N          -1.1512    6.9977   -0.0223 N.ar    1  LIG1       -0.2307
     19 H           2.6132    5.9133    0.0367 H       1  LIG1        0.0664
     20 C          -1.7753    4.8448   -0.0410 C.1     1  LIG1       -0.0491
     21 C          -2.6810    4.0560   -0.0594 C.1     1  LIG1       -0.1124
     22 H          -3.4878    3.3534   -0.0758 H       1  LIG1        0.1232
     23 O           2.1148    8.4990    0.0389 O.3     1  LIG1       -0.2855
     24 C           3.4126    7.8986    0.0458 C.3     2  LIG2       -0.0681
     25 H           4.1598    8.6643    0.0611 H       1  LIG1        0.0227
     26 H           3.5158    7.2821    0.9143 H       1  LIG1        0.0227
     27 H           3.5334    7.3000   -0.8329 H       1  LIG1        0.0227
     28 C          -0.5350    9.1529   -0.0037 C.ar    1  LIG1        0.1641
     29 C           0.1063   10.3743    0.0099 C.ar    1  LIG1        0.0393
     30 C          -0.9291   11.3866   -0.0024 C.ar    1  LIG1        0.1693
     31 C          -2.1350   10.7163   -0.0227 C.ar    1  LIG1        0.1810
     32 O          -1.9181    9.3380   -0.0240 O.2     1  LIG1       -0.4490
     33 C           1.3865   10.6008    0.0299 C.3     1  LIG1       -0.0325
     34 H           1.5779   11.5219    0.5398 H       1  LIG1        0.0280
     35 H           1.7530   10.6657   -0.9733 H       1  LIG1        0.0280
     36 H           1.8822    9.8012    0.5397 H       1  LIG1        0.0280
     37 O          -0.7325   12.6716    0.0047 O.3     1  LIG1       -0.4910
     38 C           0.6722   12.9395    0.0073 C.3     1  LIG1        0.0790
     39 H           0.8336   13.9972    0.0129 H       1  LIG1        0.0660
     40 H           1.1164   12.5063    0.8791 H       1  LIG1        0.0660
     41 H           1.1178   12.5154   -0.8682 H       1  LIG1        0.0660
     42 C          -3.7377   12.4293   -0.0492 C.ar    1  LIG1        0.1278
     43 C          -5.1080   12.7537   -0.0668 C.ar    1  LIG1       -0.0160
     44 C          -3.3875   11.0637   -0.0404 C.ar    1  LIG1        0.0657
     45 C          -6.0881   11.7637   -0.0759 C.ar    1  LIG1       -0.0165
     46 H          -5.4003   13.8014   -0.0736 H       1  LIG1        0.0655
     47 C          -4.3655   10.0749   -0.0495 C.ar    1  LIG1       -0.0057
     48 C          -5.7216   10.4173   -0.0674 C.ar    1  LIG1        0.1210
     49 H          -4.0700    9.0288   -0.0423 H       1  LIG1        0.0662
     50 H          -7.3440   12.0989   -0.0922 H       1  LIG1        0.0655
     51 O          -2.8697   13.3972   -0.0416 O.3     1  LIG1       -0.5061
     52 H          -3.3295   14.2399   -0.0398 H       1  LIG1        0.2922
     53 O          -6.6314    9.4887   -0.0756 O.3     1  LIG1       -0.4951
     54 C          -7.9283   10.0911   -0.0787 C.3     1  LIG1        0.0788
     55 H          -8.6768    9.3265   -0.0857 H       1  LIG1        0.0660
     56 H          -8.0433   10.6948    0.7973 H       1  LIG1        0.0660
     57 H          -8.0353   10.7029   -0.9500 H       1  LIG1        0.0660
@<TRIPOS>BOND
     1     9     7    1
     2    35    33    1
     3    57    54    1
     4    41    38    1
     5    27    24    1
     6    50    45    1
     7    55    54    1
     8    54    53    1
     9    54    56    1
    10    45    48   ar
    11    45    43   ar
    12    22    21    1
    13    53    48    1
    14    46    43    1
    15    48    47   ar
    16    43    42   ar
    17    21    20    3
    18    47    49    1
    19    47    44   ar
    20    42    51    1
    21    42    44   ar
    22    51    52    1
    23    20    13    1
    24    44    31    1
    25    32    31   ar
    26    32    28   ar
    27    31    30   ar
    28    18    13   ar
    29    18    17   ar
    30    13    14   ar
    31    28    17    1
    32    28    29   ar
    33    30    37    1
    34    30    29   ar
    35    17    16   ar
    36     5     4   ar
    37     5     1   ar
    38    14     4    1
    39    14    15   ar
    40     4     3   ar
    41     1     2   ar
    42     1     6    1
    43     2     3   ar
    44     2     7    1
    45     3    11    1
    46    11    12    1
    47     7    10    1
    48     7     8    1
    49    37    38    1
    50    38    39    1
    51    38    40    1
    52    29    33    1
    53    16    15   ar
    54    16    23    1
    55    15    19    1
    56    33    36    1
    57    33    34    1
    58    24    25    1
    59    24    26    1
