@<TRIPOS>MOLECULE
mol_data/noopt/geoms/mol2/12if12if12if-12if-.out
 46 49 0 0 0
SMALL
GASTEIGER

@<TRIPOS>ATOM
      1 C           0.1763    1.8460    0.0000 C.ar    1  LIG1        0.0993
      2 C           1.5558    1.8460    0.0000 C.ar    1  LIG1        0.0295
      3 C           1.9706    3.2334    0.0000 C.ar    1  LIG1        0.1687
      4 C           0.8165    3.9895   -0.0001 C.ar    1  LIG1        0.2114
      5 O          -0.3030    3.1567   -0.0002 O.2     1  LIG1       -0.4557
      6 H          -0.7504    0.9343    0.0000 H       1  LIG1        0.1033
      7 C           2.3517    0.8177    0.0001 C.3     1  LIG1       -0.0332
      8 H           3.2608    1.0704    0.5046 H       1  LIG1        0.0280
      9 H           2.5701    0.5356   -1.0087 H       1  LIG1        0.0280
     10 H           1.8790    0.0009    0.5045 H       1  LIG1        0.0280
     11 O           3.1998    3.6567    0.0000 O.3     1  LIG1       -0.5030
     12 H           3.2081    4.6167    0.0000 H       1  LIG1        0.2923
     13 C           0.5416    5.2601   -0.0001 C.ar    1  LIG1        0.1809
     14 C           1.2792    6.4258   -0.0001 C.ar    1  LIG1        0.0407
     15 C           0.3286    7.5182   -0.0001 C.ar    1  LIG1        0.1694
     16 C          -0.9274    6.9472   -0.0002 C.ar    1  LIG1        0.2125
     17 O          -0.8223    5.5559   -0.0003 O.2     1  LIG1       -0.4444
     18 C           2.5738    6.5485    0.0000 C.3     1  LIG1       -0.0325
     19 H           2.8464    7.4519    0.5045 H       1  LIG1        0.0280
     20 H           2.9289    6.5822   -1.0088 H       1  LIG1        0.0280
     21 H           3.0112    5.7123    0.5044 H       1  LIG1        0.0280
     22 O           0.6282    8.7833   -0.0001 O.3     1  LIG1       -0.5029
     23 H          -0.1786    9.3036   -0.0001 H       1  LIG1        0.2923
     24 C          -2.1481    7.3943   -0.0002 C.ar    1  LIG1        0.1809
     25 C          -3.4042    6.8241   -0.0002 C.ar    1  LIG1        0.0407
     26 C          -4.3554    7.9160   -0.0002 C.ar    1  LIG1        0.1694
     27 C          -3.6171    9.0815   -0.0003 C.ar    1  LIG1        0.2124
     28 O          -2.2534    8.7859   -0.0004 O.2     1  LIG1       -0.4444
     29 C          -3.7038    5.5588   -0.0001 C.3     1  LIG1       -0.0325
     30 H          -2.9359    5.0104    0.5043 H       1  LIG1        0.0280
     31 H          -3.7860    5.2116   -1.0090 H       1  LIG1        0.0280
     32 H          -4.6362    5.4131    0.5042 H       1  LIG1        0.0280
     33 O          -5.6497    7.7933   -0.0002 O.3     1  LIG1       -0.5029
     34 H          -5.8833    6.8622   -0.0002 H       1  LIG1        0.2923
     35 C          -3.8920   10.3521   -0.0003 C.ar    1  LIG1        0.1799
     36 C          -5.0455   11.1087   -0.0003 C.ar    1  LIG1        0.0399
     37 C          -4.6315   12.4963   -0.0002 C.ar    1  LIG1        0.1581
     38 C          -3.2517   12.4956   -0.0003 C.ar    1  LIG1        0.1343
     39 O          -2.7723   11.1852   -0.0004 O.2     1  LIG1       -0.4557
     40 H          -2.3250   13.4073   -0.0003 H       1  LIG1        0.1068
     41 C          -6.2750   10.6853   -0.0002 C.3     1  LIG1       -0.0325
     42 H          -6.3277    9.7431    0.5043 H       1  LIG1        0.0280
     43 H          -6.6122   10.5690   -1.0090 H       1  LIG1        0.0280
     44 H          -6.8966   11.3952    0.5042 H       1  LIG1        0.0280
     45 O          -5.4272   13.5244   -0.0002 O.3     1  LIG1       -0.5034
     46 H          -6.3389   13.2239   -0.0002 H       1  LIG1        0.2923
@<TRIPOS>BOND
     1    43    41    1
     2    31    29    1
     3    20    18    1
     4     9     7    1
     5    39    38   ar
     6    39    35   ar
     7    28    27   ar
     8    28    24   ar
     9    17    16   ar
    10    17    13   ar
    11    38    40    1
    12    38    37   ar
    13    27    35    1
    14    27    26   ar
    15    36    35   ar
    16    36    37   ar
    17    36    41    1
    18    34    33    1
    19    25    26   ar
    20    25    24   ar
    21    25    29    1
    22    37    45    1
    23    33    26    1
    24    45    46    1
    25    24    16    1
    26    16    15   ar
    27     5     4   ar
    28     5     1   ar
    29    41    44    1
    30    41    42    1
    31    29    32    1
    32    29    30    1
    33    22    23    1
    34    22    15    1
    35     4    13    1
    36     4     3   ar
    37    15    14   ar
    38    14    13   ar
    39    14    18    1
    40    12    11    1
    41     2     3   ar
    42     2     1   ar
    43     2     7    1
    44     3    11    1
    45     6     1    1
    46    18    21    1
    47    18    19    1
    48     7    10    1
    49     7     8    1
