@<TRIPOS>MOLECULE
mol_data/noopt/geoms/mol2/12ig12ig12ig-12ig.out
 46 49 0 0 0
SMALL
GASTEIGER

@<TRIPOS>ATOM
      1 C           0.1763    1.8460    0.0000 C.ar    1  LIG1        0.0967
      2 C           1.5558    1.8460    0.0000 C.ar    1  LIG1        0.0012
      3 C           1.9706    3.2334    0.0000 C.ar    1  LIG1        0.0566
      4 C           0.8165    3.9895   -0.0001 C.ar    1  LIG1        0.1833
      5 O          -0.3030    3.1567   -0.0002 O.2     1  LIG1       -0.4584
      6 H          -0.7504    0.9343    0.0000 H       1  LIG1        0.1032
      7 C           2.3517    0.8177    0.0001 C.3     1  LIG1       -0.0357
      8 H           3.2608    1.0704    0.5046 H       1  LIG1        0.0279
      9 H           2.5701    0.5356   -1.0087 H       1  LIG1        0.0279
     10 H           1.8790    0.0009    0.5045 H       1  LIG1        0.0279
     11 S           3.1997    3.6567    0.0000 S.3     1  LIG1       -0.1386
     12 H           3.2111    4.9666    0.0000 H       1  LIG1        0.1072
     13 C           0.5416    5.2601   -0.0001 C.ar    1  LIG1        0.1758
     14 C           1.2791    6.4258    0.0147 C.ar    1  LIG1        0.0123
     15 C           0.3286    7.5182    0.0040 C.ar    1  LIG1        0.0573
     16 C          -0.9273    6.9473   -0.0167 C.ar    1  LIG1        0.1843
     17 O          -0.8221    5.5559   -0.0197 O.2     1  LIG1       -0.4472
     18 C           2.5735    6.5484    0.0345 C.3     1  LIG1       -0.0349
     19 H           2.8385    7.4511    0.5443 H       1  LIG1        0.0279
     20 H           2.9439    6.5836   -0.9688 H       1  LIG1        0.0279
     21 H           3.0033    5.7116    0.5443 H       1  LIG1        0.0279
     22 S           0.6281    8.7831    0.0126 S.3     1  LIG1       -0.1386
     23 H          -0.4728    9.4931    0.0155 H       1  LIG1        0.1072
     24 C          -2.1478    7.3944   -0.0335 C.ar    1  LIG1        0.1758
     25 C          -2.7386    8.6410   -0.0314 C.ar    1  LIG1        0.0123
     26 C          -4.1697    8.4219   -0.0585 C.ar    1  LIG1        0.0573
     27 C          -4.3586    7.0553   -0.0754 C.ar    1  LIG1        0.1843
     28 O          -3.1268    6.4002   -0.0606 O.2     1  LIG1       -0.4472
     29 C          -2.1503    9.8004   -0.0096 C.3     1  LIG1       -0.0349
     30 H          -2.7718   10.5062    0.5008 H       1  LIG1        0.0279
     31 H          -1.9813   10.1336   -1.0123 H       1  LIG1        0.0279
     32 H          -1.2136    9.7156    0.5007 H       1  LIG1        0.0279
     33 S          -5.0785    9.3514   -0.0651 S.3     1  LIG1       -0.1386
     34 H          -6.2671    8.8008   -0.0673 H       1  LIG1        0.1072
     35 C          -5.3889    6.2629   -0.1012 C.ar    1  LIG1        0.1748
     36 C          -6.7582    6.4302   -0.1059 C.ar    1  LIG1        0.0116
     37 C          -7.3380    5.1037   -0.1417 C.ar    1  LIG1        0.0462
     38 C          -6.2840    4.2135   -0.1566 C.ar    1  LIG1        0.1061
     39 O          -5.0719    4.9042   -0.1322 O.2     1  LIG1       -0.4584
     40 H          -6.1650    2.9193   -0.1872 H       1  LIG1        0.1041
     41 C          -7.4237    7.5471   -0.0830 C.3     1  LIG1       -0.0350
     42 H          -8.3522    7.3986    0.4276 H       1  LIG1        0.0279
     43 H          -7.6154    7.8687   -1.0854 H       1  LIG1        0.0279
     44 H          -6.8511    8.2929    0.4276 H       1  LIG1        0.0279
     45 S          -8.6093    4.8327   -0.1564 S.3     1  LIG1       -0.1393
     46 H          -8.7795    3.5338   -0.1613 H       1  LIG1        0.1072
@<TRIPOS>BOND
     1    43    41    1
     2    31    29    1
     3     9     7    1
     4    20    18    1
     5    40    38    1
     6    46    45    1
     7    38    37   ar
     8    38    39   ar
     9    45    37    1
    10    37    36   ar
    11    39    35   ar
    12    36    35   ar
    13    36    41    1
    14    35    27    1
    15    41    44    1
    16    41    42    1
    17    27    28   ar
    18    27    26   ar
    19    34    33    1
    20    33    26    1
    21    28    24   ar
    22    26    25   ar
    23    24    25   ar
    24    24    16    1
    25    25    29    1
    26    17    16   ar
    27    17    13   ar
    28    16    15   ar
    29    29    32    1
    30    29    30    1
    31     5     4   ar
    32     5     1   ar
    33    13     4    1
    34    13    14   ar
    35     4     3   ar
    36    11    12    1
    37    11     3    1
    38     6     1    1
    39     1     2   ar
    40     3     2   ar
    41     2     7    1
    42     7    10    1
    43     7     8    1
    44    15    22    1
    45    15    14   ar
    46    22    23    1
    47    14    18    1
    48    18    21    1
    49    18    19    1
