@<TRIPOS>MOLECULE
mol_data/noopt/geoms/mol2/12ig12ig-12ig12ig.out
 46 49 0 0 0
SMALL
GASTEIGER

@<TRIPOS>ATOM
      1 C           0.1763    1.8460    0.0000 C.ar    1  LIG1        0.0967
      2 C           1.5558    1.8460    0.0000 C.ar    1  LIG1        0.0012
      3 C           1.9706    3.2334    0.0000 C.ar    1  LIG1        0.0566
      4 C           0.8165    3.9895   -0.0001 C.ar    1  LIG1        0.1833
      5 O          -0.3030    3.1567   -0.0002 O.2     1  LIG1       -0.4584
      6 H          -0.7504    0.9343    0.0000 H       1  LIG1        0.1032
      7 C           2.3517    0.8177    0.0001 C.3     1  LIG1       -0.0357
      8 H           3.2608    1.0704    0.5046 H       1  LIG1        0.0279
      9 H           2.5701    0.5356   -1.0087 H       1  LIG1        0.0279
     10 H           1.8790    0.0009    0.5045 H       1  LIG1        0.0279
     11 S           3.1997    3.6567    0.0000 S.3     1  LIG1       -0.1386
     12 H           3.2111    4.9666    0.0000 H       1  LIG1        0.1072
     13 C           0.5416    5.2601   -0.0001 C.ar    1  LIG1        0.1758
     14 C           1.2792    6.4258   -0.0001 C.ar    1  LIG1        0.0123
     15 C           0.3286    7.5182   -0.0001 C.ar    1  LIG1        0.0573
     16 C          -0.9274    6.9472   -0.0002 C.ar    1  LIG1        0.1843
     17 O          -0.8223    5.5559   -0.0003 O.2     1  LIG1       -0.4472
     18 C           2.5738    6.5485    0.0000 C.3     1  LIG1       -0.0349
     19 H           2.8464    7.4519    0.5045 H       1  LIG1        0.0279
     20 H           2.9289    6.5822   -1.0088 H       1  LIG1        0.0279
     21 H           3.0112    5.7123    0.5044 H       1  LIG1        0.0279
     22 S           0.6282    8.7832   -0.0001 S.3     1  LIG1       -0.1386
     23 H          -0.4727    9.4932   -0.0001 H       1  LIG1        0.1072
     24 C          -2.1481    7.3943   -0.0002 C.ar    1  LIG1        0.1758
     25 C          -2.7387    8.6410   -0.0002 C.ar    1  LIG1        0.0123
     26 C          -4.1701    8.4218   -0.0002 C.ar    1  LIG1        0.0573
     27 C          -4.3593    7.0551   -0.0003 C.ar    1  LIG1        0.1843
     28 O          -3.1273    6.4000   -0.0004 O.2     1  LIG1       -0.4472
     29 C          -2.1502    9.8005   -0.0001 C.3     1  LIG1       -0.0349
     30 H          -2.7678   10.5139    0.5044 H       1  LIG1        0.0279
     31 H          -1.9888   10.1187   -1.0089 H       1  LIG1        0.0279
     32 H          -1.2097    9.7231    0.5043 H       1  LIG1        0.0279
     33 S          -5.0789    9.3513   -0.0002 S.3     1  LIG1       -0.1386
     34 H          -6.2676    8.8007   -0.0002 H       1  LIG1        0.1072
     35 C          -5.3898    6.2627   -0.0003 C.ar    1  LIG1        0.1748
     36 C          -6.7590    6.4301    0.0145 C.ar    1  LIG1        0.0116
     37 C          -7.3393    5.1034    0.0038 C.ar    1  LIG1        0.0462
     38 C          -6.2856    4.2129   -0.0169 C.ar    1  LIG1        0.1061
     39 O          -5.0733    4.9036   -0.0199 O.2     1  LIG1       -0.4584
     40 H          -6.1671    2.9184   -0.0337 H       1  LIG1        0.1041
     41 C          -7.4241    7.5473    0.0343 C.3     1  LIG1       -0.0350
     42 H          -8.3533    7.4003    0.5441 H       1  LIG1        0.0279
     43 H          -7.6144    7.8669   -0.9690 H       1  LIG1        0.0279
     44 H          -6.8518    8.2940    0.5441 H       1  LIG1        0.0279
     45 S          -8.6106    4.8324    0.0124 S.3     1  LIG1       -0.1393
     46 H          -8.7809    3.5335    0.0153 H       1  LIG1        0.1072
@<TRIPOS>BOND
     1    31    29    1
     2    20    18    1
     3     9     7    1
     4    43    41    1
     5    40    38    1
     6    39    38   ar
     7    39    35   ar
     8    38    37   ar
     9    28    27   ar
    10    28    24   ar
    11    27    35    1
    12    27    26   ar
    13    35    36   ar
    14    17    16   ar
    15    17    13   ar
    16    33    34    1
    17    33    26    1
    18    16    24    1
    19    16    15   ar
    20    24    25   ar
    21    25    26   ar
    22    25    29    1
    23     5     4   ar
    24     5     1   ar
    25    23    22    1
    26    14    15   ar
    27    14    13   ar
    28    14    18    1
    29    22    15    1
    30    29    32    1
    31    29    30    1
    32    13     4    1
    33     4     3   ar
    34     1     2   ar
    35     1     6    1
    36    18    21    1
    37    18    19    1
    38     2     3   ar
    39     2     7    1
    40    12    11    1
    41     3    11    1
    42     7    10    1
    43     7     8    1
    44    37    45    1
    45    37    36   ar
    46    45    46    1
    47    36    41    1
    48    41    44    1
    49    41    42    1
