@<TRIPOS>MOLECULE
mol_data/noopt/geoms/mol2/12ig12ig.out
 24 25 0 0 0
SMALL
GASTEIGER

@<TRIPOS>ATOM
      1 C           0.1763    1.8460    0.0000 C.ar    1  LIG1        0.0967
      2 C           1.5558    1.8460    0.0000 C.ar    1  LIG1        0.0012
      3 C           1.9706    3.2334    0.0000 C.ar    1  LIG1        0.0566
      4 C           0.8165    3.9895   -0.0001 C.ar    1  LIG1        0.1833
      5 O          -0.3030    3.1567   -0.0002 O.2     1  LIG1       -0.4584
      6 H          -0.7504    0.9343    0.0000 H       1  LIG1        0.1032
      7 C           2.3517    0.8177    0.0001 C.3     1  LIG1       -0.0357
      8 H           3.2608    1.0704    0.5046 H       1  LIG1        0.0279
      9 H           2.5701    0.5356   -1.0087 H       1  LIG1        0.0279
     10 H           1.8790    0.0009    0.5045 H       1  LIG1        0.0279
     11 S           3.1997    3.6567    0.0000 S.3     1  LIG1       -0.1386
     12 H           3.2111    4.9666    0.0000 H       1  LIG1        0.1072
     13 C           0.5416    5.2601   -0.0001 C.ar    1  LIG1        0.1747
     14 C           1.2791    6.4258    0.0147 C.ar    1  LIG1        0.0116
     15 C           0.3286    7.5182    0.0040 C.ar    1  LIG1        0.0462
     16 C          -0.9273    6.9473   -0.0167 C.ar    1  LIG1        0.1061
     17 O          -0.8221    5.5559   -0.0197 O.2     1  LIG1       -0.4584
     18 H          -2.1478    7.3944   -0.0335 H       1  LIG1        0.1041
     19 C           2.5735    6.5484    0.0345 C.3     1  LIG1       -0.0350
     20 H           2.8385    7.4511    0.5443 H       1  LIG1        0.0279
     21 H           2.9439    6.5836   -0.9688 H       1  LIG1        0.0279
     22 H           3.0033    5.7116    0.5443 H       1  LIG1        0.0279
     23 S           0.6281    8.7831    0.0126 S.3     1  LIG1       -0.1393
     24 H          -0.4728    9.4931    0.0155 H       1  LIG1        0.1072
@<TRIPOS>BOND
     1     9     7    1
     2    21    19    1
     3    18    16    1
     4    17    16   ar
     5    17    13   ar
     6    16    15   ar
     7     5     4   ar
     8     5     1   ar
     9     4    13    1
    10     4     3   ar
    11    13    14   ar
    12     1     6    1
    13     1     2   ar
    14    12    11    1
    15    11     3    1
    16     3     2   ar
    17     2     7    1
    18     7    10    1
    19     7     8    1
    20    15    23    1
    21    15    14   ar
    22    23    24    1
    23    14    19    1
    24    19    22    1
    25    19    20    1
