@<TRIPOS>MOLECULE
mol_data/noopt/geoms/mol2/12ig12ig12ig12ig-.out
 46 49 0 0 0
SMALL
GASTEIGER

@<TRIPOS>ATOM
      1 C           0.1763    1.8460    0.0000 C.ar    1  LIG1        0.0967
      2 C           1.5558    1.8460    0.0000 C.ar    1  LIG1        0.0012
      3 C           1.9706    3.2334    0.0000 C.ar    1  LIG1        0.0566
      4 C           0.8165    3.9895   -0.0001 C.ar    1  LIG1        0.1833
      5 O          -0.3030    3.1567   -0.0002 O.2     1  LIG1       -0.4584
      6 H          -0.7504    0.9343    0.0000 H       1  LIG1        0.1032
      7 C           2.3517    0.8177    0.0001 C.3     1  LIG1       -0.0357
      8 H           3.2608    1.0704    0.5046 H       1  LIG1        0.0279
      9 H           2.5701    0.5356   -1.0087 H       1  LIG1        0.0279
     10 H           1.8790    0.0009    0.5045 H       1  LIG1        0.0279
     11 S           3.1997    3.6567    0.0000 S.3     1  LIG1       -0.1386
     12 H           3.2111    4.9666    0.0000 H       1  LIG1        0.1072
     13 C           0.5416    5.2601   -0.0001 C.ar    1  LIG1        0.1758
     14 C           1.2791    6.4258    0.0147 C.ar    1  LIG1        0.0123
     15 C           0.3286    7.5182    0.0040 C.ar    1  LIG1        0.0573
     16 C          -0.9273    6.9473   -0.0167 C.ar    1  LIG1        0.1843
     17 O          -0.8221    5.5559   -0.0197 O.2     1  LIG1       -0.4472
     18 C           2.5735    6.5484    0.0345 C.3     1  LIG1       -0.0349
     19 H           2.8385    7.4511    0.5443 H       1  LIG1        0.0279
     20 H           2.9439    6.5836   -0.9688 H       1  LIG1        0.0279
     21 H           3.0033    5.7116    0.5443 H       1  LIG1        0.0279
     22 S           0.6281    8.7831    0.0126 S.3     1  LIG1       -0.1386
     23 H          -0.4728    9.4931    0.0155 H       1  LIG1        0.1072
     24 C          -2.1478    7.3944   -0.0335 C.ar    1  LIG1        0.1758
     25 C          -2.7383    8.6411   -0.0462 C.ar    1  LIG1        0.0123
     26 C          -4.1697    8.4219   -0.0626 C.ar    1  LIG1        0.0573
     27 C          -4.3589    7.0552   -0.0589 C.ar    1  LIG1        0.1843
     28 O          -3.1271    6.4001   -0.0412 O.2     1  LIG1       -0.4472
     29 C          -2.1498    9.8005   -0.0441 C.3     1  LIG1       -0.0349
     30 H          -2.7677   10.5133    0.4609 H       1  LIG1        0.0279
     31 H          -1.9876   10.1201   -1.0524 H       1  LIG1        0.0279
     32 H          -1.2096    9.7224    0.4608 H       1  LIG1        0.0279
     33 S          -5.0783    9.3515   -0.0777 S.3     1  LIG1       -0.1386
     34 H          -6.2670    8.8009   -0.0828 H       1  LIG1        0.1072
     35 C          -5.3894    6.2628   -0.0679 C.ar    1  LIG1        0.1748
     36 C          -6.7587    6.4303   -0.0747 C.ar    1  LIG1        0.0116
     37 C          -7.3389    5.1036   -0.0834 C.ar    1  LIG1        0.0462
     38 C          -6.2851    4.2130   -0.0815 C.ar    1  LIG1        0.1061
     39 O          -5.0728    4.9036   -0.0721 O.2     1  LIG1       -0.4584
     40 H          -6.1665    2.9184   -0.0863 H       1  LIG1        0.1041
     41 C          -7.4238    7.5477   -0.0735 C.3     1  LIG1       -0.0350
     42 H          -8.3567    7.4069    0.4312 H       1  LIG1        0.0279
     43 H          -7.6068    7.8549   -1.0820 H       1  LIG1        0.0279
     44 H          -6.8552    8.3006    0.4312 H       1  LIG1        0.0279
     45 S          -8.6103    4.8327   -0.0916 S.3     1  LIG1       -0.1393
     46 H          -8.7806    3.5338   -0.0943 H       1  LIG1        0.1072
@<TRIPOS>BOND
     1    43    41    1
     2    31    29    1
     3     9     7    1
     4    20    18    1
     5    46    45    1
     6    45    37    1
     7    40    38    1
     8    37    38   ar
     9    37    36   ar
    10    34    33    1
    11    38    39   ar
    12    33    26    1
    13    36    41    1
    14    36    35   ar
    15    41    44    1
    16    41    42    1
    17    39    35   ar
    18    35    27    1
    19    26    27   ar
    20    26    25   ar
    21    27    28   ar
    22    25    29    1
    23    25    24   ar
    24    29    32    1
    25    29    30    1
    26    28    24   ar
    27    24    16    1
    28    17    16   ar
    29    17    13   ar
    30    16    15   ar
    31     5     4   ar
    32     5     1   ar
    33     4    13    1
    34     4     3   ar
    35    13    14   ar
    36     2     3   ar
    37     2     1   ar
    38     2     7    1
    39     3    11    1
    40     6     1    1
    41    11    12    1
    42     7    10    1
    43     7     8    1
    44    15    22    1
    45    15    14   ar
    46    22    23    1
    47    14    18    1
    48    18    21    1
    49    18    19    1
