@<TRIPOS>MOLECULE
mol_data/noopt/geoms/mol2/12ig12ig12ig.out
 35 37 0 0 0
SMALL
GASTEIGER

@<TRIPOS>ATOM
      1 C           0.1763    1.8460    0.0000 C.ar    1  LIG1        0.0967
      2 C           1.5558    1.8460    0.0000 C.ar    1  LIG1        0.0012
      3 C           1.9706    3.2334    0.0000 C.ar    1  LIG1        0.0566
      4 C           0.8165    3.9895   -0.0001 C.ar    1  LIG1        0.1833
      5 O          -0.3030    3.1567   -0.0002 O.2     1  LIG1       -0.4584
      6 H          -0.7504    0.9343    0.0000 H       1  LIG1        0.1032
      7 C           2.3517    0.8177    0.0001 C.3     1  LIG1       -0.0357
      8 H           3.2608    1.0704    0.5046 H       1  LIG1        0.0279
      9 H           2.5701    0.5356   -1.0087 H       1  LIG1        0.0279
     10 H           1.8790    0.0009    0.5045 H       1  LIG1        0.0279
     11 S           3.1997    3.6567    0.0000 S.3     1  LIG1       -0.1386
     12 H           3.2111    4.9666    0.0000 H       1  LIG1        0.1072
     13 C           0.5416    5.2601   -0.0001 C.ar    1  LIG1        0.1758
     14 C           1.2791    6.4258    0.0147 C.ar    1  LIG1        0.0123
     15 C           0.3286    7.5182    0.0040 C.ar    1  LIG1        0.0573
     16 C          -0.9273    6.9473   -0.0167 C.ar    1  LIG1        0.1843
     17 O          -0.8221    5.5559   -0.0197 O.2     1  LIG1       -0.4472
     18 C           2.5735    6.5484    0.0345 C.3     1  LIG1       -0.0349
     19 H           2.8385    7.4511    0.5443 H       1  LIG1        0.0279
     20 H           2.9439    6.5836   -0.9688 H       1  LIG1        0.0279
     21 H           3.0033    5.7116    0.5443 H       1  LIG1        0.0279
     22 S           0.6281    8.7831    0.0126 S.3     1  LIG1       -0.1386
     23 H          -0.4728    9.4931    0.0155 H       1  LIG1        0.1072
     24 C          -2.1478    7.3944   -0.0335 C.ar    1  LIG1        0.1748
     25 C          -2.7383    8.6411   -0.0462 C.ar    1  LIG1        0.0116
     26 C          -4.1697    8.4219   -0.0626 C.ar    1  LIG1        0.0462
     27 C          -4.3589    7.0552   -0.0589 C.ar    1  LIG1        0.1061
     28 O          -3.1271    6.4001   -0.0412 O.2     1  LIG1       -0.4584
     29 H          -5.3894    6.2628   -0.0679 H       1  LIG1        0.1041
     30 C          -2.1498    9.8005   -0.0441 C.3     1  LIG1       -0.0350
     31 H          -2.7677   10.5133    0.4609 H       1  LIG1        0.0279
     32 H          -1.9876   10.1201   -1.0524 H       1  LIG1        0.0279
     33 H          -1.2096    9.7224    0.4608 H       1  LIG1        0.0279
     34 S          -5.0783    9.3515   -0.0777 S.3     1  LIG1       -0.1393
     35 H          -6.2670    8.8009   -0.0828 H       1  LIG1        0.1072
@<TRIPOS>BOND
     1    32    30    1
     2     9     7    1
     3    20    18    1
     4    35    34    1
     5    34    26    1
     6    29    27    1
     7    26    27   ar
     8    26    25   ar
     9    27    28   ar
    10    25    30    1
    11    25    24   ar
    12    30    33    1
    13    30    31    1
    14    28    24   ar
    15    24    16    1
    16    17    16   ar
    17    17    13   ar
    18    16    15   ar
    19     5     4   ar
    20     5     1   ar
    21    13     4    1
    22    13    14   ar
    23     4     3   ar
    24     1     2   ar
    25     1     6    1
    26    11     3    1
    27    11    12    1
    28     2     3   ar
    29     2     7    1
    30     7    10    1
    31     7     8    1
    32    15    22    1
    33    15    14   ar
    34    22    23    1
    35    14    18    1
    36    18    21    1
    37    18    19    1
