@<TRIPOS>MOLECULE
mol_data/noopt/geoms/mol2/12ig12ig-12ig12ig-.out
 46 49 0 0 0
SMALL
GASTEIGER

@<TRIPOS>ATOM
      1 C           0.1763    1.8460    0.0000 C.ar    1  LIG1        0.0967
      2 C           1.5558    1.8460    0.0000 C.ar    1  LIG1        0.0012
      3 C           1.9706    3.2334    0.0000 C.ar    1  LIG1        0.0566
      4 C           0.8165    3.9895   -0.0001 C.ar    1  LIG1        0.1833
      5 O          -0.3030    3.1567   -0.0002 O.2     1  LIG1       -0.4584
      6 H          -0.7504    0.9343    0.0000 H       1  LIG1        0.1032
      7 C           2.3517    0.8177    0.0001 C.3     1  LIG1       -0.0357
      8 H           3.2608    1.0704    0.5046 H       1  LIG1        0.0279
      9 H           2.5701    0.5356   -1.0087 H       1  LIG1        0.0279
     10 H           1.8790    0.0009    0.5045 H       1  LIG1        0.0279
     11 S           3.1997    3.6567    0.0000 S.3     1  LIG1       -0.1386
     12 H           3.2111    4.9666    0.0000 H       1  LIG1        0.1072
     13 C           0.5416    5.2601   -0.0001 C.ar    1  LIG1        0.1758
     14 C           1.2792    6.4258   -0.0001 C.ar    1  LIG1        0.0123
     15 C           0.3286    7.5182   -0.0001 C.ar    1  LIG1        0.0573
     16 C          -0.9274    6.9472   -0.0002 C.ar    1  LIG1        0.1843
     17 O          -0.8223    5.5559   -0.0003 O.2     1  LIG1       -0.4472
     18 C           2.5738    6.5485    0.0000 C.3     1  LIG1       -0.0349
     19 H           2.8464    7.4519    0.5045 H       1  LIG1        0.0279
     20 H           2.9289    6.5822   -1.0088 H       1  LIG1        0.0279
     21 H           3.0112    5.7123    0.5044 H       1  LIG1        0.0279
     22 S           0.6282    8.7832   -0.0001 S.3     1  LIG1       -0.1386
     23 H          -0.4727    9.4932   -0.0001 H       1  LIG1        0.1072
     24 C          -2.1481    7.3943   -0.0002 C.ar    1  LIG1        0.1758
     25 C          -2.7387    8.6410   -0.0002 C.ar    1  LIG1        0.0123
     26 C          -4.1701    8.4218   -0.0002 C.ar    1  LIG1        0.0573
     27 C          -4.3593    7.0551   -0.0003 C.ar    1  LIG1        0.1843
     28 O          -3.1273    6.4000   -0.0004 O.2     1  LIG1       -0.4472
     29 C          -2.1502    9.8005   -0.0001 C.3     1  LIG1       -0.0349
     30 H          -2.7678   10.5139    0.5044 H       1  LIG1        0.0279
     31 H          -1.9888   10.1187   -1.0089 H       1  LIG1        0.0279
     32 H          -1.2097    9.7231    0.5043 H       1  LIG1        0.0279
     33 S          -5.0789    9.3513   -0.0002 S.3     1  LIG1       -0.1386
     34 H          -6.2676    8.8007   -0.0002 H       1  LIG1        0.1072
     35 C          -5.3898    6.2627   -0.0003 C.ar    1  LIG1        0.1748
     36 C          -6.7591    6.4302   -0.0003 C.ar    1  LIG1        0.0116
     37 C          -7.3393    5.1034   -0.0003 C.ar    1  LIG1        0.0462
     38 C          -6.2855    4.2128   -0.0004 C.ar    1  LIG1        0.1061
     39 O          -5.0732    4.9035   -0.0005 O.2     1  LIG1       -0.4584
     40 H          -6.1669    2.9182   -0.0004 H       1  LIG1        0.1041
     41 C          -7.4242    7.5475   -0.0002 C.3     1  LIG1       -0.0350
     42 H          -8.3574    7.4071    0.5043 H       1  LIG1        0.0279
     43 H          -7.6068    7.8540   -1.0090 H       1  LIG1        0.0279
     44 H          -6.8559    8.3008    0.5042 H       1  LIG1        0.0279
     45 S          -8.6107    4.8325   -0.0003 S.3     1  LIG1       -0.1393
     46 H          -8.7810    3.5336   -0.0003 H       1  LIG1        0.1072
@<TRIPOS>BOND
     1    43    41    1
     2    31    29    1
     3    20    18    1
     4     9     7    1
     5    39    38   ar
     6    39    35   ar
     7    28    27   ar
     8    28    24   ar
     9    40    38    1
    10    38    37   ar
    11    37    36   ar
    12    37    45    1
    13    27    35    1
    14    27    26   ar
    15    17    16   ar
    16    17    13   ar
    17    35    36   ar
    18    36    41    1
    19    45    46    1
    20    26    25   ar
    21    26    33    1
    22    25    24   ar
    23    25    29    1
    24    24    16    1
    25    33    34    1
    26    41    44    1
    27    41    42    1
    28     5     4   ar
    29     5     1   ar
    30    16    15   ar
    31    22    15    1
    32    22    23    1
    33     4    13    1
    34     4     3   ar
    35    13    14   ar
    36    14    15   ar
    37    14    18    1
    38    29    32    1
    39    29    30    1
    40     2     3   ar
    41     2     1   ar
    42     2     7    1
    43     3    11    1
    44     1     6    1
    45    11    12    1
    46    18    21    1
    47    18    19    1
    48     7    10    1
    49     7     8    1
