@<TRIPOS>MOLECULE
mol_data/noopt/geoms/mol2/12ig12ig-.out
 24 25 0 0 0
SMALL
GASTEIGER

@<TRIPOS>ATOM
      1 C           0.1763    1.8460    0.0000 C.ar    1  LIG1        0.0967
      2 C           1.5558    1.8460    0.0000 C.ar    1  LIG1        0.0012
      3 C           1.9706    3.2334    0.0000 C.ar    1  LIG1        0.0566
      4 C           0.8165    3.9895   -0.0001 C.ar    1  LIG1        0.1833
      5 O          -0.3030    3.1567   -0.0002 O.2     1  LIG1       -0.4584
      6 H          -0.7504    0.9343    0.0000 H       1  LIG1        0.1032
      7 C           2.3517    0.8177    0.0001 C.3     1  LIG1       -0.0357
      8 H           3.2608    1.0704    0.5046 H       1  LIG1        0.0279
      9 H           2.5701    0.5356   -1.0087 H       1  LIG1        0.0279
     10 H           1.8790    0.0009    0.5045 H       1  LIG1        0.0279
     11 S           3.1997    3.6567    0.0000 S.3     1  LIG1       -0.1386
     12 H           3.2111    4.9666    0.0000 H       1  LIG1        0.1072
     13 C           0.5416    5.2601   -0.0001 C.ar    1  LIG1        0.1747
     14 C           1.2792    6.4258   -0.0001 C.ar    1  LIG1        0.0116
     15 C           0.3286    7.5182   -0.0001 C.ar    1  LIG1        0.0462
     16 C          -0.9274    6.9472   -0.0002 C.ar    1  LIG1        0.1061
     17 O          -0.8223    5.5559   -0.0003 O.2     1  LIG1       -0.4584
     18 H          -2.1481    7.3943   -0.0002 H       1  LIG1        0.1041
     19 C           2.5738    6.5485    0.0000 C.3     1  LIG1       -0.0350
     20 H           2.8464    7.4519    0.5045 H       1  LIG1        0.0279
     21 H           2.9289    6.5822   -1.0088 H       1  LIG1        0.0279
     22 H           3.0112    5.7123    0.5044 H       1  LIG1        0.0279
     23 S           0.6282    8.7832   -0.0001 S.3     1  LIG1       -0.1393
     24 H          -0.4727    9.4932   -0.0001 H       1  LIG1        0.1072
@<TRIPOS>BOND
     1    21    19    1
     2     9     7    1
     3    17    16   ar
     4    17    13   ar
     5     5     4   ar
     6     5     1   ar
     7    18    16    1
     8    16    15   ar
     9    13    14   ar
    10    13     4    1
    11    24    23    1
    12    23    15    1
    13    15    14   ar
    14    14    19    1
    15     4     3   ar
    16    12    11    1
    17     1     6    1
    18     1     2   ar
    19    11     3    1
    20    19    22    1
    21    19    20    1
    22     3     2   ar
    23     2     7    1
    24     7    10    1
    25     7     8    1
