@<TRIPOS>MOLECULE
mol_data/noopt/geoms/mol2/12ig12ig-12ig-12ig-.out
 46 49 0 0 0
SMALL
GASTEIGER

@<TRIPOS>ATOM
      1 C           0.1763    1.8460    0.0000 C.ar    1  LIG1        0.0967
      2 C           1.5558    1.8460    0.0000 C.ar    1  LIG1        0.0012
      3 C           1.9706    3.2334    0.0000 C.ar    1  LIG1        0.0566
      4 C           0.8165    3.9895   -0.0001 C.ar    1  LIG1        0.1833
      5 O          -0.3030    3.1567   -0.0002 O.2     1  LIG1       -0.4584
      6 H          -0.7504    0.9343    0.0000 H       1  LIG1        0.1032
      7 C           2.3517    0.8177    0.0001 C.3     1  LIG1       -0.0357
      8 H           3.2608    1.0704    0.5046 H       1  LIG1        0.0279
      9 H           2.5701    0.5356   -1.0087 H       1  LIG1        0.0279
     10 H           1.8790    0.0009    0.5045 H       1  LIG1        0.0279
     11 S           3.1997    3.6567    0.0000 S.3     1  LIG1       -0.1386
     12 H           3.2111    4.9666    0.0000 H       1  LIG1        0.1072
     13 C           0.5416    5.2601   -0.0001 C.ar    1  LIG1        0.1758
     14 C           1.2792    6.4258   -0.0001 C.ar    1  LIG1        0.0123
     15 C           0.3286    7.5182   -0.0001 C.ar    1  LIG1        0.0573
     16 C          -0.9274    6.9472   -0.0002 C.ar    1  LIG1        0.1843
     17 O          -0.8223    5.5559   -0.0003 O.2     1  LIG1       -0.4472
     18 C           2.5738    6.5485    0.0000 C.3     1  LIG1       -0.0349
     19 H           2.8464    7.4519    0.5045 H       1  LIG1        0.0279
     20 H           2.9289    6.5822   -1.0088 H       1  LIG1        0.0279
     21 H           3.0112    5.7123    0.5044 H       1  LIG1        0.0279
     22 S           0.6282    8.7832   -0.0001 S.3     1  LIG1       -0.1386
     23 H          -0.4727    9.4932   -0.0001 H       1  LIG1        0.1072
     24 C          -2.1481    7.3943   -0.0002 C.ar    1  LIG1        0.1758
     25 C          -2.7388    8.6409    0.0146 C.ar    1  LIG1        0.0123
     26 C          -4.1701    8.4218    0.0039 C.ar    1  LIG1        0.0573
     27 C          -4.3592    7.0552   -0.0168 C.ar    1  LIG1        0.1843
     28 O          -3.1273    6.4001   -0.0198 O.2     1  LIG1       -0.4472
     29 C          -2.1503    9.8003    0.0344 C.3     1  LIG1       -0.0349
     30 H          -2.7714   10.5068    0.5442 H       1  LIG1        0.0279
     31 H          -1.9820   10.1320   -0.9689 H       1  LIG1        0.0279
     32 H          -1.2133    9.7159    0.5442 H       1  LIG1        0.0279
     33 S          -5.0789    9.3513    0.0125 S.3     1  LIG1       -0.1386
     34 H          -6.2676    8.8006    0.0154 H       1  LIG1        0.1072
     35 C          -5.3897    6.2629   -0.0336 C.ar    1  LIG1        0.1748
     36 C          -6.7589    6.4305   -0.0463 C.ar    1  LIG1        0.0116
     37 C          -7.3391    5.1038   -0.0627 C.ar    1  LIG1        0.0462
     38 C          -6.2854    4.2132   -0.0590 C.ar    1  LIG1        0.1061
     39 O          -5.0731    4.9037   -0.0413 O.2     1  LIG1       -0.4584
     40 H          -6.1668    2.9186   -0.0680 H       1  LIG1        0.1041
     41 C          -7.4240    7.5479   -0.0442 C.3     1  LIG1       -0.0350
     42 H          -8.3568    7.4068    0.4608 H       1  LIG1        0.0279
     43 H          -7.6074    7.8557   -1.0525 H       1  LIG1        0.0279
     44 H          -6.8553    8.3005    0.4607 H       1  LIG1        0.0279
     45 S          -8.6105    4.8331   -0.0778 S.3     1  LIG1       -0.1393
     46 H          -8.7808    3.5342   -0.0829 H       1  LIG1        0.1072
@<TRIPOS>BOND
     1    43    41    1
     2    20    18    1
     3     9     7    1
     4    31    29    1
     5    46    45    1
     6    45    37    1
     7    40    38    1
     8    37    38   ar
     9    37    36   ar
    10    38    39   ar
    11    36    41    1
    12    36    35   ar
    13    41    44    1
    14    41    42    1
    15    39    35   ar
    16    35    27    1
    17    28    27   ar
    18    28    24   ar
    19    27    26   ar
    20    17    16   ar
    21    17    13   ar
    22    24    16    1
    23    24    25   ar
    24    16    15   ar
    25     5     4   ar
    26     5     1   ar
    27    22    23    1
    28    22    15    1
    29     4    13    1
    30     4     3   ar
    31    15    14   ar
    32    14    13   ar
    33    14    18    1
    34    18    21    1
    35    18    19    1
    36     2     3   ar
    37     2     1   ar
    38     2     7    1
    39     3    11    1
    40     6     1    1
    41    11    12    1
    42     7    10    1
    43     7     8    1
    44    26    33    1
    45    26    25   ar
    46    33    34    1
    47    25    29    1
    48    29    32    1
    49    29    30    1
