@<TRIPOS>MOLECULE
mol_data/noopt/geoms/mol2/12ih4ah(10)12ad(350)4lf(250).out
 49 52 0 0 0
SMALL
GASTEIGER

@<TRIPOS>ATOM
      1 C           0.1763    1.8460    0.0000 C.ar    1  LIG1        0.0973
      2 C           1.5558    1.8460    0.0000 C.ar    1  LIG1        0.0086
      3 C           1.9706    3.2334    0.0000 C.ar    1  LIG1        0.0739
      4 C           0.8165    3.9895   -0.0001 C.ar    1  LIG1        0.1556
      5 O          -0.3030    3.1567   -0.0002 O.2     1  LIG1       -0.4608
      6 H          -0.7504    0.9343    0.0000 H       1  LIG1        0.1033
      7 C           2.3517    0.8177    0.0001 C.3     1  LIG1       -0.0350
      8 H           3.2608    1.0704    0.5046 H       1  LIG1        0.0279
      9 H           2.5701    0.5356   -1.0087 H       1  LIG1        0.0279
     10 H           1.8790    0.0009    0.5045 H       1  LIG1        0.0279
     11 N           3.1998    3.6567   -0.0000 N.pl3   1  LIG1       -0.3548
     12 H           3.7808    2.9932   -0.4714 H       1  LIG1        0.1424
     13 H           3.2491    4.5372   -0.4714 H       1  LIG1        0.1424
     14 C           1.5696    6.2012    0.2129 C.ar    1  LIG1       -0.0502
     15 C           1.2201    7.5654    0.2051 C.ar    1  LIG1       -0.0486
     16 C           0.5416    5.2600   -0.0001 C.ar    1  LIG1        0.0209
     17 C          -0.0940    7.9767   -0.0059 C.ar    1  LIG1        0.0380
     18 H           1.9978    8.3083    0.3676 H       1  LIG1        0.0625
     19 C          -0.7705    5.6701   -0.2108 C.ar    1  LIG1       -0.0296
     20 C          -1.0976    7.0301   -0.2153 C.ar    1  LIG1        0.0360
     21 H          -1.5453    4.9251   -0.3726 H       1  LIG1        0.0643
     22 H           2.8127    5.8789    0.4148 H       1  LIG1        0.0625
     23 N          -2.3259    7.4075   -0.4127 N.pl3   1  LIG1       -0.3574
     24 H          -2.3326    8.2637   -0.9292 H       1  LIG1        0.1423
     25 H          -2.8122    6.7028   -0.9292 H       1  LIG1        0.1423
     26 C          -0.3812    9.2446   -0.0068 C.ar    1  LIG1        0.1387
     27 C           0.3340   10.4148   -0.1552 C.ar    1  LIG1        0.0023
     28 C          -0.6192   11.4998   -0.0495 C.ar    1  LIG1        0.0981
     29 C          -1.8543   10.9202    0.1564 C.ar    1  LIG1        0.1566
     30 O          -1.7335    9.5305    0.1865 O.2     1  LIG1       -0.4533
     31 H           1.6122   10.5466   -0.3520 H       1  LIG1        0.0668
     32 N          -0.0907   13.8831   -0.2120 N.1     1  LIG1       -0.1907
     33 C          -0.3384   12.7661   -0.1359 C.1     1  LIG1        0.1030
     34 C          -4.0027   11.2528   -0.7254 C.ar    1  LIG1        0.1310
     35 C          -5.3025   11.7436   -0.4950 C.ar    1  LIG1       -0.0158
     36 C          -3.0667   11.3584    0.3236 C.ar    1  LIG1        0.0636
     37 C          -5.6570   12.3140    0.7255 C.ar    1  LIG1       -0.0167
     38 H          -6.0403   11.6722   -1.2910 H       1  LIG1        0.0655
     39 C          -3.4201   11.9278    1.5422 C.ar    1  LIG1       -0.0060
     40 C          -4.7165   12.4093    1.7520 C.ar    1  LIG1        0.1178
     41 H          -2.6803   11.9979    2.3356 H       1  LIG1        0.0662
     42 H          -6.8661   12.7569    0.9040 H       1  LIG1        0.0655
     43 O          -3.7316   10.7310   -1.8849 O.3     1  LIG1       -0.4944
     44 C          -4.8284    9.9181   -2.3106 C.3     1  LIG1        0.0788
     45 H          -4.6049    9.4889   -3.2649 H       1  LIG1        0.0660
     46 H          -4.9912    9.1369   -1.5976 H       1  LIG1        0.0660
     47 H          -5.7096   10.5199   -2.3877 H       1  LIG1        0.0660
     48 O          -5.0411   12.9407    2.8932 O.3     1  LIG1       -0.5067
     49 H          -5.8934   12.6000    3.1744 H       1  LIG1        0.2921
@<TRIPOS>BOND
     1    45    44    1
     2    47    44    1
     3    44    43    1
     4    44    46    1
     5    43    34    1
     6    38    35    1
     7     9     7    1
     8    25    23    1
     9    24    23    1
    10    34    35   ar
    11    34    36   ar
    12    35    37   ar
    13    13    11    1
    14    12    11    1
    15    23    20    1
    16    21    19    1
    17    31    27    1
    18    20    19   ar
    19    20    17   ar
    20    32    33    3
    21    19    16   ar
    22    27    28   ar
    23    27    26   ar
    24    33    28    1
    25    28    29   ar
    26    26    17    1
    27    26    30   ar
    28    17    15   ar
    29     5     4   ar
    30     5     1   ar
    31    16     4    1
    32    16    14   ar
    33     4     3   ar
    34     1     6    1
    35     1     2   ar
    36    11     3    1
    37     2     3   ar
    38     2     7    1
    39     7    10    1
    40     7     8    1
    41    29    30   ar
    42    29    36    1
    43    15    14   ar
    44    15    18    1
    45    14    22    1
    46    36    39   ar
    47    37    42    1
    48    37    40   ar
    49    39    40   ar
    50    39    41    1
    51    40    48    1
    52    48    49    1
