@<TRIPOS>MOLECULE
mol_data/noopt/geoms/mol2/12ih6ia-12ia-4he.out
 50 53 0 0 0
SMALL
GASTEIGER

@<TRIPOS>ATOM
      1 C           0.1763    1.8460    0.0000 C.ar    1  LIG1        0.0973
      2 C           1.5558    1.8460    0.0000 C.ar    1  LIG1        0.0086
      3 C           1.9706    3.2334    0.0000 C.ar    1  LIG1        0.0739
      4 C           0.8165    3.9895   -0.0001 C.ar    1  LIG1        0.1573
      5 O          -0.3030    3.1567   -0.0002 O.2     1  LIG1       -0.4607
      6 H          -0.7504    0.9343    0.0000 H       1  LIG1        0.1033
      7 C           2.3517    0.8177    0.0001 C.3     1  LIG1       -0.0350
      8 H           3.2608    1.0704    0.5046 H       1  LIG1        0.0279
      9 H           2.5701    0.5356   -1.0087 H       1  LIG1        0.0279
     10 H           1.8790    0.0009    0.5045 H       1  LIG1        0.0279
     11 N           3.1998    3.6567   -0.0000 N.pl3   1  LIG1       -0.3548
     12 H           3.7808    2.9932   -0.4714 H       1  LIG1        0.1424
     13 H           3.2491    4.5372   -0.4714 H       1  LIG1        0.1424
     14 C          -0.7951    5.6985   -0.0211 C.ar    1  LIG1        0.0497
     15 C           0.5416    5.2601   -0.0001 C.ar    1  LIG1        0.0401
     16 C           1.5571    6.2179    0.0209 C.ar    1  LIG1       -0.0472
     17 C           1.2066    7.5691    0.0200 C.ar    1  LIG1       -0.0320
     18 C          -0.1586    7.9086   -0.0020 C.ar    1  LIG1        0.1066
     19 N          -1.1512    6.9977   -0.0223 N.ar    1  LIG1       -0.2481
     20 H           2.6132    5.9133    0.0367 H       1  LIG1        0.0626
     21 C          -1.7755    4.8446   -0.0410 C.3     1  LIG1       -0.0216
     22 H          -1.4765    3.9465    0.4579 H       1  LIG1        0.0293
     23 H          -2.0328    4.6205   -1.0552 H       1  LIG1        0.0293
     24 H          -2.6241    5.2642    0.4578 H       1  LIG1        0.0293
     25 H           2.1148    8.4990    0.0389 H       1  LIG1        0.0640
     26 C          -0.5350    9.1529   -0.0037 C.ar    1  LIG1        0.1567
     27 C           0.1064   10.3743   -0.0049 C.ar    1  LIG1       -0.0026
     28 C          -0.9291   11.3866   -0.0065 C.ar    1  LIG1       -0.0122
     29 C          -2.1351   10.7163   -0.0062 C.ar    1  LIG1        0.1378
     30 O          -1.9182    9.3380   -0.0046 O.2     1  LIG1       -0.4530
     31 C           1.3868   10.6008   -0.0046 C.3     1  LIG1       -0.0360
     32 H           1.5857   11.5232    0.4999 H       1  LIG1        0.0279
     33 H           1.7383   10.6631   -1.0134 H       1  LIG1        0.0279
     34 H           1.8901    9.8026    0.4998 H       1  LIG1        0.0279
     35 H          -0.7324   12.6716   -0.0080 H       1  LIG1        0.0658
     36 C          -3.7381   12.4293   -0.0068 C.ar    1  LIG1        0.0354
     37 C          -5.1085   12.7536   -0.0062 C.ar    1  LIG1       -0.0392
     38 C          -3.3878   11.0636   -0.0071 C.ar    1  LIG1        0.0390
     39 C          -6.0886   11.7636   -0.0065 C.ar    1  LIG1       -0.0446
     40 H          -5.4009   13.8013   -0.0058 H       1  LIG1        0.0636
     41 C          -4.3658   10.0749   -0.0074 C.ar    1  LIG1       -0.0339
     42 C          -5.7220   10.4172   -0.0072 C.ar    1  LIG1        0.0255
     43 H          -4.0702    9.0288   -0.0075 H       1  LIG1        0.0637
     44 H          -7.3446   12.0988   -0.0061 H       1  LIG1        0.0630
     45 N          -2.8701   13.3971   -0.0067 N.pl3   1  LIG1       -0.3574
     46 H          -2.0397   13.1001   -0.4781 H       1  LIG1        0.1423
     47 H          -3.2554   14.1904   -0.4782 H       1  LIG1        0.1423
     48 C          -6.6318    9.4886   -0.0074 C.1     1  LIG1       -0.0696
     49 C          -7.4724    8.6306   -0.0075 C.1     1  LIG1       -0.1139
     50 H          -8.2212    7.8663   -0.0076 H       1  LIG1        0.1232
@<TRIPOS>BOND
     1    23    21    1
     2    33    31    1
     3     9     7    1
     4    47    45    1
     5    46    45    1
     6    13    11    1
     7    12    11    1
     8    21    14    1
     9    21    24    1
    10    21    22    1
    11    19    14   ar
    12    19    18   ar
    13    14    15   ar
    14    35    28    1
    15    50    49    1
    16    43    41    1
    17    49    48    3
    18    41    42   ar
    19    41    38   ar
    20    48    42    1
    21    42    39   ar
    22    38    36   ar
    23    38    29    1
    24    36    45    1
    25    36    37   ar
    26    39    37   ar
    27    39    44    1
    28    28    29   ar
    29    28    27   ar
    30    37    40    1
    31    29    30   ar
    32    27    31    1
    33    27    26   ar
    34    31    34    1
    35    31    32    1
    36    30    26   ar
    37    26    18    1
    38    18    17   ar
    39     5     4   ar
    40     5     1   ar
    41     4    15    1
    42     4     3   ar
    43    15    16   ar
    44     2     1   ar
    45     2     3   ar
    46     2     7    1
    47     1     6    1
    48     3    11    1
    49     7    10    1
    50     7     8    1
    51    17    16   ar
    52    17    25    1
    53    16    20    1
