@<TRIPOS>MOLECULE
mol_data/noopt/geoms/mol2/12ih12fa(140)13eh(210)13ih(60).out
 47 50 0 0 0
SMALL
GASTEIGER

@<TRIPOS>ATOM
      1 C           0.1763    1.8460    0.0000 C.ar    1  LIG1        0.0975
      2 C           1.5558    1.8460    0.0000 C.ar    1  LIG1        0.0087
      3 C           1.9706    3.2334    0.0000 C.ar    1  LIG1        0.0771
      4 C           0.8165    3.9895   -0.0001 C.ar    1  LIG1        0.1941
      5 O          -0.3030    3.1567   -0.0002 O.2     1  LIG1       -0.4575
      6 H          -0.7504    0.9343    0.0000 H       1  LIG1        0.1033
      7 C           2.3517    0.8177    0.0001 C.3     1  LIG1       -0.0350
      8 H           3.2608    1.0704    0.5046 H       1  LIG1        0.0279
      9 H           2.5701    0.5356   -1.0087 H       1  LIG1        0.0279
     10 H           1.8790    0.0009    0.5045 H       1  LIG1        0.0279
     11 N           3.1998    3.6567   -0.0000 N.pl3   1  LIG1       -0.3547
     12 H           3.7808    2.9932   -0.4714 H       1  LIG1        0.1424
     13 H           3.2491    4.5372   -0.4714 H       1  LIG1        0.1424
     14 C           0.5416    5.2601   -0.0001 C.ar    1  LIG1        0.2135
     15 C          -0.4282    6.0564    0.5729 C.ar    1  LIG1        0.1665
     16 C          -0.1467    7.4153    0.1594 C.ar    1  LIG1        0.0280
     17 C           0.9770    7.3593   -0.6391 C.ar    1  LIG1        0.1568
     18 O           1.4201    6.0411   -0.7524 O.2     1  LIG1       -0.4463
     19 O          -1.4124    5.6861    1.3374 O.3     1  LIG1       -0.5031
     20 H          -1.3363    4.7479    1.5258 H       1  LIG1        0.2923
     21 H          -0.8360    8.4664    0.4913 H       1  LIG1        0.0693
     22 C           1.6952    8.2259   -1.2897 C.ar    1  LIG1        0.1001
     23 C           1.3239    9.2100   -2.1509 C.ar    1  LIG1        0.0742
     24 C           2.5175    9.8726   -2.5834 C.ar    1  LIG1        0.0679
     25 C           3.5655    9.2652   -1.9662 C.ar    1  LIG1        0.0859
     26 N           3.0665    8.2562   -1.1736 N.ar    1  LIG1       -0.3481
     27 H           3.6102    7.6468   -0.6069 H       1  LIG1        0.1661
     28 C           0.1082    9.4935   -2.5137 C.1     1  LIG1       -0.0656
     29 C          -1.0151    9.7554   -2.8491 C.1     1  LIG1       -0.1138
     30 H          -2.0157    9.9888   -3.1477 H       1  LIG1        0.1232
     31 N           2.5896   10.8711   -3.4127 N.pl3   1  LIG1       -0.3553
     32 H           3.4008   10.7684   -3.9883 H       1  LIG1        0.1424
     33 H           1.7721   10.8860   -3.9884 H       1  LIG1        0.1424
     34 C           4.8410    9.5063   -2.0367 C.ar    1  LIG1        0.0695
     35 C           5.8552    9.1381   -1.2099 C.ar    1  LIG1       -0.0031
     36 C           7.0669    9.6719   -1.7554 C.ar    1  LIG1        0.0457
     37 C           6.7400   10.3414   -2.8924 C.ar    1  LIG1        0.0233
     38 N           5.3782   10.2430   -3.0682 N.ar    1  LIG1       -0.3576
     39 H           4.8644   10.6402   -3.8207 H       1  LIG1        0.1654
     40 H           7.4887   10.9906   -3.7339 H       1  LIG1        0.0826
     41 C           5.7419    8.4323   -0.1237 C.3     1  LIG1       -0.0359
     42 H           6.6402    8.5162    0.4515 H       1  LIG1        0.0279
     43 H           5.5773    7.4066   -0.3803 H       1  LIG1        0.0279
     44 H           4.9150    8.7932    0.4514 H       1  LIG1        0.0279
     45 N           8.2610    9.5420   -1.2581 N.pl3   1  LIG1       -0.3566
     46 H           8.6581    8.6774   -1.5662 H       1  LIG1        0.1424
     47 H           8.8348   10.3008   -1.5662 H       1  LIG1        0.1424
@<TRIPOS>BOND
     1    33    31    1
     2    32    31    1
     3    39    38    1
     4    40    37    1
     5    31    24    1
     6    30    29    1
     7    38    37   ar
     8    38    34   ar
     9    37    36   ar
    10    29    28    3
    11    24    23   ar
    12    24    25   ar
    13    28    23    1
    14    23    22   ar
    15    34    25    1
    16    34    35   ar
    17    25    26   ar
    18    36    45    1
    19    36    35   ar
    20    47    45    1
    21    46    45    1
    22    22    26   ar
    23    22    17    1
    24    35    41    1
    25    26    27    1
    26     9     7    1
    27    18    17   ar
    28    18    14   ar
    29    17    16   ar
    30    13    11    1
    31    12    11    1
    32    43    41    1
    33    41    44    1
    34    41    42    1
    35     5     4   ar
    36     5     1   ar
    37    14     4    1
    38    14    15   ar
    39     4     3   ar
    40     1     2   ar
    41     1     6    1
    42     2     3   ar
    43     2     7    1
    44     3    11    1
    45     7    10    1
    46     7     8    1
    47    16    21    1
    48    16    15   ar
    49    15    19    1
    50    19    20    1
