@<TRIPOS>MOLECULE
mol_data/noopt/geoms/mol2/12ih6ll(340)4al(20)13hh(280).out
 57 60 0 0 0
SMALL
GASTEIGER

@<TRIPOS>ATOM
      1 C           0.1763    1.8460    0.0000 C.ar    1  LIG1        0.0973
      2 C           1.5558    1.8460    0.0000 C.ar    1  LIG1        0.0086
      3 C           1.9706    3.2334    0.0000 C.ar    1  LIG1        0.0740
      4 C           0.8165    3.9895   -0.0001 C.ar    1  LIG1        0.1608
      5 O          -0.3030    3.1567   -0.0002 O.2     1  LIG1       -0.4606
      6 H          -0.7504    0.9343    0.0000 H       1  LIG1        0.1033
      7 C           2.3517    0.8177    0.0001 C.3     1  LIG1       -0.0350
      8 H           3.2608    1.0704    0.5046 H       1  LIG1        0.0279
      9 H           2.5701    0.5356   -1.0087 H       1  LIG1        0.0279
     10 H           1.8790    0.0009    0.5045 H       1  LIG1        0.0279
     11 N           3.1998    3.6567   -0.0000 N.pl3   1  LIG1       -0.3548
     12 H           3.7808    2.9932   -0.4714 H       1  LIG1        0.1424
     13 H           3.2491    4.5372   -0.4714 H       1  LIG1        0.1424
     14 C          -0.7238    5.7139    0.4149 C.ar    1  LIG1        0.2262
     15 C           0.5416    5.2601   -0.0001 C.ar    1  LIG1        0.0840
     16 C           1.4870    6.2027   -0.4084 C.ar    1  LIG1       -0.0020
     17 C           1.1398    7.5546   -0.3889 C.ar    1  LIG1        0.1469
     18 C          -0.1513    7.9102    0.0426 C.ar    1  LIG1        0.1164
     19 N          -1.0755    7.0141    0.4401 N.ar    1  LIG1       -0.2086
     20 H           2.4859    5.8858   -0.7402 H       1  LIG1        0.0663
     21 O          -1.6372    4.8747    0.8040 O.3     1  LIG1       -0.4792
     22 C          -2.8846    5.5592    0.9468 C.3     1  LIG1        0.0804
     23 H          -3.6361    4.8681    1.2669 H       1  LIG1        0.0660
     24 H          -2.7831    6.3377    1.6739 H       1  LIG1        0.0660
     25 H          -3.1680    5.9840    0.0066 H       1  LIG1        0.0660
     26 O           1.9844    8.4708   -0.7595 O.3     1  LIG1       -0.4929
     27 C           3.2856    7.8935   -0.8957 C.3     1  LIG1        0.0789
     28 H           3.9804    8.6479   -1.2009 H       1  LIG1        0.0660
     29 H           3.5940    7.4836    0.0434 H       1  LIG1        0.0660
     30 H           3.2562    7.1171   -1.6313 H       1  LIG1        0.0660
     31 C           0.3828   10.1449    0.5166 C.ar    1  LIG1       -0.0516
     32 C          -0.0668   11.4794    0.5387 C.ar    1  LIG1       -0.0484
     33 C          -0.5214    9.1558    0.0786 C.ar    1  LIG1        0.0075
     34 C          -1.3589   11.8164    0.1419 C.ar    1  LIG1        0.0418
     35 H           0.6146   12.2583    0.8734 H       1  LIG1        0.0625
     36 C          -1.8114    9.4918   -0.3176 C.ar    1  LIG1       -0.0100
     37 C          -2.2393   10.8232   -0.2890 C.ar    1  LIG1        0.1299
     38 H          -2.4900    8.7109   -0.6513 H       1  LIG1        0.0661
     39 H           1.5996    9.8924    0.8985 H       1  LIG1        0.0624
     40 O          -3.4464   11.1313   -0.6603 O.3     1  LIG1       -0.4944
     41 C          -3.5563   12.5505   -0.7967 C.3     1  LIG1        0.0788
     42 H          -4.5499   12.8036   -1.1026 H       1  LIG1        0.0660
     43 H          -3.3425   13.0167    0.1424 H       1  LIG1        0.0660
     44 H          -2.8586   12.8932   -1.5320 H       1  LIG1        0.0660
     45 C          -1.7408   13.0586    0.1748 C.ar    1  LIG1        0.0728
     46 C          -1.8218   13.9830   -0.8186 C.ar    1  LIG1        0.0712
     47 C          -2.3044   15.1979   -0.2340 C.ar    1  LIG1        0.0637
     48 C          -2.4988   14.9620    1.0906 C.ar    1  LIG1        0.0249
     49 N          -2.1545   13.6537    1.3453 N.ar    1  LIG1       -0.3575
     50 H          -2.1983   13.2090    2.2332 H       1  LIG1        0.1654
     51 H          -2.9245   15.7487    2.0339 H       1  LIG1        0.0826
     52 N          -1.5152   13.7954   -2.0679 N.pl3   1  LIG1       -0.3549
     53 H          -2.2492   13.2873   -2.5186 H       1  LIG1        0.1424
     54 H          -1.3969   14.6802   -2.5186 H       1  LIG1        0.1424
     55 N          -2.5189   16.3210   -0.8526 N.pl3   1  LIG1       -0.3554
     56 H          -1.7298   16.5418   -1.4259 H       1  LIG1        0.1424
     57 H          -3.3338   16.2355   -1.4259 H       1  LIG1        0.1424
@<TRIPOS>BOND
     1    54    52    1
     2    53    52    1
     3    52    46    1
     4    30    27    1
     5    44    41    1
     6    57    55    1
     7    56    55    1
     8    28    27    1
     9    42    41    1
    10     9     7    1
    11    27    26    1
    12    27    29    1
    13    55    47    1
    14    46    47   ar
    15    46    45   ar
    16    41    40    1
    17    41    43    1
    18    26    17    1
    19    20    16    1
    20    40    37    1
    21    38    36    1
    22    13    11    1
    23    12    11    1
    24    16    17   ar
    25    16    15   ar
    26    17    18   ar
    27    36    37   ar
    28    36    33   ar
    29    37    34   ar
    30    47    48   ar
    31     5     4   ar
    32     5     1   ar
    33    15     4    1
    34    15    14   ar
    35     4     3   ar
    36     1     2   ar
    37     1     6    1
    38     2     3   ar
    39     2     7    1
    40     3    11    1
    41     7    10    1
    42     7     8    1
    43    25    22    1
    44    18    33    1
    45    18    19   ar
    46    33    31   ar
    47    34    45    1
    48    34    32   ar
    49    45    49   ar
    50    14    19   ar
    51    14    21    1
    52    31    32   ar
    53    31    39    1
    54    32    35    1
    55    21    22    1
    56    22    23    1
    57    22    24    1
    58    48    49   ar
    59    48    51    1
    60    49    50    1
