@<TRIPOS>MOLECULE
mol_data/noopt/geoms/mol2/12ih13la-12fa-13ha.out
 44 43 0 0 0
SMALL
GASTEIGER

@<TRIPOS>ATOM
      1 C           0.1763    1.8460    0.0000 C.ar    1  LIG1        0.0961
      2 C           1.5558    1.8460    0.0000 C.ar    1  LIG1       -0.0042
      3 C           1.9706    3.2334    0.0000 C.ar    1  LIG1        0.0363
      4 C           0.8165    3.9895   -0.0001 C.ar    1  LIG1        0.1627
      5 O          -0.3030    3.1567   -0.0002 O.2     1  LIG1       -0.4604
      6 H          -0.7504    0.9343    0.0000 H       1  LIG1        0.1032
      7 C           2.3517    0.8177    0.0001 C.3     1  LIG1       -0.0361
      8 H           3.2608    1.0704    0.5046 H       1  LIG1        0.0279
      9 H           2.5701    0.5356   -1.0087 H       1  LIG1        0.0279
     10 H           1.8790    0.0009    0.5045 H       1  LIG1        0.0279
     11 N           3.1998    3.6567   -0.0000 N.3     2  LIG2       -0.2731
     12 H           3.7808    2.9932   -0.4714 H       1  LIG1        0.1366
     13 H           3.2491    4.5372   -0.4714 H       2  LIG2        0.0309
     14 C           0.5416    5.2601   -0.0001 C.ar    1  LIG1        0.1304
     15 C           1.3662    6.3409   -0.0005 C.ar    1  LIG1        0.2078
     16 C           0.5391    7.5098    0.0008 C.ar    1  LIG1        0.0143
     17 C          -0.7546    7.0920    0.0002 C.ar    1  LIG1        0.0900
     18 N          -0.7576    5.7154    0.0001 N.ar    1  LIG1       -0.3462
     19 H          -1.5690    5.1412   -0.0005 H       1  LIG1        0.1662
     20 O           2.6659    6.3141   -0.0004 O.3     1  LIG1       -0.2855
     21 C           3.1154    4.9566   -0.0004 C.3     3  LIG3       -0.0309
     22 H           4.1852    4.9350   -0.0005 H       4  UNK4        0.0000
     23 H           2.7487    4.4594    0.8733 H       1  LIG1        0.1366
     24 H           2.7486    4.4594   -0.8740 H       5  UNK5        0.0000
     25 H           0.9463    8.7444    0.0020 H       1  LIG1        0.0678
     26 C          -1.8613    7.7741    0.0007 C.ar    1  LIG1        0.1931
     27 C          -2.1910    9.1135    0.0159 C.ar    1  LIG1        0.1648
     28 C          -3.6372    9.1849    0.0058 C.ar    1  LIG1        0.0280
     29 C          -4.0956    7.8837   -0.0150 C.ar    1  LIG1        0.1573
     30 O          -3.0194    6.9956   -0.0186 O.2     1  LIG1       -0.4480
     31 O          -1.3828   10.1317    0.0357 O.3     1  LIG1       -0.5031
     32 H          -1.8925   10.9452    0.0406 H       1  LIG1        0.2923
     33 H          -4.3420   10.2772    0.0149 H       1  LIG1        0.0693
     34 C          -5.2637    7.3132   -0.0315 C.ar    1  LIG1        0.1031
     35 C          -6.5102    7.8556   -0.0265 C.ar    1  LIG1        0.0532
     36 C          -7.4476    6.7733   -0.0509 C.ar    1  LIG1       -0.0230
     37 C          -6.7327    5.6172   -0.0716 C.ar    1  LIG1        0.0041
     38 N          -5.3952    5.9432   -0.0593 N.ar    1  LIG1       -0.3568
     39 H          -4.6438    5.2926   -0.0696 H       1  LIG1        0.1655
     40 H          -7.1304    4.3798   -0.0975 H       1  LIG1        0.0807
     41 N          -6.7949    9.1238   -0.0023 N.pl3   1  LIG1       -0.3562
     42 H          -6.0731    9.6364   -0.4674 H       1  LIG1        0.1424
     43 H          -7.6664    9.2787   -0.4674 H       1  LIG1        0.1424
     44 H          -8.7437    6.8738   -0.0534 H       1  LIG1        0.0651
@<TRIPOS>BOND
     1     9     7    1
     2    13    21    1
     3    12    11    1
     4    43    41    1
     5    42    41    1
     6    40    37    1
     7    37    38   ar
     8    37    36   ar
     9    39    38    1
    10    38    34   ar
    11    44    36    1
    12    36    35   ar
    13    34    35   ar
    14    34    29    1
    15    35    41    1
    16    30    29   ar
    17    30    26   ar
    18    29    28   ar
    19    19    18    1
    20    15    20    1
    21    15    14   ar
    22    15    16   ar
    23     5     4   ar
    24     5     1   ar
    25    14     4    1
    26    14    18   ar
    27     4     3   ar
    28     1     2   ar
    29     1     6    1
    30     2     3   ar
    31     2     7    1
    32    11    23    1
    33    18    17   ar
    34     7    10    1
    35     7     8    1
    36    17    26    1
    37    17    16   ar
    38    26    27   ar
    39    16    25    1
    40    28    33    1
    41    28    27   ar
    42    27    31    1
    43    31    32    1
