@<TRIPOS>MOLECULE
mol_data/noopt/geoms/mol2/12ih4hf(320)6af(270)6ld(280).out
 51 54 0 0 0
SMALL
GASTEIGER

@<TRIPOS>ATOM
      1 C           0.1763    1.8460    0.0000 C.ar    1  LIG1        0.0973
      2 C           1.5558    1.8460    0.0000 C.ar    1  LIG1        0.0086
      3 C           1.9706    3.2334    0.0000 C.ar    1  LIG1        0.0739
      4 C           0.8165    3.9895   -0.0001 C.ar    1  LIG1        0.1574
      5 O          -0.3030    3.1567   -0.0002 O.2     1  LIG1       -0.4607
      6 H          -0.7504    0.9343    0.0000 H       1  LIG1        0.1033
      7 C           2.3517    0.8177    0.0001 C.3     1  LIG1       -0.0350
      8 H           3.2608    1.0704    0.5046 H       1  LIG1        0.0279
      9 H           2.5701    0.5356   -1.0087 H       1  LIG1        0.0279
     10 H           1.8790    0.0009    0.5045 H       1  LIG1        0.0279
     11 N           3.1998    3.6567   -0.0000 N.pl3   1  LIG1       -0.3548
     12 H           3.7808    2.9932   -0.4714 H       1  LIG1        0.1424
     13 H           3.2491    4.5372   -0.4714 H       1  LIG1        0.1424
     14 C           1.3088    6.1447   -0.7853 C.ar    1  LIG1        0.0362
     15 C           0.9720    7.5117   -0.7496 C.ar    1  LIG1       -0.0291
     16 C           0.5416    5.2600   -0.0001 C.ar    1  LIG1        0.0432
     17 C          -0.0820    7.9793    0.0320 C.ar    1  LIG1        0.0269
     18 H           1.5512    8.2117   -1.3477 H       1  LIG1        0.0643
     19 C          -0.5108    5.7263    0.7804 C.ar    1  LIG1       -0.0071
     20 C          -0.8301    7.0880    0.8021 C.ar    1  LIG1        0.1254
     21 H          -1.0874    5.0242    1.3772 H       1  LIG1        0.0662
     22 N           2.3028    5.7686   -1.5340 N.pl3   1  LIG1       -0.3574
     23 H           2.0146    5.0046   -2.1114 H       1  LIG1        0.1423
     24 H           2.5926    6.5319   -2.1114 H       1  LIG1        0.1423
     25 O          -1.8149    7.5181    1.5338 O.3     1  LIG1       -0.5061
     26 H          -2.4198    6.7948    1.7141 H       1  LIG1        0.2922
     27 C          -0.5186    9.9337    1.2600 C.ar    1  LIG1        0.0363
     28 C          -0.3655    9.2480    0.0411 C.ar    1  LIG1        0.0073
     29 C          -0.5245    9.9602   -1.1491 C.ar    1  LIG1       -0.0088
     30 C          -0.8285   11.3210   -1.0824 C.ar    1  LIG1        0.1435
     31 C          -0.9619   11.9179    0.1846 C.ar    1  LIG1        0.1174
     32 N          -0.8117   11.2460    1.3427 N.ar    1  LIG1       -0.2505
     33 H          -0.4135    9.4581   -2.1206 H       1  LIG1        0.0661
     34 H          -0.3801    9.3139    2.3943 H       1  LIG1        0.0836
     35 O          -0.9865   12.0280   -2.1619 O.3     1  LIG1       -0.5046
     36 H          -1.9086   12.0048   -2.4280 H       1  LIG1        0.2922
     37 C          -1.5815   13.7251    1.5515 C.ar    1  LIG1        0.2241
     38 C          -1.2442   13.1818    0.2984 C.ar    1  LIG1        0.0666
     39 C          -1.2203   14.0290   -0.8110 C.ar    1  LIG1       -0.0285
     40 C          -1.5316   15.3781   -0.6331 C.ar    1  LIG1        0.0707
     41 C          -1.8569   15.8273    0.6600 C.ar    1  LIG1        0.0488
     42 N          -1.8845   15.0240    1.7412 N.ar    1  LIG1       -0.2195
     43 H          -0.9623   13.6403   -1.8063 H       1  LIG1        0.0639
     44 H          -2.1538   17.0744    0.8761 H       1  LIG1        0.0844
     45 O          -1.6172   12.9765    2.6138 O.3     1  LIG1       -0.4792
     46 C          -2.9767   12.7657    3.0037 C.3     1  LIG1        0.0804
     47 H          -3.0056   12.1494    3.8779 H       1  LIG1        0.0660
     48 H          -3.4370   13.7080    3.2163 H       1  LIG1        0.0660
     49 H          -3.5049   12.2821    2.2088 H       1  LIG1        0.0660
     50 N          -1.5167   16.9387   -2.5172 N.1     1  LIG1       -0.1908
     51 C          -1.5237   16.2073   -1.6342 C.1     1  LIG1        0.1007
@<TRIPOS>BOND
     1    50    51    3
     2    36    35    1
     3    35    30    1
     4    33    29    1
     5    24    22    1
     6    23    22    1
     7    43    39    1
     8    51    40    1
     9    22    14    1
    10    18    15    1
    11    29    30   ar
    12    29    28   ar
    13    30    31   ar
    14     9     7    1
    15    39    40   ar
    16    39    38   ar
    17    14    15   ar
    18    14    16   ar
    19    15    17   ar
    20    40    41   ar
    21    13    11    1
    22    12    11    1
    23     5     4   ar
    24     5     1   ar
    25    16     4    1
    26    16    19   ar
    27     4     3   ar
    28     1     2   ar
    29     1     6    1
    30     2     3   ar
    31     2     7    1
    32     3    11    1
    33     7    10    1
    34     7     8    1
    35    17    28    1
    36    17    20   ar
    37    28    27   ar
    38    31    38    1
    39    31    32   ar
    40    38    37   ar
    41    41    44    1
    42    41    42   ar
    43    19    20   ar
    44    19    21    1
    45    20    25    1
    46    27    32   ar
    47    27    34    1
    48    25    26    1
    49    37    42   ar
    50    37    45    1
    51    49    46    1
    52    45    46    1
    53    46    48    1
    54    46    47    1
