@<TRIPOS>MOLECULE
mol_data/noopt/geoms/mol2/12ih13ed(330)4fa(270)13ll(10).out
 52 55 0 0 0
SMALL
GASTEIGER

@<TRIPOS>ATOM
      1 C           0.1763    1.8460    0.0000 C.ar    1  LIG1        0.0974
      2 C           1.5558    1.8460    0.0000 C.ar    1  LIG1        0.0086
      3 C           1.9706    3.2334    0.0000 C.ar    1  LIG1        0.0754
      4 C           0.8165    3.9895   -0.0001 C.ar    1  LIG1        0.1729
      5 O          -0.3030    3.1567   -0.0002 O.2     1  LIG1       -0.4592
      6 H          -0.7504    0.9343    0.0000 H       1  LIG1        0.1033
      7 C           2.3517    0.8177    0.0001 C.3     1  LIG1       -0.0350
      8 H           3.2608    1.0704    0.5046 H       1  LIG1        0.0279
      9 H           2.5701    0.5356   -1.0087 H       1  LIG1        0.0279
     10 H           1.8790    0.0009    0.5045 H       1  LIG1        0.0279
     11 N           3.1998    3.6567   -0.0000 N.pl3   1  LIG1       -0.3548
     12 H           3.7808    2.9932   -0.4714 H       1  LIG1        0.1424
     13 H           3.2491    4.5372   -0.4714 H       1  LIG1        0.1424
     14 C           0.5416    5.2601   -0.0001 C.ar    1  LIG1        0.1012
     15 C           1.2478    6.3153   -0.4857 C.ar    1  LIG1        0.0709
     16 C           0.4854    7.4982   -0.2213 C.ar    1  LIG1        0.0931
     17 C          -0.6540    7.1138    0.4127 C.ar    1  LIG1        0.0693
     18 N          -0.6234    5.7444    0.5506 N.ar    1  LIG1       -0.3496
     19 H          -1.3307    5.1928    0.9791 H       1  LIG1        0.1661
     20 C           2.4032    6.2573   -1.0789 C.1     1  LIG1       -0.0661
     21 C           3.4707    6.2037   -1.6270 C.1     1  LIG1       -0.1138
     22 H           4.4216    6.1560   -2.1153 H       1  LIG1        0.1232
     23 N           1.1112    9.7912   -0.8013 N.1     1  LIG1       -0.1908
     24 C           0.8179    8.7166   -0.5295 C.1     1  LIG1        0.1025
     25 C          -2.5312    8.4394   -0.0593 C.ar    1  LIG1        0.1266
     26 C          -3.5973    9.1936    0.4678 C.ar    1  LIG1       -0.0103
     27 C          -1.6533    7.8190    0.8530 C.ar    1  LIG1        0.0410
     28 C          -3.7835    9.3252    1.8420 C.ar    1  LIG1        0.0055
     29 H          -4.2864    9.6809   -0.2185 H       1  LIG1        0.0661
     30 C          -1.8387    7.9500    2.2251 C.ar    1  LIG1       -0.0485
     31 C          -2.9041    8.7032    2.7292 C.ar    1  LIG1       -0.0517
     32 H          -1.1481    7.4621    2.9081 H       1  LIG1        0.0625
     33 O          -2.4094    8.3531   -1.3507 O.3     1  LIG1       -0.5061
     34 H          -1.8560    9.0700   -1.6690 H       1  LIG1        0.2922
     35 H          -3.0723    8.8222    4.0128 H       1  LIG1        0.0624
     36 C          -4.7786   10.0290    2.2942 C.ar    1  LIG1        0.0926
     37 C          -4.8171   11.3070    2.7559 C.ar    1  LIG1        0.1868
     38 C          -6.1707   11.5856    3.1310 C.ar    1  LIG1        0.1794
     39 C          -6.9002   10.4662    2.8804 C.ar    1  LIG1        0.0481
     40 N          -6.0517    9.5105    2.3684 N.ar    1  LIG1       -0.3546
     41 H          -6.3165    8.5923    2.0952 H       1  LIG1        0.1656
     42 H          -8.1665   10.2282    3.0534 H       1  LIG1        0.0845
     43 O          -3.8083   12.1226    2.8411 O.3     1  LIG1       -0.4895
     44 C          -2.5905   11.3737    2.8724 C.3     1  LIG1        0.0791
     45 H          -1.7605   12.0454    2.9424 H       1  LIG1        0.0660
     46 H          -2.5943   10.7218    3.7209 H       1  LIG1        0.0660
     47 H          -2.5053   10.7937    1.9773 H       1  LIG1        0.0660
     48 O          -6.6226   12.7019    3.6207 O.3     1  LIG1       -0.4900
     49 C          -5.5390   13.6175    3.8004 C.3     1  LIG1        0.0790
     50 H          -5.9113   14.5362    4.2033 H       1  LIG1        0.0660
     51 H          -4.8239   13.1958    4.4756 H       1  LIG1        0.0660
     52 H          -5.0708   13.8057    2.8569 H       1  LIG1        0.0660
@<TRIPOS>BOND
     1    22    21    1
     2    34    33    1
     3    21    20    3
     4    33    25    1
     5    20    15    1
     6     9     7    1
     7    23    24    3
     8    24    16    1
     9    15    16   ar
    10    15    14   ar
    11    13    11    1
    12    12    11    1
    13    16    17   ar
    14    29    26    1
    15    25    26   ar
    16    25    27   ar
    17     5     4   ar
    18     5     1   ar
    19    14     4    1
    20    14    18   ar
    21     4     3   ar
    22    11     3    1
    23     6     1    1
    24     3     2   ar
    25     1     2   ar
    26     2     7    1
    27     7    10    1
    28     7     8    1
    29    17    18   ar
    30    17    27    1
    31    26    28   ar
    32    18    19    1
    33    27    30   ar
    34    28    36    1
    35    28    31   ar
    36    47    44    1
    37    41    40    1
    38    30    31   ar
    39    30    32    1
    40    36    40   ar
    41    36    37   ar
    42    40    39   ar
    43    31    35    1
    44    37    43    1
    45    37    38   ar
    46    43    44    1
    47    52    49    1
    48    44    45    1
    49    44    46    1
    50    39    42    1
    51    39    38   ar
    52    38    48    1
    53    48    49    1
    54    49    50    1
    55    49    51    1
