@<TRIPOS>MOLECULE
mol_data/noopt/geoms/mol2/12ih4ed(190)4il(250)13fh(320).out
 55 58 0 0 0
SMALL
GASTEIGER

@<TRIPOS>ATOM
      1 C           0.1763    1.8460    0.0000 C.ar    1  LIG1        0.0973
      2 C           1.5558    1.8460    0.0000 C.ar    1  LIG1        0.0086
      3 C           1.9706    3.2334    0.0000 C.ar    1  LIG1        0.0739
      4 C           0.8165    3.9895   -0.0001 C.ar    1  LIG1        0.1568
      5 O          -0.3030    3.1567   -0.0002 O.2     1  LIG1       -0.4607
      6 H          -0.7504    0.9343    0.0000 H       1  LIG1        0.1033
      7 C           2.3517    0.8177    0.0001 C.3     1  LIG1       -0.0350
      8 H           3.2608    1.0704    0.5046 H       1  LIG1        0.0279
      9 H           2.5701    0.5356   -1.0087 H       1  LIG1        0.0279
     10 H           1.8790    0.0009    0.5045 H       1  LIG1        0.0279
     11 N           3.1998    3.6567   -0.0000 N.pl3   1  LIG1       -0.3548
     12 H           3.7808    2.9932   -0.4714 H       1  LIG1        0.1424
     13 H           3.2491    4.5372   -0.4714 H       1  LIG1        0.1424
     14 C          -0.7834    5.6921   -0.2131 C.ar    1  LIG1        0.0360
     15 C          -1.0292    7.0788   -0.2053 C.ar    1  LIG1       -0.0367
     16 C           0.5416    5.2600   -0.0001 C.ar    1  LIG1        0.0357
     17 C          -0.0026    7.9965    0.0057 C.ar    1  LIG1        0.0010
     18 H          -2.0444    7.4338   -0.3678 H       1  LIG1        0.0636
     19 C           1.5668    6.1758    0.2106 C.ar    1  LIG1       -0.0319
     20 C           1.3026    7.5494    0.2151 C.ar    1  LIG1        0.0602
     21 H           2.5804    5.8177    0.3724 H       1  LIG1        0.0638
     22 C          -1.7822    4.8848   -0.4150 C.1     1  LIG1       -0.0689
     23 C          -2.7051    4.1389   -0.6015 C.1     1  LIG1       -0.1139
     24 H          -3.5272    3.4744   -0.7677 H       1  LIG1        0.1232
     25 N           3.1138    9.1516    0.5865 N.1     1  LIG1       -0.1908
     26 C           2.2650    8.4007    0.4124 C.1     1  LIG1        0.0998
     27 C          -0.8159    9.8741   -1.1419 C.ar    1  LIG1       -0.0419
     28 C          -1.0808   11.2564   -1.0910 C.ar    1  LIG1       -0.0455
     29 C          -0.2651    9.2696    0.0066 C.ar    1  LIG1       -0.0102
     30 C          -0.8105   12.0055    0.0520 C.ar    1  LIG1        0.0438
     31 H          -1.5056   11.7429   -1.9662 H       1  LIG1        0.0628
     32 C           0.0049   10.0170    1.1479 C.ar    1  LIG1       -0.0113
     33 C          -0.2656   11.3890    1.1790 C.ar    1  LIG1        0.1299
     34 H           0.4298    9.5279    2.0207 H       1  LIG1        0.0660
     35 C          -1.0899    9.2283   -2.2367 C.3     1  LIG1       -0.0391
     36 H          -0.5266    8.3190   -2.2649 H       1  LIG1        0.0278
     37 H          -0.8333    9.8331   -3.0813 H       1  LIG1        0.0278
     38 H          -2.1352    9.0014   -2.2649 H       1  LIG1        0.0278
     39 O          -0.0109   12.0826    2.2487 O.3     1  LIG1       -0.4944
     40 C           1.3480   11.8727    2.6413 C.3     1  LIG1        0.0788
     41 H           1.5573   12.4438    3.5216 H       1  LIG1        0.0660
     42 H           1.5041   10.8338    2.8448 H       1  LIG1        0.0660
     43 H           1.9996   12.1832    1.8515 H       1  LIG1        0.0660
     44 C          -1.0676   13.2797    0.0643 C.ar    1  LIG1        0.0939
     45 C          -0.4407   14.3120   -0.5598 C.ar    1  LIG1        0.1629
     46 C          -1.1353   15.5125   -0.2033 C.ar    1  LIG1        0.0848
     47 C          -2.1571   15.1608    0.6215 C.ar    1  LIG1        0.0267
     48 N          -2.1190   13.7948    0.7884 N.ar    1  LIG1       -0.3560
     49 H          -2.7508   13.2646    1.3431 H       1  LIG1        0.1655
     50 H          -3.0612   15.8916    1.2033 H       1  LIG1        0.0827
     51 O           0.5987   14.2221   -1.3354 O.3     1  LIG1       -0.5031
     52 H           0.9328   15.1016   -1.5266 H       1  LIG1        0.2923
     53 N          -0.8455   16.7179   -0.5946 N.pl3   1  LIG1       -0.3540
     54 H          -0.0105   16.6981   -1.1445 H       1  LIG1        0.1425
     55 H          -1.5983   17.0798   -1.1445 H       1  LIG1        0.1425
@<TRIPOS>BOND
     1    37    35    1
     2    36    35    1
     3    38    35    1
     4    35    27    1
     5    31    28    1
     6    52    51    1
     7    51    45    1
     8    55    53    1
     9    54    53    1
    10    27    28   ar
    11    27    29   ar
    12    28    30   ar
    13     9     7    1
    14    24    23    1
    15    23    22    3
    16    53    46    1
    17    45    46   ar
    18    45    44   ar
    19    13    11    1
    20    12    11    1
    21    22    14    1
    22    18    15    1
    23    14    15   ar
    24    14    16   ar
    25    15    17   ar
    26    46    47   ar
    27     5     4   ar
    28     5     1   ar
    29     4    16    1
    30     4     3   ar
    31    16    19   ar
    32     2     3   ar
    33     2     1   ar
    34     2     7    1
    35     3    11    1
    36     6     1    1
    37     7    10    1
    38     7     8    1
    39    17    29    1
    40    17    20   ar
    41    29    32   ar
    42    30    44    1
    43    30    33   ar
    44    44    48   ar
    45    19    20   ar
    46    19    21    1
    47    20    26    1
    48    26    25    3
    49    47    48   ar
    50    47    50    1
    51    48    49    1
    52    32    33   ar
    53    32    34    1
    54    33    39    1
    55    43    40    1
    56    39    40    1
    57    40    42    1
    58    40    41    1
