@<TRIPOS>MOLECULE
mol_data/noopt/geoms/mol2/12ih13ai-12hh-12ih-.out
 48 51 0 0 0
SMALL
GASTEIGER

@<TRIPOS>ATOM
      1 C           0.1763    1.8460    0.0000 C.ar    1  LIG1        0.0974
      2 C           1.5558    1.8460    0.0000 C.ar    1  LIG1        0.0086
      3 C           1.9706    3.2334    0.0000 C.ar    1  LIG1        0.0753
      4 C           0.8165    3.9895   -0.0001 C.ar    1  LIG1        0.1716
      5 O          -0.3030    3.1567   -0.0002 O.2     1  LIG1       -0.4593
      6 H          -0.7504    0.9343    0.0000 H       1  LIG1        0.1033
      7 C           2.3517    0.8177    0.0001 C.3     1  LIG1       -0.0350
      8 H           3.2608    1.0704    0.5046 H       1  LIG1        0.0279
      9 H           2.5701    0.5356   -1.0087 H       1  LIG1        0.0279
     10 H           1.8790    0.0009    0.5045 H       1  LIG1        0.0279
     11 N           3.1998    3.6567   -0.0000 N.pl3   1  LIG1       -0.3548
     12 H           3.7808    2.9932   -0.4714 H       1  LIG1        0.1424
     13 H           3.2491    4.5372   -0.4714 H       1  LIG1        0.1424
     14 C           0.5416    5.2601   -0.0001 C.ar    1  LIG1        0.0847
     15 C           1.3662    6.3409   -0.0005 C.ar    1  LIG1       -0.0297
     16 C           0.5391    7.5098    0.0008 C.ar    1  LIG1       -0.0214
     17 C          -0.7546    7.0920    0.0002 C.ar    1  LIG1        0.0875
     18 N          -0.7576    5.7154    0.0001 N.ar    1  LIG1       -0.3491
     19 H          -1.5690    5.1412   -0.0005 H       1  LIG1        0.1661
     20 H           2.6659    6.3141   -0.0004 H       1  LIG1        0.0643
     21 C           0.9464    8.7447    0.0020 C.3     1  LIG1       -0.0376
     22 H           0.2284    9.3567    0.5067 H       1  LIG1        0.0278
     23 H           1.0584    9.0843   -1.0066 H       1  LIG1        0.0278
     24 H           1.8877    8.8092    0.5066 H       1  LIG1        0.0278
     25 C          -1.8613    7.7741    0.0007 C.ar    1  LIG1        0.1745
     26 C          -2.1910    9.1135    0.0159 C.ar    1  LIG1        0.0942
     27 C          -3.6372    9.1849    0.0058 C.ar    1  LIG1        0.0958
     28 C          -4.0956    7.8837   -0.0150 C.ar    1  LIG1        0.1933
     29 O          -3.0194    6.9956   -0.0186 O.2     1  LIG1       -0.4464
     30 N          -1.3828   10.1316    0.0357 N.pl3   1  LIG1       -0.3535
     31 H          -0.5317    9.8907   -0.4306 H       1  LIG1        0.1425
     32 H          -1.8107   10.9059   -0.4306 H       1  LIG1        0.1425
     33 N          -4.3420   10.2772    0.0149 N.pl3   1  LIG1       -0.3535
     34 H          -3.8384   11.0027   -0.4542 H       1  LIG1        0.1425
     35 H          -5.2105   10.1175   -0.4542 H       1  LIG1        0.1425
     36 C          -5.2637    7.3132   -0.0315 C.ar    1  LIG1        0.1763
     37 C          -6.5718    7.7511   -0.0440 C.ar    1  LIG1        0.0191
     38 C          -7.4053    6.5671   -0.0601 C.ar    1  LIG1        0.0665
     39 C          -6.5509    5.4838   -0.0565 C.ar    1  LIG1        0.1136
     40 O          -5.2251    5.9182   -0.0391 O.2     1  LIG1       -0.4576
     41 H          -6.6934    4.1917   -0.0653 H       1  LIG1        0.1049
     42 C          -7.0001    8.9788   -0.0420 C.3     1  LIG1       -0.0342
     43 H          -7.9422    9.0270    0.4630 H       1  LIG1        0.0279
     44 H          -7.1182    9.3171   -1.0502 H       1  LIG1        0.0279
     45 H          -6.2924    9.6026    0.4630 H       1  LIG1        0.0279
     46 N          -8.7052    6.5558   -0.0750 N.pl3   1  LIG1       -0.3553
     47 H          -9.0402    7.3695   -0.5502 H       1  LIG1        0.1424
     48 H          -9.0260    5.7366   -0.5502 H       1  LIG1        0.1424
@<TRIPOS>BOND
     1    44    42    1
     2     9     7    1
     3    23    21    1
     4    48    46    1
     5    47    46    1
     6    13    11    1
     7    12    11    1
     8    35    33    1
     9    34    33    1
    10    32    30    1
    11    31    30    1
    12    46    38    1
    13    41    39    1
    14    38    39   ar
    15    38    37   ar
    16    39    40   ar
    17    37    42    1
    18    37    36   ar
    19    42    45    1
    20    42    43    1
    21    40    36   ar
    22    36    28    1
    23    29    28   ar
    24    29    25   ar
    25    28    27   ar
    26    19    18    1
    27    15    20    1
    28    15    14   ar
    29    15    16   ar
    30     5     4   ar
    31     5     1   ar
    32    14     4    1
    33    14    18   ar
    34     4     3   ar
    35     1     2   ar
    36     1     6    1
    37     2     3   ar
    38     2     7    1
    39     3    11    1
    40    18    17   ar
    41     7    10    1
    42     7     8    1
    43    17    25    1
    44    17    16   ar
    45    25    26   ar
    46    16    21    1
    47    21    24    1
    48    21    22    1
    49    27    33    1
    50    27    26   ar
    51    26    30    1
