@<TRIPOS>MOLECULE
mol_data/noopt/geoms/mol2/12ii12ii-12ii12ii.out
 54 57 0 0 0
SMALL
GASTEIGER

@<TRIPOS>ATOM
      1 C           0.1763    1.8460    0.0000 C.ar    1  LIG1        0.0959
      2 C           1.5558    1.8460    0.0000 C.ar    1  LIG1       -0.0091
      3 C           1.9706    3.2334    0.0000 C.ar    1  LIG1        0.0013
      4 C           0.8165    3.9895   -0.0001 C.ar    1  LIG1        0.1731
      5 O          -0.3030    3.1567   -0.0002 O.2     1  LIG1       -0.4593
      6 H          -0.7504    0.9343    0.0000 H       1  LIG1        0.1032
      7 C           2.3517    0.8177    0.0001 C.3     1  LIG1       -0.0365
      8 H           3.2608    1.0704    0.5046 H       1  LIG1        0.0279
      9 H           2.5701    0.5356   -1.0087 H       1  LIG1        0.0279
     10 H           1.8790    0.0009    0.5045 H       1  LIG1        0.0279
     11 C           3.2001    3.6568    0.0000 C.3     1  LIG1       -0.0358
     12 H           3.2528    4.5990    0.5044 H       1  LIG1        0.0279
     13 H           3.5373    3.7730   -1.0088 H       1  LIG1        0.0279
     14 H           3.8217    2.9468    0.5044 H       1  LIG1        0.0279
     15 C           0.5416    5.2601   -0.0001 C.ar    1  LIG1        0.1741
     16 C          -0.6119    6.0167   -0.0001 C.ar    1  LIG1        0.0020
     17 C          -0.1979    7.4043   -0.0001 C.ar    1  LIG1        0.0020
     18 C           1.1818    7.4036   -0.0002 C.ar    1  LIG1        0.1741
     19 O           1.6612    6.0932   -0.0003 O.2     1  LIG1       -0.4481
     20 C          -1.8414    5.5933   -0.0000 C.3     1  LIG1       -0.0357
     21 H          -1.8941    4.6511    0.5044 H       1  LIG1        0.0279
     22 H          -2.1787    5.4770   -1.0089 H       1  LIG1        0.0279
     23 H          -2.4630    6.3032    0.5043 H       1  LIG1        0.0279
     24 C          -0.9938    8.4326   -0.0001 C.3     1  LIG1       -0.0357
     25 H          -1.9030    8.1799    0.5043 H       1  LIG1        0.0279
     26 H          -1.2121    8.7146   -1.0090 H       1  LIG1        0.0279
     27 H          -0.5211    9.2494    0.5042 H       1  LIG1        0.0279
     28 C           2.1085    8.3153   -0.0002 C.ar    1  LIG1        0.1741
     29 C           3.4880    8.3153   -0.0001 C.ar    1  LIG1        0.0020
     30 C           3.9028    9.7027   -0.0001 C.ar    1  LIG1        0.0020
     31 C           2.7487   10.4588   -0.0002 C.ar    1  LIG1        0.1741
     32 O           1.6292    9.6260   -0.0003 O.2     1  LIG1       -0.4481
     33 C           4.2839    7.2870   -0.0000 C.3     1  LIG1       -0.0357
     34 H           5.1931    7.5396    0.5044 H       1  LIG1        0.0279
     35 H           4.5023    7.0049   -1.0089 H       1  LIG1        0.0279
     36 H           3.8112    6.4702    0.5043 H       1  LIG1        0.0279
     37 C           5.1323   10.1261   -0.0001 C.3     1  LIG1       -0.0357
     38 H           5.1851   11.0682    0.5043 H       1  LIG1        0.0279
     39 H           5.4695   10.2423   -1.0089 H       1  LIG1        0.0279
     40 H           5.7540    9.4161    0.5043 H       1  LIG1        0.0279
     41 C           2.4738   11.7294   -0.0002 C.ar    1  LIG1        0.1731
     42 C           3.2115   12.8951   -0.0002 C.ar    1  LIG1        0.0013
     43 C           2.2609   13.9875   -0.0002 C.ar    1  LIG1       -0.0091
     44 C           1.0048   13.4165   -0.0003 C.ar    1  LIG1        0.0959
     45 O           1.1100   12.0252   -0.0004 O.2     1  LIG1       -0.4593
     46 H          -0.2159   13.8636   -0.0003 H       1  LIG1        0.1032
     47 C           4.5060   13.0178   -0.0001 C.3     1  LIG1       -0.0358
     48 H           4.7786   13.9212    0.5044 H       1  LIG1        0.0279
     49 H           4.8612   13.0515   -1.0089 H       1  LIG1        0.0279
     50 H           4.9434   12.1816    0.5043 H       1  LIG1        0.0279
     51 C           2.5605   15.2528   -0.0002 C.3     1  LIG1       -0.0365
     52 H           1.7926   15.8012    0.5043 H       1  LIG1        0.0279
     53 H           2.6426   15.5999   -1.0090 H       1  LIG1        0.0279
     54 H           3.4929   15.3985    0.5042 H       1  LIG1        0.0279
@<TRIPOS>BOND
     1    53    51    1
     2    26    24    1
     3    39    37    1
     4    49    47    1
     5    22    20    1
     6    35    33    1
     7    13    11    1
     8     9     7    1
     9    45    44   ar
    10    45    41   ar
    11    32    31   ar
    12    32    28   ar
    13    44    46    1
    14    44    43   ar
    15    19    18   ar
    16    19    15   ar
    17    31    41    1
    18    31    30   ar
    19    41    42   ar
    20     5     4   ar
    21     5     1   ar
    22    42    43   ar
    23    42    47    1
    24    43    51    1
    25    18    28    1
    26    18    17   ar
    27    51    54    1
    28    51    52    1
    29    28    29   ar
    30    29    30   ar
    31    29    33    1
    32    16    17   ar
    33    16    15   ar
    34    16    20    1
    35    24    17    1
    36    24    27    1
    37    24    25    1
    38    30    37    1
    39    15     4    1
    40     4     3   ar
    41    47    50    1
    42    47    48    1
    43    37    40    1
    44    37    38    1
    45    20    23    1
    46    20    21    1
    47    33    36    1
    48    33    34    1
    49     1     2   ar
    50     1     6    1
    51     2     3   ar
    52     2     7    1
    53     3    11    1
    54    11    14    1
    55    11    12    1
    56     7    10    1
    57     7     8    1
