@<TRIPOS>MOLECULE
mol_data/noopt/geoms/mol2/12ii12ii12ii12ii.out
 54 57 0 0 0
SMALL
GASTEIGER

@<TRIPOS>ATOM
      1 C           0.1763    1.8460    0.0000 C.ar    1  LIG1        0.0959
      2 C           1.5558    1.8460    0.0000 C.ar    1  LIG1       -0.0091
      3 C           1.9706    3.2334    0.0000 C.ar    1  LIG1        0.0013
      4 C           0.8165    3.9895   -0.0001 C.ar    1  LIG1        0.1731
      5 O          -0.3030    3.1567   -0.0002 O.2     1  LIG1       -0.4593
      6 H          -0.7504    0.9343    0.0000 H       1  LIG1        0.1032
      7 C           2.3517    0.8177    0.0001 C.3     1  LIG1       -0.0365
      8 H           3.2608    1.0704    0.5046 H       1  LIG1        0.0279
      9 H           2.5701    0.5356   -1.0087 H       1  LIG1        0.0279
     10 H           1.8790    0.0009    0.5045 H       1  LIG1        0.0279
     11 C           3.2001    3.6568    0.0000 C.3     1  LIG1       -0.0358
     12 H           3.2528    4.5990    0.5044 H       1  LIG1        0.0279
     13 H           3.5373    3.7730   -1.0088 H       1  LIG1        0.0279
     14 H           3.8217    2.9468    0.5044 H       1  LIG1        0.0279
     15 C           0.5416    5.2601   -0.0001 C.ar    1  LIG1        0.1741
     16 C           1.2792    6.4258   -0.0001 C.ar    1  LIG1        0.0020
     17 C           0.3286    7.5182   -0.0001 C.ar    1  LIG1        0.0020
     18 C          -0.9274    6.9472   -0.0002 C.ar    1  LIG1        0.1741
     19 O          -0.8223    5.5559   -0.0003 O.2     1  LIG1       -0.4481
     20 C           2.5738    6.5485    0.0000 C.3     1  LIG1       -0.0357
     21 H           2.8464    7.4519    0.5045 H       1  LIG1        0.0279
     22 H           2.9289    6.5822   -1.0088 H       1  LIG1        0.0279
     23 H           3.0112    5.7123    0.5044 H       1  LIG1        0.0279
     24 C           0.6283    8.7835   -0.0001 C.3     1  LIG1       -0.0357
     25 H          -0.1397    9.3319    0.5043 H       1  LIG1        0.0279
     26 H           0.7104    9.1306   -1.0089 H       1  LIG1        0.0279
     27 H           1.5606    8.9292    0.5043 H       1  LIG1        0.0279
     28 C          -2.1481    7.3943   -0.0002 C.ar    1  LIG1        0.1741
     29 C          -2.7387    8.6410   -0.0002 C.ar    1  LIG1        0.0020
     30 C          -4.1701    8.4218   -0.0002 C.ar    1  LIG1        0.0020
     31 C          -4.3593    7.0551   -0.0003 C.ar    1  LIG1        0.1741
     32 O          -3.1273    6.4000   -0.0004 O.2     1  LIG1       -0.4481
     33 C          -2.1502    9.8005   -0.0001 C.3     1  LIG1       -0.0357
     34 H          -2.7678   10.5139    0.5044 H       1  LIG1        0.0279
     35 H          -1.9888   10.1187   -1.0089 H       1  LIG1        0.0279
     36 H          -1.2097    9.7231    0.5043 H       1  LIG1        0.0279
     37 C          -5.0792    9.3516   -0.0002 C.3     1  LIG1       -0.0357
     38 H          -5.9532    8.9959    0.5042 H       1  LIG1        0.0279
     39 H          -5.3286    9.6066   -1.0090 H       1  LIG1        0.0279
     40 H          -4.7037   10.2174    0.5042 H       1  LIG1        0.0279
     41 C          -5.3898    6.2627   -0.0003 C.ar    1  LIG1        0.1731
     42 C          -6.7591    6.4302   -0.0003 C.ar    1  LIG1        0.0013
     43 C          -7.3393    5.1034   -0.0003 C.ar    1  LIG1       -0.0091
     44 C          -6.2855    4.2128   -0.0004 C.ar    1  LIG1        0.0959
     45 O          -5.0732    4.9035   -0.0005 O.2     1  LIG1       -0.4593
     46 H          -6.1669    2.9182   -0.0004 H       1  LIG1        0.1032
     47 C          -7.4242    7.5475   -0.0002 C.3     1  LIG1       -0.0358
     48 H          -8.3574    7.4071    0.5043 H       1  LIG1        0.0279
     49 H          -7.6068    7.8540   -1.0090 H       1  LIG1        0.0279
     50 H          -6.8559    8.3008    0.5042 H       1  LIG1        0.0279
     51 C          -8.6110    4.8324   -0.0003 C.3     1  LIG1       -0.0365
     52 H          -8.7778    3.9036    0.5041 H       1  LIG1        0.0279
     53 H          -8.9599    4.7580   -1.0091 H       1  LIG1        0.0279
     54 H          -9.1419    5.6126    0.5041 H       1  LIG1        0.0279
@<TRIPOS>BOND
     1    53    51    1
     2    39    37    1
     3    49    47    1
     4    26    24    1
     5    35    33    1
     6    13    11    1
     7    22    20    1
     8     9     7    1
     9    45    44   ar
    10    45    41   ar
    11    32    31   ar
    12    32    28   ar
    13    46    44    1
    14    44    43   ar
    15    42    41   ar
    16    42    43   ar
    17    42    47    1
    18    41    31    1
    19    19    18   ar
    20    19    15   ar
    21    31    30   ar
    22    43    51    1
    23    51    54    1
    24    51    52    1
    25    30    29   ar
    26    30    37    1
    27    29    28   ar
    28    29    33    1
    29    18    28    1
    30    18    17   ar
    31    47    50    1
    32    47    48    1
    33    37    40    1
    34    37    38    1
    35     5     4   ar
    36     5     1   ar
    37    17    24    1
    38    17    16   ar
    39    33    36    1
    40    33    34    1
    41    24    27    1
    42    24    25    1
    43    16    15   ar
    44    16    20    1
    45    15     4    1
    46     4     3   ar
    47     1     2   ar
    48     1     6    1
    49     2     3   ar
    50     2     7    1
    51     3    11    1
    52    11    14    1
    53    11    12    1
    54    20    23    1
    55    20    21    1
    56     7    10    1
    57     7     8    1
