@<TRIPOS>MOLECULE
mol_data/noopt/geoms/mol2/12ii12ii-12ii-12ii.out
 54 57 0 0 0
SMALL
GASTEIGER

@<TRIPOS>ATOM
      1 C           0.1763    1.8460    0.0000 C.ar    1  LIG1        0.0959
      2 C           1.5558    1.8460    0.0000 C.ar    1  LIG1       -0.0091
      3 C           1.9706    3.2334    0.0000 C.ar    1  LIG1        0.0013
      4 C           0.8165    3.9895   -0.0001 C.ar    1  LIG1        0.1731
      5 O          -0.3030    3.1567   -0.0002 O.2     1  LIG1       -0.4593
      6 H          -0.7504    0.9343    0.0000 H       1  LIG1        0.1032
      7 C           2.3517    0.8177    0.0001 C.3     1  LIG1       -0.0365
      8 H           3.2608    1.0704    0.5046 H       1  LIG1        0.0279
      9 H           2.5701    0.5356   -1.0087 H       1  LIG1        0.0279
     10 H           1.8790    0.0009    0.5045 H       1  LIG1        0.0279
     11 C           3.2001    3.6568    0.0000 C.3     1  LIG1       -0.0358
     12 H           3.2528    4.5990    0.5044 H       1  LIG1        0.0279
     13 H           3.5373    3.7730   -1.0088 H       1  LIG1        0.0279
     14 H           3.8217    2.9468    0.5044 H       1  LIG1        0.0279
     15 C           0.5416    5.2601   -0.0001 C.ar    1  LIG1        0.1741
     16 C          -0.6119    6.0167   -0.0001 C.ar    1  LIG1        0.0020
     17 C          -0.1979    7.4043   -0.0001 C.ar    1  LIG1        0.0020
     18 C           1.1818    7.4036   -0.0002 C.ar    1  LIG1        0.1741
     19 O           1.6612    6.0932   -0.0003 O.2     1  LIG1       -0.4481
     20 C          -1.8414    5.5933   -0.0000 C.3     1  LIG1       -0.0357
     21 H          -1.8941    4.6511    0.5044 H       1  LIG1        0.0279
     22 H          -2.1787    5.4770   -1.0089 H       1  LIG1        0.0279
     23 H          -2.4630    6.3032    0.5043 H       1  LIG1        0.0279
     24 C          -0.9938    8.4326   -0.0001 C.3     1  LIG1       -0.0357
     25 H          -1.9030    8.1799    0.5043 H       1  LIG1        0.0279
     26 H          -1.2121    8.7146   -1.0090 H       1  LIG1        0.0279
     27 H          -0.5211    9.2494    0.5042 H       1  LIG1        0.0279
     28 C           2.1085    8.3153   -0.0002 C.ar    1  LIG1        0.1741
     29 C           2.1310    9.6946   -0.0002 C.ar    1  LIG1        0.0020
     30 C           3.5250   10.0867   -0.0001 C.ar    1  LIG1        0.0020
     31 C           4.2622    8.9204   -0.0002 C.ar    1  LIG1        0.1741
     32 O           3.4112    7.8147   -0.0003 O.2     1  LIG1       -0.4481
     33 C           1.1159   10.5071   -0.0001 C.3     1  LIG1       -0.0357
     34 H           0.2915   10.0479    0.5044 H       1  LIG1        0.0279
     35 H           0.8373   10.7300   -1.0089 H       1  LIG1        0.0279
     36 H           1.3834   11.4121    0.5043 H       1  LIG1        0.0279
     37 C           3.9684   11.3091   -0.0001 C.3     1  LIG1       -0.0357
     38 H           3.2688   11.9423    0.5043 H       1  LIG1        0.0279
     39 H           4.0900   11.6444   -1.0090 H       1  LIG1        0.0279
     40 H           4.9114   11.3464    0.5043 H       1  LIG1        0.0279
     41 C           5.5281    8.6248   -0.0002 C.ar    1  LIG1        0.1731
     42 C           6.2658    7.4591   -0.0001 C.ar    1  LIG1        0.0013
     43 C           7.6600    7.8504   -0.0001 C.ar    1  LIG1       -0.0091
     44 C           7.6818    9.2300   -0.0002 C.ar    1  LIG1        0.0959
     45 O           6.3794    9.7307   -0.0003 O.2     1  LIG1       -0.4593
     46 H           8.6085   10.1417   -0.0002 H       1  LIG1        0.1032
     47 C           5.8224    6.2367   -0.0000 C.3     1  LIG1       -0.0358
     48 H           6.5220    5.6035    0.5044 H       1  LIG1        0.0279
     49 H           5.7008    5.9013   -1.0089 H       1  LIG1        0.0279
     50 H           4.8794    6.1994    0.5043 H       1  LIG1        0.0279
     51 C           8.6751    7.0379   -0.0001 C.3     1  LIG1       -0.0365
     52 H           9.4995    7.4971    0.5044 H       1  LIG1        0.0279
     53 H           8.9537    6.8151   -1.0089 H       1  LIG1        0.0279
     54 H           8.4076    6.1330    0.5043 H       1  LIG1        0.0279
@<TRIPOS>BOND
     1    26    24    1
     2    39    37    1
     3    35    33    1
     4    53    51    1
     5    22    20    1
     6    49    47    1
     7    13    11    1
     8     9     7    1
     9    45    44   ar
    10    45    41   ar
    11    32    31   ar
    12    32    28   ar
    13    19    18   ar
    14    19    15   ar
    15    44    46    1
    16    44    43   ar
    17     5     4   ar
    18     5     1   ar
    19    31    41    1
    20    31    30   ar
    21    18    28    1
    22    18    17   ar
    23    41    42   ar
    24    29    28   ar
    25    29    30   ar
    26    29    33    1
    27    42    43   ar
    28    42    47    1
    29    16    17   ar
    30    16    15   ar
    31    16    20    1
    32    30    37    1
    33    24    17    1
    34    24    27    1
    35    24    25    1
    36    37    40    1
    37    37    38    1
    38    15     4    1
    39     4     3   ar
    40    43    51    1
    41    33    36    1
    42    33    34    1
    43    51    54    1
    44    51    52    1
    45    20    23    1
    46    20    21    1
    47    47    50    1
    48    47    48    1
    49     1     2   ar
    50     1     6    1
    51     2     3   ar
    52     2     7    1
    53     3    11    1
    54    11    14    1
    55    11    12    1
    56     7    10    1
    57     7     8    1
