@<TRIPOS>MOLECULE
mol_data/noopt/geoms/mol2/12ii.out
 15 15 0 0 0
SMALL
GASTEIGER

@<TRIPOS>ATOM
      1 C           0.1763    1.8460    0.0000 C.ar    1  LIG1        0.0948
      2 C           1.5558    1.8460    0.0000 C.ar    1  LIG1       -0.0099
      3 C           1.9706    3.2334    0.0000 C.ar    1  LIG1       -0.0099
      4 C           0.8165    3.9895   -0.0001 C.ar    1  LIG1        0.0948
      5 O          -0.3030    3.1567   -0.0002 O.2     1  LIG1       -0.4705
      6 H          -0.7504    0.9343    0.0000 H       1  LIG1        0.1032
      7 H           0.5416    5.2601   -0.0001 H       1  LIG1        0.1032
      8 C           2.3517    0.8177    0.0001 C.3     1  LIG1       -0.0365
      9 H           3.2608    1.0704    0.5046 H       1  LIG1        0.0279
     10 H           2.5701    0.5356   -1.0087 H       1  LIG1        0.0279
     11 H           1.8790    0.0009    0.5045 H       1  LIG1        0.0279
     12 C           3.2001    3.6568    0.0000 C.3     1  LIG1       -0.0365
     13 H           3.2528    4.5990    0.5044 H       1  LIG1        0.0279
     14 H           3.5373    3.7730   -1.0088 H       1  LIG1        0.0279
     15 H           3.8217    2.9468    0.5044 H       1  LIG1        0.0279
@<TRIPOS>BOND
     1    14    12    1
     2    10     8    1
     3     5     4   ar
     4     5     1   ar
     5     4     7    1
     6     4     3   ar
     7     1     2   ar
     8     1     6    1
     9     2     3   ar
    10     2     8    1
    11     3    12    1
    12    12    15    1
    13    12    13    1
    14     8    11    1
    15     8     9    1
