@<TRIPOS>MOLECULE
mol_data/noopt/geoms/mol2/12ii12ii12ii-12ii-.out
 54 57 0 0 0
SMALL
GASTEIGER

@<TRIPOS>ATOM
      1 C           0.1763    1.8460    0.0000 C.ar    1  LIG1        0.0959
      2 C           1.5558    1.8460    0.0000 C.ar    1  LIG1       -0.0091
      3 C           1.9706    3.2334    0.0000 C.ar    1  LIG1        0.0013
      4 C           0.8165    3.9895   -0.0001 C.ar    1  LIG1        0.1731
      5 O          -0.3030    3.1567   -0.0002 O.2     1  LIG1       -0.4593
      6 H          -0.7504    0.9343    0.0000 H       1  LIG1        0.1032
      7 C           2.3517    0.8177    0.0001 C.3     1  LIG1       -0.0365
      8 H           3.2608    1.0704    0.5046 H       1  LIG1        0.0279
      9 H           2.5701    0.5356   -1.0087 H       1  LIG1        0.0279
     10 H           1.8790    0.0009    0.5045 H       1  LIG1        0.0279
     11 C           3.2001    3.6568    0.0000 C.3     1  LIG1       -0.0358
     12 H           3.2528    4.5990    0.5044 H       1  LIG1        0.0279
     13 H           3.5373    3.7730   -1.0088 H       1  LIG1        0.0279
     14 H           3.8217    2.9468    0.5044 H       1  LIG1        0.0279
     15 C           0.5416    5.2601   -0.0001 C.ar    1  LIG1        0.1741
     16 C           1.2792    6.4258   -0.0001 C.ar    1  LIG1        0.0020
     17 C           0.3286    7.5182   -0.0001 C.ar    1  LIG1        0.0020
     18 C          -0.9274    6.9472   -0.0002 C.ar    1  LIG1        0.1741
     19 O          -0.8223    5.5559   -0.0003 O.2     1  LIG1       -0.4481
     20 C           2.5738    6.5485    0.0000 C.3     1  LIG1       -0.0357
     21 H           2.8464    7.4519    0.5045 H       1  LIG1        0.0279
     22 H           2.9289    6.5822   -1.0088 H       1  LIG1        0.0279
     23 H           3.0112    5.7123    0.5044 H       1  LIG1        0.0279
     24 C           0.6283    8.7835   -0.0001 C.3     1  LIG1       -0.0357
     25 H          -0.1397    9.3319    0.5043 H       1  LIG1        0.0279
     26 H           0.7104    9.1306   -1.0089 H       1  LIG1        0.0279
     27 H           1.5606    8.9292    0.5043 H       1  LIG1        0.0279
     28 C          -2.1481    7.3943   -0.0002 C.ar    1  LIG1        0.1741
     29 C          -3.4042    6.8241   -0.0002 C.ar    1  LIG1        0.0020
     30 C          -4.3554    7.9160   -0.0002 C.ar    1  LIG1        0.0020
     31 C          -3.6171    9.0815   -0.0003 C.ar    1  LIG1        0.1741
     32 O          -2.2534    8.7859   -0.0004 O.2     1  LIG1       -0.4481
     33 C          -3.7038    5.5588   -0.0001 C.3     1  LIG1       -0.0357
     34 H          -2.9359    5.0104    0.5043 H       1  LIG1        0.0279
     35 H          -3.7860    5.2116   -1.0090 H       1  LIG1        0.0279
     36 H          -4.6362    5.4131    0.5042 H       1  LIG1        0.0279
     37 C          -5.6499    7.7933   -0.0002 C.3     1  LIG1       -0.0357
     38 H          -5.9226    6.8899    0.5042 H       1  LIG1        0.0279
     39 H          -6.0050    7.7596   -1.0091 H       1  LIG1        0.0279
     40 H          -6.0874    8.6294    0.5041 H       1  LIG1        0.0279
     41 C          -3.8920   10.3521   -0.0003 C.ar    1  LIG1        0.1731
     42 C          -5.0455   11.1087   -0.0003 C.ar    1  LIG1        0.0013
     43 C          -4.6315   12.4963   -0.0002 C.ar    1  LIG1       -0.0091
     44 C          -3.2517   12.4956   -0.0003 C.ar    1  LIG1        0.0959
     45 O          -2.7723   11.1852   -0.0004 O.2     1  LIG1       -0.4593
     46 H          -2.3250   13.4073   -0.0003 H       1  LIG1        0.1032
     47 C          -6.2750   10.6853   -0.0002 C.3     1  LIG1       -0.0358
     48 H          -6.3277    9.7431    0.5043 H       1  LIG1        0.0279
     49 H          -6.6122   10.5690   -1.0090 H       1  LIG1        0.0279
     50 H          -6.8966   11.3952    0.5042 H       1  LIG1        0.0279
     51 C          -5.4273   13.5246   -0.0002 C.3     1  LIG1       -0.0365
     52 H          -6.3365   13.2719    0.5042 H       1  LIG1        0.0279
     53 H          -5.6457   13.8066   -1.0091 H       1  LIG1        0.0279
     54 H          -4.9547   14.3414    0.5042 H       1  LIG1        0.0279
@<TRIPOS>BOND
     1    39    37    1
     2    53    51    1
     3    49    47    1
     4    35    33    1
     5    26    24    1
     6    13    11    1
     7    22    20    1
     8     9     7    1
     9    45    44   ar
    10    45    41   ar
    11    32    31   ar
    12    32    28   ar
    13    19    18   ar
    14    19    15   ar
    15    44    46    1
    16    44    43   ar
    17    31    41    1
    18    31    30   ar
    19    42    41   ar
    20    42    43   ar
    21    42    47    1
    22    29    30   ar
    23    29    28   ar
    24    29    33    1
    25    43    51    1
    26    37    30    1
    27    37    40    1
    28    37    38    1
    29    51    54    1
    30    51    52    1
    31    18    28    1
    32    18    17   ar
    33     5     4   ar
    34     5     1   ar
    35    47    50    1
    36    47    48    1
    37    33    36    1
    38    33    34    1
    39    17    24    1
    40    17    16   ar
    41    24    27    1
    42    24    25    1
    43    16    15   ar
    44    16    20    1
    45    15     4    1
    46     4     3   ar
    47     1     2   ar
    48     1     6    1
    49     2     3   ar
    50     2     7    1
    51     3    11    1
    52    11    14    1
    53    11    12    1
    54    20    23    1
    55    20    21    1
    56     7    10    1
    57     7     8    1
