@<TRIPOS>MOLECULE
mol_data/noopt/geoms/mol2/12ii12ii12ii.out
 41 43 0 0 0
SMALL
GASTEIGER

@<TRIPOS>ATOM
      1 C           0.1763    1.8460    0.0000 C.ar    1  LIG1        0.0959
      2 C           1.5558    1.8460    0.0000 C.ar    1  LIG1       -0.0091
      3 C           1.9706    3.2334    0.0000 C.ar    1  LIG1        0.0013
      4 C           0.8165    3.9895   -0.0001 C.ar    1  LIG1        0.1731
      5 O          -0.3030    3.1567   -0.0002 O.2     1  LIG1       -0.4593
      6 H          -0.7504    0.9343    0.0000 H       1  LIG1        0.1032
      7 C           2.3517    0.8177    0.0001 C.3     1  LIG1       -0.0365
      8 H           3.2608    1.0704    0.5046 H       1  LIG1        0.0279
      9 H           2.5701    0.5356   -1.0087 H       1  LIG1        0.0279
     10 H           1.8790    0.0009    0.5045 H       1  LIG1        0.0279
     11 C           3.2001    3.6568    0.0000 C.3     1  LIG1       -0.0358
     12 H           3.2528    4.5990    0.5044 H       1  LIG1        0.0279
     13 H           3.5373    3.7730   -1.0088 H       1  LIG1        0.0279
     14 H           3.8217    2.9468    0.5044 H       1  LIG1        0.0279
     15 C           0.5416    5.2601   -0.0001 C.ar    1  LIG1        0.1741
     16 C           1.2792    6.4258   -0.0001 C.ar    1  LIG1        0.0020
     17 C           0.3286    7.5182   -0.0001 C.ar    1  LIG1        0.0020
     18 C          -0.9274    6.9472   -0.0002 C.ar    1  LIG1        0.1741
     19 O          -0.8223    5.5559   -0.0003 O.2     1  LIG1       -0.4481
     20 C           2.5738    6.5485    0.0000 C.3     1  LIG1       -0.0357
     21 H           2.8464    7.4519    0.5045 H       1  LIG1        0.0279
     22 H           2.9289    6.5822   -1.0088 H       1  LIG1        0.0279
     23 H           3.0112    5.7123    0.5044 H       1  LIG1        0.0279
     24 C           0.6283    8.7835   -0.0001 C.3     1  LIG1       -0.0357
     25 H          -0.1397    9.3319    0.5043 H       1  LIG1        0.0279
     26 H           0.7104    9.1306   -1.0089 H       1  LIG1        0.0279
     27 H           1.5606    8.9292    0.5043 H       1  LIG1        0.0279
     28 C          -2.1481    7.3943   -0.0002 C.ar    1  LIG1        0.1731
     29 C          -2.7387    8.6410   -0.0002 C.ar    1  LIG1        0.0013
     30 C          -4.1701    8.4218   -0.0002 C.ar    1  LIG1       -0.0091
     31 C          -4.3593    7.0551   -0.0003 C.ar    1  LIG1        0.0959
     32 O          -3.1273    6.4000   -0.0004 O.2     1  LIG1       -0.4593
     33 H          -5.3898    6.2627   -0.0003 H       1  LIG1        0.1032
     34 C          -2.1502    9.8005   -0.0001 C.3     1  LIG1       -0.0358
     35 H          -2.7678   10.5139    0.5044 H       1  LIG1        0.0279
     36 H          -1.9888   10.1187   -1.0089 H       1  LIG1        0.0279
     37 H          -1.2097    9.7231    0.5043 H       1  LIG1        0.0279
     38 C          -5.0792    9.3516   -0.0002 C.3     1  LIG1       -0.0365
     39 H          -5.9532    8.9959    0.5042 H       1  LIG1        0.0279
     40 H          -5.3286    9.6066   -1.0090 H       1  LIG1        0.0279
     41 H          -4.7037   10.2174    0.5042 H       1  LIG1        0.0279
@<TRIPOS>BOND
     1    40    38    1
     2    26    24    1
     3    36    34    1
     4    13    11    1
     5    22    20    1
     6     9     7    1
     7    32    31   ar
     8    32    28   ar
     9    19    18   ar
    10    19    15   ar
    11    33    31    1
    12    31    30   ar
    13    38    30    1
    14    38    41    1
    15    38    39    1
    16     5     4   ar
    17     5     1   ar
    18    28    29   ar
    19    28    18    1
    20    29    30   ar
    21    29    34    1
    22    18    17   ar
    23    24    17    1
    24    24    27    1
    25    24    25    1
    26    34    37    1
    27    34    35    1
    28    16    17   ar
    29    16    15   ar
    30    16    20    1
    31    15     4    1
    32     4     3   ar
    33    20    23    1
    34    20    21    1
    35    11     3    1
    36    11    14    1
    37    11    12    1
    38     1     6    1
    39     1     2   ar
    40     3     2   ar
    41     2     7    1
    42     7    10    1
    43     7     8    1
