@<TRIPOS>MOLECULE
mol_data/noopt/geoms/mol2/12ii12ii-12ii.out
 41 43 0 0 0
SMALL
GASTEIGER

@<TRIPOS>ATOM
      1 C           0.1763    1.8460    0.0000 C.ar    1  LIG1        0.0959
      2 C           1.5558    1.8460    0.0000 C.ar    1  LIG1       -0.0091
      3 C           1.9706    3.2334    0.0000 C.ar    1  LIG1        0.0013
      4 C           0.8165    3.9895   -0.0001 C.ar    1  LIG1        0.1731
      5 O          -0.3030    3.1567   -0.0002 O.2     1  LIG1       -0.4593
      6 H          -0.7504    0.9343    0.0000 H       1  LIG1        0.1032
      7 C           2.3517    0.8177    0.0001 C.3     1  LIG1       -0.0365
      8 H           3.2608    1.0704    0.5046 H       1  LIG1        0.0279
      9 H           2.5701    0.5356   -1.0087 H       1  LIG1        0.0279
     10 H           1.8790    0.0009    0.5045 H       1  LIG1        0.0279
     11 C           3.2001    3.6568    0.0000 C.3     1  LIG1       -0.0358
     12 H           3.2528    4.5990    0.5044 H       1  LIG1        0.0279
     13 H           3.5373    3.7730   -1.0088 H       1  LIG1        0.0279
     14 H           3.8217    2.9468    0.5044 H       1  LIG1        0.0279
     15 C           0.5416    5.2601   -0.0001 C.ar    1  LIG1        0.1741
     16 C          -0.6119    6.0167   -0.0001 C.ar    1  LIG1        0.0020
     17 C          -0.1979    7.4043   -0.0001 C.ar    1  LIG1        0.0020
     18 C           1.1818    7.4036   -0.0002 C.ar    1  LIG1        0.1741
     19 O           1.6612    6.0932   -0.0003 O.2     1  LIG1       -0.4481
     20 C          -1.8414    5.5933   -0.0000 C.3     1  LIG1       -0.0357
     21 H          -1.8941    4.6511    0.5044 H       1  LIG1        0.0279
     22 H          -2.1787    5.4770   -1.0089 H       1  LIG1        0.0279
     23 H          -2.4630    6.3032    0.5043 H       1  LIG1        0.0279
     24 C          -0.9938    8.4326   -0.0001 C.3     1  LIG1       -0.0357
     25 H          -1.9030    8.1799    0.5043 H       1  LIG1        0.0279
     26 H          -1.2121    8.7146   -1.0090 H       1  LIG1        0.0279
     27 H          -0.5211    9.2494    0.5042 H       1  LIG1        0.0279
     28 C           2.1085    8.3153   -0.0002 C.ar    1  LIG1        0.1731
     29 C           3.4880    8.3153   -0.0001 C.ar    1  LIG1        0.0013
     30 C           3.9028    9.7027   -0.0001 C.ar    1  LIG1       -0.0091
     31 C           2.7487   10.4588   -0.0002 C.ar    1  LIG1        0.0959
     32 O           1.6292    9.6260   -0.0003 O.2     1  LIG1       -0.4593
     33 H           2.4738   11.7294   -0.0002 H       1  LIG1        0.1032
     34 C           4.2839    7.2870   -0.0000 C.3     1  LIG1       -0.0358
     35 H           5.1931    7.5396    0.5044 H       1  LIG1        0.0279
     36 H           4.5023    7.0049   -1.0089 H       1  LIG1        0.0279
     37 H           3.8112    6.4702    0.5043 H       1  LIG1        0.0279
     38 C           5.1323   10.1261   -0.0001 C.3     1  LIG1       -0.0365
     39 H           5.1851   11.0682    0.5043 H       1  LIG1        0.0279
     40 H           5.4695   10.2423   -1.0089 H       1  LIG1        0.0279
     41 H           5.7540    9.4161    0.5043 H       1  LIG1        0.0279
@<TRIPOS>BOND
     1    26    24    1
     2    40    38    1
     3    22    20    1
     4    36    34    1
     5    13    11    1
     6     9     7    1
     7    32    31   ar
     8    32    28   ar
     9    19    18   ar
    10    19    15   ar
    11    31    33    1
    12    31    30   ar
    13     5     4   ar
    14     5     1   ar
    15    18    28    1
    16    18    17   ar
    17    28    29   ar
    18    29    30   ar
    19    29    34    1
    20    16    17   ar
    21    16    15   ar
    22    16    20    1
    23    24    17    1
    24    24    27    1
    25    24    25    1
    26    30    38    1
    27    15     4    1
    28     4     3   ar
    29    38    41    1
    30    38    39    1
    31    20    23    1
    32    20    21    1
    33    34    37    1
    34    34    35    1
    35    11     3    1
    36    11    14    1
    37    11    12    1
    38     1     6    1
    39     1     2   ar
    40     3     2   ar
    41     2     7    1
    42     7    10    1
    43     7     8    1
