@<TRIPOS>MOLECULE
mol_data/noopt/geoms/mol2/12ii12ii.out
 28 29 0 0 0
SMALL
GASTEIGER

@<TRIPOS>ATOM
      1 C           0.1763    1.8460    0.0000 C.ar    1  LIG1        0.0959
      2 C           1.5558    1.8460    0.0000 C.ar    1  LIG1       -0.0091
      3 C           1.9706    3.2334    0.0000 C.ar    1  LIG1        0.0013
      4 C           0.8165    3.9895   -0.0001 C.ar    1  LIG1        0.1731
      5 O          -0.3030    3.1567   -0.0002 O.2     1  LIG1       -0.4593
      6 H          -0.7504    0.9343    0.0000 H       1  LIG1        0.1032
      7 C           2.3517    0.8177    0.0001 C.3     1  LIG1       -0.0365
      8 H           3.2608    1.0704    0.5046 H       1  LIG1        0.0279
      9 H           2.5701    0.5356   -1.0087 H       1  LIG1        0.0279
     10 H           1.8790    0.0009    0.5045 H       1  LIG1        0.0279
     11 C           3.2001    3.6568    0.0000 C.3     1  LIG1       -0.0358
     12 H           3.2528    4.5990    0.5044 H       1  LIG1        0.0279
     13 H           3.5373    3.7730   -1.0088 H       1  LIG1        0.0279
     14 H           3.8217    2.9468    0.5044 H       1  LIG1        0.0279
     15 C           0.5416    5.2601   -0.0001 C.ar    1  LIG1        0.1731
     16 C           1.2792    6.4258   -0.0001 C.ar    1  LIG1        0.0013
     17 C           0.3286    7.5182   -0.0001 C.ar    1  LIG1       -0.0091
     18 C          -0.9274    6.9472   -0.0002 C.ar    1  LIG1        0.0959
     19 O          -0.8223    5.5559   -0.0003 O.2     1  LIG1       -0.4593
     20 H          -2.1481    7.3943   -0.0002 H       1  LIG1        0.1032
     21 C           2.5738    6.5485    0.0000 C.3     1  LIG1       -0.0358
     22 H           2.8464    7.4519    0.5045 H       1  LIG1        0.0279
     23 H           2.9289    6.5822   -1.0088 H       1  LIG1        0.0279
     24 H           3.0112    5.7123    0.5044 H       1  LIG1        0.0279
     25 C           0.6283    8.7835   -0.0001 C.3     1  LIG1       -0.0365
     26 H          -0.1397    9.3319    0.5043 H       1  LIG1        0.0279
     27 H           0.7104    9.1306   -1.0089 H       1  LIG1        0.0279
     28 H           1.5606    8.9292    0.5043 H       1  LIG1        0.0279
@<TRIPOS>BOND
     1    27    25    1
     2    13    11    1
     3    23    21    1
     4     9     7    1
     5    19    18   ar
     6    19    15   ar
     7     5     4   ar
     8     5     1   ar
     9    20    18    1
    10    18    17   ar
    11    25    17    1
    12    25    28    1
    13    25    26    1
    14     4    15    1
    15     4     3   ar
    16    17    16   ar
    17    16    15   ar
    18    16    21    1
    19     1     6    1
    20     1     2   ar
    21    21    24    1
    22    21    22    1
    23    11     3    1
    24    11    14    1
    25    11    12    1
    26     3     2   ar
    27     2     7    1
    28     7    10    1
    29     7     8    1
