@<TRIPOS>MOLECULE
mol_data/noopt/geoms/mol2/12il6hf(270)6id6af(80).out
 51 54 0 0 0
SMALL
GASTEIGER

@<TRIPOS>ATOM
      1 C           0.1763    1.8460    0.0000 C.ar    1  LIG1        0.0991
      2 C           1.5558    1.8460    0.0000 C.ar    1  LIG1        0.0296
      3 C           1.9706    3.2334    0.0000 C.ar    1  LIG1        0.1686
      4 C           0.8165    3.9895   -0.0001 C.ar    1  LIG1        0.1798
      5 O          -0.3030    3.1567   -0.0002 O.2     1  LIG1       -0.4588
      6 H          -0.7504    0.9343    0.0000 H       1  LIG1        0.1033
      7 C           2.3517    0.8177    0.0001 C.3     1  LIG1       -0.0332
      8 H           3.2608    1.0704    0.5046 H       1  LIG1        0.0280
      9 H           2.5701    0.5356   -1.0087 H       1  LIG1        0.0280
     10 H           1.8790    0.0009    0.5045 H       1  LIG1        0.0280
     11 O           3.1998    3.6567   -0.0000 O.3     1  LIG1       -0.4910
     12 C           4.0900    2.5376   -0.0001 C.3     1  LIG1        0.0790
     13 H           5.1015    2.8864   -0.0002 H       1  LIG1        0.0660
     14 H           3.9174    1.9445    0.8737 H       1  LIG1        0.0660
     15 H           3.9171    1.9444   -0.8736 H       1  LIG1        0.0660
     16 C           0.3914    5.9552    1.2138 C.ar    1  LIG1        0.1279
     17 C           0.5416    5.2601   -0.0001 C.ar    1  LIG1        0.0639
     18 C           0.3892    5.9652   -1.1954 C.ar    1  LIG1       -0.0040
     19 C           0.0944    7.3284   -1.1385 C.ar    1  LIG1        0.1436
     20 C          -0.0369    7.9350    0.1243 C.ar    1  LIG1        0.1161
     21 N           0.1071    7.2700    1.2872 N.ar    1  LIG1       -0.2280
     22 H           0.4983    5.4557   -2.1633 H       1  LIG1        0.0663
     23 N           0.5240    5.3423    2.3526 N.pl3   1  LIG1       -0.3426
     24 H          -0.1528    4.6089    2.4172 H       1  LIG1        0.1437
     25 H           1.4433    4.9541    2.4172 H       1  LIG1        0.1437
     26 O          -0.0572    8.0291   -2.2230 O.3     1  LIG1       -0.5046
     27 H          -0.9791    8.0104   -2.4903 H       1  LIG1        0.2922
     28 C          -1.6470    9.6378    0.2864 C.ar    1  LIG1        0.0483
     29 C          -0.3107    9.2015    0.2290 C.ar    1  LIG1        0.0263
     30 C           0.7056   10.1568    0.2872 C.ar    1  LIG1       -0.0312
     31 C           0.3563   11.5036    0.3997 C.ar    1  LIG1        0.0784
     32 C          -1.0087   11.8414    0.4496 C.ar    1  LIG1        0.0902
     33 N          -2.0020   10.9328    0.3949 N.ar    1  LIG1       -0.2499
     34 H           1.7614    9.8539    0.2442 H       1  LIG1        0.0638
     35 C          -2.6282    8.7860    0.2358 C.3     1  LIG1       -0.0217
     36 H          -2.3394    7.8797    0.7260 H       1  LIG1        0.0293
     37 H          -2.8677    8.5780   -0.7861 H       1  LIG1        0.0293
     38 H          -3.4849    9.1993    0.7260 H       1  LIG1        0.0293
     39 N           2.0670   13.2493    0.5083 N.1     1  LIG1       -0.1908
     40 C           1.2653   12.4312    0.4574 C.1     1  LIG1        0.1013
     41 C          -1.8192   13.7910   -0.5801 C.ar    1  LIG1        0.0370
     42 C          -1.3839   13.0816    0.5542 C.ar    1  LIG1        0.0231
     43 C          -1.3660   13.7394    1.7855 C.ar    1  LIG1       -0.0080
     44 C          -1.7796   15.0714    1.8419 C.ar    1  LIG1        0.1355
     45 C          -2.1977   15.6957    0.6523 C.ar    1  LIG1        0.0690
     46 N          -2.2214   15.0762   -0.5439 N.ar    1  LIG1       -0.2590
     47 H          -1.0314   13.2180    2.6935 H       1  LIG1        0.0661
     48 H          -2.5917   16.9345    0.6538 H       1  LIG1        0.0867
     49 H          -1.8537   13.2217   -1.7484 H       1  LIG1        0.0836
     50 O          -1.7812   15.7277    2.9641 O.3     1  LIG1       -0.5052
     51 H          -2.6865   15.8873    3.2407 H       1  LIG1        0.2922
@<TRIPOS>BOND
     1    27    26    1
     2    26    19    1
     3    22    18    1
     4    49    41    1
     5    18    19   ar
     6    18    17   ar
     7    19    20   ar
     8     9     7    1
     9    15    12    1
    10    37    35    1
    11    41    46   ar
    12    41    42   ar
    13    46    45   ar
    14    13    12    1
    15     5     4   ar
    16     5     1   ar
    17    17     4    1
    18    17    16   ar
    19     4     3   ar
    20    12    11    1
    21    12    14    1
    22     1     6    1
    23     1     2   ar
    24     2     3   ar
    25     2     7    1
    26    11     3    1
    27     7    10    1
    28     7     8    1
    29    20    29    1
    30    20    21   ar
    31    29    28   ar
    32    29    30   ar
    33    35    28    1
    34    35    38    1
    35    35    36    1
    36    34    30    1
    37    28    33   ar
    38    30    31   ar
    39    33    32   ar
    40    31    32   ar
    41    31    40    1
    42    32    42    1
    43    40    39    3
    44    42    43   ar
    45    45    48    1
    46    45    44   ar
    47    16    21   ar
    48    16    23    1
    49    43    44   ar
    50    43    47    1
    51    44    50    1
    52    23    24    1
    53    23    25    1
    54    50    51    1
