@<TRIPOS>MOLECULE
mol_data/noopt/geoms/mol2/12il12il.out
 30 31 0 0 0
SMALL
GASTEIGER

@<TRIPOS>ATOM
      1 C           0.1763    1.8460    0.0000 C.ar    1  LIG1        0.0993
      2 C           1.5558    1.8460    0.0000 C.ar    1  LIG1        0.0297
      3 C           1.9706    3.2334    0.0000 C.ar    1  LIG1        0.1716
      4 C           0.8165    3.9895   -0.0001 C.ar    1  LIG1        0.2116
      5 O          -0.3030    3.1567   -0.0002 O.2     1  LIG1       -0.4557
      6 H          -0.7504    0.9343    0.0000 H       1  LIG1        0.1033
      7 C           2.3517    0.8177    0.0001 C.3     1  LIG1       -0.0332
      8 H           3.2608    1.0704    0.5046 H       1  LIG1        0.0280
      9 H           2.5701    0.5356   -1.0087 H       1  LIG1        0.0280
     10 H           1.8790    0.0009    0.5045 H       1  LIG1        0.0280
     11 O           3.1998    3.6567   -0.0000 O.3     1  LIG1       -0.4909
     12 C           4.0900    2.5376   -0.0001 C.3     1  LIG1        0.0790
     13 H           5.1015    2.8864   -0.0002 H       1  LIG1        0.0660
     14 H           3.9174    1.9445    0.8737 H       1  LIG1        0.0660
     15 H           3.9171    1.9444   -0.8736 H       1  LIG1        0.0660
     16 C           0.5416    5.2601   -0.0001 C.ar    1  LIG1        0.1799
     17 C           1.2792    6.4258   -0.0001 C.ar    1  LIG1        0.0402
     18 C           0.3286    7.5182   -0.0001 C.ar    1  LIG1        0.1612
     19 C          -0.9274    6.9472   -0.0002 C.ar    1  LIG1        0.1345
     20 O          -0.8223    5.5559   -0.0003 O.2     1  LIG1       -0.4557
     21 H          -2.1481    7.3943   -0.0002 H       1  LIG1        0.1068
     22 C           2.5738    6.5485    0.0000 C.3     1  LIG1       -0.0325
     23 H           2.8464    7.4519    0.5045 H       1  LIG1        0.0280
     24 H           2.9289    6.5822   -1.0088 H       1  LIG1        0.0280
     25 H           3.0112    5.7123    0.5044 H       1  LIG1        0.0280
     26 O           0.6282    8.7833   -0.0001 O.3     1  LIG1       -0.4917
     27 C           2.0499    8.9371   -0.0002 C.3     1  LIG1        0.0789
     28 H           2.2960    9.9784   -0.0003 H       1  LIG1        0.0660
     29 H           2.4588    8.4741    0.8736 H       1  LIG1        0.0660
     30 H           2.4588    8.4738   -0.8737 H       1  LIG1        0.0660
@<TRIPOS>BOND
     1    24    22    1
     2     9     7    1
     3    30    27    1
     4    15    12    1
     5    28    27    1
     6    20    19   ar
     7    20    16   ar
     8    13    12    1
     9     5     4   ar
    10     5     1   ar
    11    21    19    1
    12    19    18   ar
    13    27    26    1
    14    27    29    1
    15    16    17   ar
    16    16     4    1
    17    26    18    1
    18    18    17   ar
    19    17    22    1
    20     4     3   ar
    21    12    11    1
    22    12    14    1
    23     1     6    1
    24     1     2   ar
    25    11     3    1
    26    22    25    1
    27    22    23    1
    28     3     2   ar
    29     2     7    1
    30     7    10    1
    31     7     8    1
