@<TRIPOS>MOLECULE
mol_data/noopt/geoms/mol2/12il12il-12il-12il-.out
 58 57 0 0 0
SMALL
GASTEIGER

@<TRIPOS>ATOM
      1 C           0.1763    1.8460    0.0000 C.ar    1  LIG1        0.0993
      2 C           1.5558    1.8460    0.0000 C.ar    1  LIG1        0.0297
      3 C           1.9706    3.2334    0.0000 C.ar    1  LIG1        0.1716
      4 C           0.8165    3.9895   -0.0001 C.ar    1  LIG1        0.2116
      5 O          -0.3030    3.1567   -0.0002 O.2     1  LIG1       -0.4557
      6 H          -0.7504    0.9343    0.0000 H       1  LIG1        0.1033
      7 C           2.3517    0.8177    0.0001 C.3     1  LIG1       -0.0332
      8 H           3.2608    1.0704    0.5046 H       1  LIG1        0.0280
      9 H           2.5701    0.5356   -1.0087 H       1  LIG1        0.0280
     10 H           1.8790    0.0009    0.5045 H       1  LIG1        0.0280
     11 O           3.1998    3.6567   -0.0000 O.3     1  LIG1       -0.4909
     12 C           4.0900    2.5376   -0.0001 C.3     1  LIG1        0.0790
     13 H           5.1015    2.8864   -0.0002 H       1  LIG1        0.0660
     14 H           3.9174    1.9445    0.8737 H       1  LIG1        0.0660
     15 H           3.9171    1.9444   -0.8736 H       1  LIG1        0.0660
     16 C           0.5416    5.2601   -0.0001 C.ar    1  LIG1        0.1811
     17 C          -0.6119    6.0167   -0.0001 C.ar    1  LIG1        0.0460
     18 C          -0.1979    7.4043   -0.0001 C.ar    1  LIG1        0.2310
     19 C           1.1818    7.4036   -0.0002 C.ar    1  LIG1        0.2177
     20 O           1.6612    6.0932   -0.0003 O.2     1  LIG1       -0.4442
     21 C          -1.8414    5.5933   -0.0000 C.3     1  LIG1       -0.0323
     22 H          -1.8941    4.6511    0.5044 H       1  LIG1        0.0280
     23 H          -2.1787    5.4770   -1.0089 H       1  LIG1        0.0280
     24 H          -2.4630    6.3032    0.5043 H       1  LIG1        0.0280
     25 O          -0.9936    8.4324   -0.0001 O.3     1  LIG1       -0.2835
     26 C          -0.2197    9.6349   -0.0002 C.3     2  LIG2       -0.0681
     27 H          -0.8750   10.4808   -0.0004 H       1  LIG1        0.0227
     28 H           0.3974    9.6619    0.8736 H       3  UNK3        0.0000
     29 H           0.3976    9.6617   -0.8737 H       1  LIG1        0.0227
     30 C           2.1085    8.3153   -0.0002 C.ar    1  LIG1        0.1816
     31 C           2.1310    9.6946   -0.0002 C.ar    1  LIG1        0.0494
     32 C           3.5250   10.0867   -0.0001 C.ar    1  LIG1        0.2313
     33 C           4.2622    8.9204   -0.0002 C.ar    1  LIG1        0.2177
     34 O           3.4112    7.8147   -0.0003 O.2     1  LIG1       -0.4442
     35 C           1.1159   10.5071   -0.0001 C.3     1  LIG1       -0.0161
     36 H           0.2915   10.0479    0.5044 H       1  LIG1        0.0227
     37 H           0.8373   10.7300   -1.0089 H       1  LIG1        0.0319
     38 H           1.3834   11.4121    0.5043 H       1  LIG1        0.0319
     39 O           3.9683   11.3088   -0.0001 O.3     1  LIG1       -0.2834
     40 C           5.3983   11.2978   -0.0002 C.3     4  LIG4       -0.0681
     41 H           5.7627   12.3039   -0.0003 H       2  LIG2        0.0227
     42 H           5.7511   10.7908    0.8736 H       5  UNK5        0.0000
     43 H           5.7511   10.7906   -0.8737 H       2  LIG2        0.0227
     44 C           5.5281    8.6248   -0.0002 C.ar    1  LIG1        0.1803
     45 C           6.7057    9.3433   -0.0002 C.ar    1  LIG1        0.0436
     46 C           7.7825    8.3750   -0.0001 C.ar    1  LIG1        0.1615
     47 C           7.1911    7.1285   -0.0002 C.ar    1  LIG1        0.1345
     48 O           5.8017    7.2563   -0.0003 O.2     1  LIG1       -0.4557
     49 H           7.6182    5.9007   -0.0001 H       1  LIG1        0.1068
     50 C           6.8495   10.6357   -0.0001 C.3     1  LIG1       -0.0163
     51 H           6.0207   11.0868    0.5044 H       2  LIG2        0.0227
     52 H           6.8889   10.9902   -1.0089 H       1  LIG1        0.0319
     53 H           7.7573   10.8935    0.5043 H       1  LIG1        0.0319
     54 O           9.0522    8.6539   -0.0001 O.3     1  LIG1       -0.4917
     55 C           9.8076    7.4397   -0.0001 C.3     1  LIG1        0.0789
     56 H          10.8526    7.6697   -0.0003 H       1  LIG1        0.0660
     57 H           9.5678    6.8704    0.8736 H       1  LIG1        0.0660
     58 H           9.5676    6.8704   -0.8737 H       1  LIG1        0.0660
@<TRIPOS>BOND
     1    37    35    1
     2    52    50    1
     3    23    21    1
     4     9     7    1
     5    29    26    1
     6    43    40    1
     7    58    55    1
     8    15    12    1
     9    27    26    1
    10    41    40    1
    11    34    33   ar
    12    34    30   ar
    13    48    47   ar
    14    48    44   ar
    15    56    55    1
    16    20    19   ar
    17    20    16   ar
    18    13    12    1
    19     5     4   ar
    20     5     1   ar
    21    26    36    1
    22    33    44    1
    23    33    32   ar
    24    47    49    1
    25    47    46   ar
    26    40    51    1
    27    19    30    1
    28    19    18   ar
    29    44    45   ar
    30    31    30   ar
    31    31    32   ar
    32    31    35    1
    33    45    46   ar
    34    45    50    1
    35    55    54    1
    36    55    57    1
    37    17    18   ar
    38    17    16   ar
    39    17    21    1
    40    32    39    1
    41    25    18    1
    42    46    54    1
    43    16     4    1
    44     4     3   ar
    45    35    38    1
    46    50    53    1
    47    12    11    1
    48    12    14    1
    49    21    24    1
    50    21    22    1
    51     2     3   ar
    52     2     1   ar
    53     2     7    1
    54     6     1    1
    55     3    11    1
    56     7    10    1
    57     7     8    1
