@<TRIPOS>MOLECULE
mol_data/noopt/geoms/mol2/12il12il-12il12il-.out
 58 61 0 0 0
SMALL
GASTEIGER

@<TRIPOS>ATOM
      1 C           0.1763    1.8460    0.0000 C.ar    1  LIG1        0.0993
      2 C           1.5558    1.8460    0.0000 C.ar    1  LIG1        0.0297
      3 C           1.9706    3.2334    0.0000 C.ar    1  LIG1        0.1716
      4 C           0.8165    3.9895   -0.0001 C.ar    1  LIG1        0.2116
      5 O          -0.3030    3.1567   -0.0002 O.2     1  LIG1       -0.4557
      6 H          -0.7504    0.9343    0.0000 H       1  LIG1        0.1033
      7 C           2.3517    0.8177    0.0001 C.3     1  LIG1       -0.0332
      8 H           3.2608    1.0704    0.5046 H       1  LIG1        0.0280
      9 H           2.5701    0.5356   -1.0087 H       1  LIG1        0.0280
     10 H           1.8790    0.0009    0.5045 H       1  LIG1        0.0280
     11 O           3.1998    3.6567   -0.0000 O.3     1  LIG1       -0.4909
     12 C           4.0900    2.5376   -0.0001 C.3     1  LIG1        0.0790
     13 H           5.1015    2.8864   -0.0002 H       1  LIG1        0.0660
     14 H           3.9174    1.9445    0.8737 H       1  LIG1        0.0660
     15 H           3.9171    1.9444   -0.8736 H       1  LIG1        0.0660
     16 C           0.5416    5.2601   -0.0001 C.ar    1  LIG1        0.1809
     17 C          -0.6119    6.0167   -0.0001 C.ar    1  LIG1        0.0410
     18 C          -0.1979    7.4043   -0.0001 C.ar    1  LIG1        0.1723
     19 C           1.1818    7.4036   -0.0002 C.ar    1  LIG1        0.2127
     20 O           1.6612    6.0932   -0.0003 O.2     1  LIG1       -0.4444
     21 C          -1.8414    5.5933   -0.0000 C.3     1  LIG1       -0.0325
     22 H          -1.8941    4.6511    0.5044 H       1  LIG1        0.0280
     23 H          -2.1787    5.4770   -1.0089 H       1  LIG1        0.0280
     24 H          -2.4630    6.3032    0.5043 H       1  LIG1        0.0280
     25 O          -0.9936    8.4324   -0.0001 O.3     1  LIG1       -0.4909
     26 C          -0.2197    9.6349   -0.0002 C.3     1  LIG1        0.0790
     27 H          -0.8750   10.4808   -0.0004 H       1  LIG1        0.0660
     28 H           0.3974    9.6619    0.8736 H       1  LIG1        0.0660
     29 H           0.3976    9.6617   -0.8737 H       1  LIG1        0.0660
     30 C           2.1085    8.3153   -0.0002 C.ar    1  LIG1        0.1809
     31 C           3.4880    8.3153   -0.0001 C.ar    1  LIG1        0.0410
     32 C           3.9028    9.7027   -0.0001 C.ar    1  LIG1        0.1723
     33 C           2.7487   10.4588   -0.0002 C.ar    1  LIG1        0.2126
     34 O           1.6292    9.6260   -0.0003 O.2     1  LIG1       -0.4444
     35 C           4.2839    7.2870   -0.0000 C.3     1  LIG1       -0.0325
     36 H           5.1931    7.5396    0.5044 H       1  LIG1        0.0280
     37 H           4.5023    7.0049   -1.0089 H       1  LIG1        0.0280
     38 H           3.8112    6.4702    0.5043 H       1  LIG1        0.0280
     39 O           5.1320   10.1260   -0.0001 O.3     1  LIG1       -0.4909
     40 C           6.0222    9.0068   -0.0002 C.3     1  LIG1        0.0790
     41 H           7.0338    9.3557   -0.0003 H       1  LIG1        0.0660
     42 H           5.8496    8.4137    0.8736 H       1  LIG1        0.0660
     43 H           5.8494    8.4137   -0.8737 H       1  LIG1        0.0660
     44 C           2.4738   11.7294   -0.0002 C.ar    1  LIG1        0.1799
     45 C           1.3203   12.4859   -0.0002 C.ar    1  LIG1        0.0402
     46 C           1.7343   13.8736   -0.0002 C.ar    1  LIG1        0.1612
     47 C           3.1141   13.8729   -0.0003 C.ar    1  LIG1        0.1345
     48 O           3.5935   12.5625   -0.0004 O.2     1  LIG1       -0.4557
     49 H           4.0408   14.7846   -0.0002 H       1  LIG1        0.1068
     50 C           0.0909   12.0625   -0.0001 C.3     1  LIG1       -0.0325
     51 H           0.0381   11.1204    0.5043 H       1  LIG1        0.0280
     52 H          -0.2464   11.9463   -1.0090 H       1  LIG1        0.0280
     53 H          -0.5308   12.7725    0.5042 H       1  LIG1        0.0280
     54 O           0.9386   14.9017   -0.0002 O.3     1  LIG1       -0.4917
     55 C           1.7125   16.1041   -0.0003 C.3     1  LIG1        0.0789
     56 H           1.0573   16.9500   -0.0004 H       1  LIG1        0.0660
     57 H           2.3296   16.1312    0.8735 H       1  LIG1        0.0660
     58 H           2.3298   16.1310   -0.8738 H       1  LIG1        0.0660
@<TRIPOS>BOND
     1    52    50    1
     2    23    21    1
     3    37    35    1
     4     9     7    1
     5    58    55    1
     6    29    26    1
     7    43    40    1
     8    15    12    1
     9    56    55    1
    10    48    47   ar
    11    48    44   ar
    12    27    26    1
    13    34    33   ar
    14    34    30   ar
    15    41    40    1
    16    20    19   ar
    17    20    16   ar
    18    47    49    1
    19    47    46   ar
    20    55    54    1
    21    55    57    1
    22    13    12    1
    23    33    44    1
    24    33    32   ar
    25    45    44   ar
    26    45    46   ar
    27    45    50    1
    28     5     4   ar
    29     5     1   ar
    30    26    25    1
    31    26    28    1
    32    54    46    1
    33    19    30    1
    34    19    18   ar
    35    40    39    1
    36    40    42    1
    37    30    31   ar
    38    50    53    1
    39    50    51    1
    40    31    32   ar
    41    31    35    1
    42    17    18   ar
    43    17    16   ar
    44    17    21    1
    45    25    18    1
    46    32    39    1
    47     4    16    1
    48     4     3   ar
    49    12    11    1
    50    12    14    1
    51    21    24    1
    52    21    22    1
    53    35    38    1
    54    35    36    1
    55     2     3   ar
    56     2     1   ar
    57     2     7    1
    58     3    11    1
    59     6     1    1
    60     7    10    1
    61     7     8    1
