@<TRIPOS>MOLECULE
mol_data/noopt/geoms/mol2/12il.out
 16 16 0 0 0
SMALL
GASTEIGER

@<TRIPOS>ATOM
      1 C           0.1763    1.8460    0.0000 C.ar    1  LIG1        0.0982
      2 C           1.5558    1.8460    0.0000 C.ar    1  LIG1        0.0290
      3 C           1.9706    3.2334    0.0000 C.ar    1  LIG1        0.1605
      4 C           0.8165    3.9895   -0.0001 C.ar    1  LIG1        0.1334
      5 O          -0.3030    3.1567   -0.0002 O.2     1  LIG1       -0.4670
      6 H          -0.7504    0.9343    0.0000 H       1  LIG1        0.1033
      7 H           0.5416    5.2601   -0.0001 H       1  LIG1        0.1067
      8 C           2.3517    0.8177    0.0001 C.3     1  LIG1       -0.0332
      9 H           3.2608    1.0704    0.5046 H       1  LIG1        0.0280
     10 H           2.5701    0.5356   -1.0087 H       1  LIG1        0.0280
     11 H           1.8790    0.0009    0.5045 H       1  LIG1        0.0280
     12 O           3.1998    3.6567   -0.0000 O.3     1  LIG1       -0.4917
     13 C           4.0900    2.5376   -0.0001 C.3     1  LIG1        0.0789
     14 H           5.1015    2.8864   -0.0002 H       1  LIG1        0.0660
     15 H           3.9174    1.9445    0.8737 H       1  LIG1        0.0660
     16 H           3.9171    1.9444   -0.8736 H       1  LIG1        0.0660
@<TRIPOS>BOND
     1    10     8    1
     2    16    13    1
     3    14    13    1
     4     5     4   ar
     5     5     1   ar
     6     4     7    1
     7     4     3   ar
     8    13    12    1
     9    13    15    1
    10     1     2   ar
    11     1     6    1
    12     2     3   ar
    13     2     8    1
    14     3    12    1
    15     8    11    1
    16     8     9    1
