@<TRIPOS>MOLECULE
mol_data/noopt/geoms/mol2/12il12il12il.out
 44 46 0 0 0
SMALL
GASTEIGER

@<TRIPOS>ATOM
      1 C           0.1763    1.8460    0.0000 C.ar    1  LIG1        0.0993
      2 C           1.5558    1.8460    0.0000 C.ar    1  LIG1        0.0297
      3 C           1.9706    3.2334    0.0000 C.ar    1  LIG1        0.1716
      4 C           0.8165    3.9895   -0.0001 C.ar    1  LIG1        0.2116
      5 O          -0.3030    3.1567   -0.0002 O.2     1  LIG1       -0.4557
      6 H          -0.7504    0.9343    0.0000 H       1  LIG1        0.1033
      7 C           2.3517    0.8177    0.0001 C.3     1  LIG1       -0.0332
      8 H           3.2608    1.0704    0.5046 H       1  LIG1        0.0280
      9 H           2.5701    0.5356   -1.0087 H       1  LIG1        0.0280
     10 H           1.8790    0.0009    0.5045 H       1  LIG1        0.0280
     11 O           3.1998    3.6567   -0.0000 O.3     1  LIG1       -0.4909
     12 C           4.0900    2.5376   -0.0001 C.3     1  LIG1        0.0790
     13 H           5.1015    2.8864   -0.0002 H       1  LIG1        0.0660
     14 H           3.9174    1.9445    0.8737 H       1  LIG1        0.0660
     15 H           3.9171    1.9444   -0.8736 H       1  LIG1        0.0660
     16 C           0.5416    5.2601   -0.0001 C.ar    1  LIG1        0.1809
     17 C           1.2792    6.4258   -0.0001 C.ar    1  LIG1        0.0410
     18 C           0.3286    7.5182   -0.0001 C.ar    1  LIG1        0.1723
     19 C          -0.9274    6.9472   -0.0002 C.ar    1  LIG1        0.2126
     20 O          -0.8223    5.5559   -0.0003 O.2     1  LIG1       -0.4444
     21 C           2.5738    6.5485    0.0000 C.3     1  LIG1       -0.0325
     22 H           2.8464    7.4519    0.5045 H       1  LIG1        0.0280
     23 H           2.9289    6.5822   -1.0088 H       1  LIG1        0.0280
     24 H           3.0112    5.7123    0.5044 H       1  LIG1        0.0280
     25 O           0.6282    8.7833   -0.0001 O.3     1  LIG1       -0.4909
     26 C           2.0499    8.9371   -0.0002 C.3     1  LIG1        0.0790
     27 H           2.2960    9.9784   -0.0003 H       1  LIG1        0.0660
     28 H           2.4588    8.4741    0.8736 H       1  LIG1        0.0660
     29 H           2.4588    8.4738   -0.8737 H       1  LIG1        0.0660
     30 C          -2.1481    7.3943   -0.0002 C.ar    1  LIG1        0.1799
     31 C          -2.7387    8.6410   -0.0002 C.ar    1  LIG1        0.0402
     32 C          -4.1701    8.4218   -0.0002 C.ar    1  LIG1        0.1612
     33 C          -4.3593    7.0551   -0.0003 C.ar    1  LIG1        0.1345
     34 O          -3.1273    6.4000   -0.0004 O.2     1  LIG1       -0.4557
     35 H          -5.3898    6.2627   -0.0003 H       1  LIG1        0.1068
     36 C          -2.1502    9.8005   -0.0001 C.3     1  LIG1       -0.0325
     37 H          -2.7678   10.5139    0.5044 H       1  LIG1        0.0280
     38 H          -1.9888   10.1187   -1.0089 H       1  LIG1        0.0280
     39 H          -1.2097    9.7231    0.5043 H       1  LIG1        0.0280
     40 O          -5.0790    9.3514   -0.0002 O.3     1  LIG1       -0.4917
     41 C          -4.4487   10.6350   -0.0003 C.3     1  LIG1        0.0789
     42 H          -5.1971   11.3998   -0.0004 H       1  LIG1        0.0660
     43 H          -3.8389   10.7330    0.8735 H       1  LIG1        0.0660
     44 H          -3.8387   10.7328   -0.8738 H       1  LIG1        0.0660
@<TRIPOS>BOND
     1    38    36    1
     2    23    21    1
     3     9     7    1
     4    44    41    1
     5    29    26    1
     6    15    12    1
     7    42    41    1
     8    34    33   ar
     9    34    30   ar
    10    27    26    1
    11    35    33    1
    12    33    32   ar
    13    20    19   ar
    14    20    16   ar
    15    41    40    1
    16    41    43    1
    17    13    12    1
    18    32    31   ar
    19    32    40    1
    20     5     4   ar
    21     5     1   ar
    22    19    30    1
    23    19    18   ar
    24    30    31   ar
    25    31    36    1
    26    26    25    1
    27    26    28    1
    28    25    18    1
    29    36    39    1
    30    36    37    1
    31     4    16    1
    32     4     3   ar
    33    18    17   ar
    34    17    16   ar
    35    17    21    1
    36    12    11    1
    37    12    14    1
    38    11     3    1
    39     1     6    1
    40     1     2   ar
    41     2     3   ar
    42     2     7    1
    43    21    24    1
    44    21    22    1
    45     7    10    1
    46     7     8    1
