@<TRIPOS>MOLECULE
mol_data/noopt/geoms/mol2/12il13il-6fh13el.out
 57 60 0 0 0
SMALL
GASTEIGER

@<TRIPOS>ATOM
      1 C           0.1763    1.8460    0.0000 C.ar    1  LIG1        0.0992
      2 C           1.5558    1.8460    0.0000 C.ar    1  LIG1        0.0297
      3 C           1.9706    3.2334    0.0000 C.ar    1  LIG1        0.1699
      4 C           0.8165    3.9895   -0.0001 C.ar    1  LIG1        0.1928
      5 O          -0.3030    3.1567   -0.0002 O.2     1  LIG1       -0.4574
      6 H          -0.7504    0.9343    0.0000 H       1  LIG1        0.1033
      7 C           2.3517    0.8177    0.0001 C.3     1  LIG1       -0.0332
      8 H           3.2608    1.0704    0.5046 H       1  LIG1        0.0280
      9 H           2.5701    0.5356   -1.0087 H       1  LIG1        0.0280
     10 H           1.8790    0.0009    0.5045 H       1  LIG1        0.0280
     11 O           3.1998    3.6567   -0.0000 O.3     1  LIG1       -0.4910
     12 C           4.0900    2.5376   -0.0001 C.3     1  LIG1        0.0790
     13 H           5.1015    2.8864   -0.0002 H       1  LIG1        0.0660
     14 H           3.9174    1.9445    0.8737 H       1  LIG1        0.0660
     15 H           3.9171    1.9444   -0.8736 H       1  LIG1        0.0660
     16 C           0.5416    5.2601   -0.0001 C.ar    1  LIG1        0.0927
     17 C           1.3662    6.3409   -0.0005 C.ar    1  LIG1        0.0202
     18 C           0.5391    7.5098    0.0008 C.ar    1  LIG1        0.1490
     19 C          -0.7546    7.0920    0.0002 C.ar    1  LIG1        0.0947
     20 N          -0.7576    5.7154    0.0001 N.ar    1  LIG1       -0.3484
     21 H          -1.5690    5.1412   -0.0005 H       1  LIG1        0.1661
     22 C           2.6662    6.3141   -0.0004 C.3     1  LIG1       -0.0341
     23 H           3.0408    7.1802    0.5041 H       1  LIG1        0.0279
     24 H           3.0229    6.3068   -1.0092 H       1  LIG1        0.0279
     25 H           3.0048    5.4333    0.5040 H       1  LIG1        0.0279
     26 O           0.9464    8.7444    0.0020 O.3     1  LIG1       -0.4927
     27 C           2.3760    8.7754    0.0023 C.3     1  LIG1        0.0789
     28 H           2.7108    9.7917    0.0031 H       1  LIG1        0.0660
     29 H           2.7434    8.2782    0.8758 H       1  LIG1        0.0660
     30 H           2.7437    8.2794   -0.8715 H       1  LIG1        0.0660
     31 C          -3.1036    7.1137    0.0012 C.ar    1  LIG1        0.2225
     32 C          -1.8613    7.7741    0.0007 C.ar    1  LIG1        0.0650
     33 C          -1.8483    9.1701    0.0012 C.ar    1  LIG1       -0.0246
     34 C          -3.0656    9.8534    0.0019 C.ar    1  LIG1        0.0533
     35 C          -4.2564    9.1040    0.0021 C.ar    1  LIG1        0.1128
     36 N          -4.2872    7.7570    0.0019 N.ar    1  LIG1       -0.2091
     37 H          -0.8970    9.7208   -0.0001 H       1  LIG1        0.0645
     38 O          -3.1671    5.8152    0.0009 O.3     1  LIG1       -0.4919
     39 H          -2.2789    5.4509    0.0008 H       1  LIG1        0.2937
     40 N          -3.1069   11.1527    0.0022 N.pl3   1  LIG1       -0.3563
     41 H          -2.3014   11.5119   -0.4692 H       1  LIG1        0.1424
     42 H          -3.9336   11.4600   -0.4692 H       1  LIG1        0.1424
     43 C          -5.4144    9.6946    0.0029 C.ar    1  LIG1        0.0861
     44 C          -5.7301   11.0169    0.0030 C.ar    1  LIG1        0.0930
     45 C          -7.1587   11.1155    0.0051 C.ar    1  LIG1        0.1533
     46 C          -7.6532    9.8492    0.0043 C.ar    1  LIG1        0.0457
     47 N          -6.5887    8.9762    0.0035 N.ar    1  LIG1       -0.3554
     48 H          -6.6572    7.9846    0.0027 H       1  LIG1        0.1655
     49 H          -8.8815    9.4233    0.0054 H       1  LIG1        0.0845
     50 C          -4.8874   12.0067    0.0029 C.1     1  LIG1       -0.0638
     51 C          -4.1087   12.9213    0.0028 C.1     1  LIG1       -0.1137
     52 H          -3.4150   13.7361    0.0028 H       1  LIG1        0.1232
     53 O          -7.8574   12.2118    0.0068 O.3     1  LIG1       -0.4924
     54 C          -6.9772   13.3388    0.0074 C.3     1  LIG1        0.0789
     55 H          -7.5526   14.2409    0.0087 H       1  LIG1        0.0660
     56 H          -6.3595   13.3085    0.8807 H       1  LIG1        0.0660
     57 H          -6.3606   13.3103   -0.8666 H       1  LIG1        0.0660
@<TRIPOS>BOND
     1    24    22    1
     2     9     7    1
     3    15    12    1
     4    30    27    1
     5    57    54    1
     6    42    40    1
     7    41    40    1
     8    21    20    1
     9    17    22    1
    10    17    16   ar
    11    17    18   ar
    12    22    25    1
    13    22    23    1
    14    13    12    1
    15     5     4   ar
    16     5     1   ar
    17    37    33    1
    18     4    16    1
    19     4     3   ar
    20    16    20   ar
    21    12    11    1
    22    12    14    1
    23     1     2   ar
    24     1     6    1
    25     2     3   ar
    26     2     7    1
    27    11     3    1
    28    20    19   ar
    29     7    10    1
    30     7     8    1
    31    19    32    1
    32    19    18   ar
    33    32    31   ar
    34    32    33   ar
    35    39    38    1
    36    18    26    1
    37    38    31    1
    38    31    36   ar
    39    33    34   ar
    40    36    35   ar
    41    34    35   ar
    42    34    40    1
    43    26    27    1
    44    35    43    1
    45    27    28    1
    46    27    29    1
    47    48    47    1
    48    52    51    1
    49    51    50    3
    50    43    44   ar
    51    43    47   ar
    52    50    44    1
    53    44    45   ar
    54    47    46   ar
    55    46    45   ar
    56    46    49    1
    57    45    53    1
    58    53    54    1
    59    54    55    1
    60    54    56    1
