@<TRIPOS>MOLECULE
mol_data/noopt/geoms/mol2/12il12il-12il-12il.out
 58 59 0 0 0
SMALL
GASTEIGER

@<TRIPOS>ATOM
      1 C           0.1763    1.8460    0.0000 C.ar    1  LIG1        0.0993
      2 C           1.5558    1.8460    0.0000 C.ar    1  LIG1        0.0297
      3 C           1.9706    3.2334    0.0000 C.ar    1  LIG1        0.1716
      4 C           0.8165    3.9895   -0.0001 C.ar    1  LIG1        0.2116
      5 O          -0.3030    3.1567   -0.0002 O.2     1  LIG1       -0.4557
      6 H          -0.7504    0.9343    0.0000 H       1  LIG1        0.1033
      7 C           2.3517    0.8177    0.0001 C.3     1  LIG1       -0.0332
      8 H           3.2608    1.0704    0.5046 H       1  LIG1        0.0280
      9 H           2.5701    0.5356   -1.0087 H       1  LIG1        0.0280
     10 H           1.8790    0.0009    0.5045 H       1  LIG1        0.0280
     11 O           3.1998    3.6567   -0.0000 O.3     1  LIG1       -0.4909
     12 C           4.0900    2.5376   -0.0001 C.3     1  LIG1        0.0790
     13 H           5.1015    2.8864   -0.0002 H       1  LIG1        0.0660
     14 H           3.9174    1.9445    0.8737 H       1  LIG1        0.0660
     15 H           3.9171    1.9444   -0.8736 H       1  LIG1        0.0660
     16 C           0.5416    5.2601   -0.0001 C.ar    1  LIG1        0.1811
     17 C          -0.6119    6.0167   -0.0001 C.ar    1  LIG1        0.0460
     18 C          -0.1979    7.4043   -0.0001 C.ar    1  LIG1        0.2310
     19 C           1.1818    7.4036   -0.0002 C.ar    1  LIG1        0.2177
     20 O           1.6612    6.0932   -0.0003 O.2     1  LIG1       -0.4442
     21 C          -1.8414    5.5933   -0.0000 C.3     1  LIG1       -0.0323
     22 H          -1.8941    4.6511    0.5044 H       1  LIG1        0.0280
     23 H          -2.1787    5.4770   -1.0089 H       1  LIG1        0.0280
     24 H          -2.4630    6.3032    0.5043 H       1  LIG1        0.0280
     25 O          -0.9936    8.4324   -0.0001 O.3     1  LIG1       -0.2835
     26 C          -0.2197    9.6349   -0.0002 C.3     2  LIG2       -0.0681
     27 H          -0.8750   10.4808   -0.0004 H       1  LIG1        0.0227
     28 H           0.3974    9.6619    0.8736 H       3  UNK3        0.0000
     29 H           0.3976    9.6617   -0.8737 H       1  LIG1        0.0227
     30 C           2.1085    8.3153   -0.0002 C.ar    1  LIG1        0.1814
     31 C           2.1310    9.6946   -0.0002 C.ar    1  LIG1        0.0443
     32 C           3.5250   10.0867   -0.0001 C.ar    1  LIG1        0.1726
     33 C           4.2622    8.9204   -0.0002 C.ar    1  LIG1        0.2126
     34 O           3.4112    7.8147   -0.0003 O.2     1  LIG1       -0.4444
     35 C           1.1159   10.5071   -0.0001 C.3     1  LIG1       -0.0162
     36 H           0.2915   10.0479    0.5044 H       1  LIG1        0.0227
     37 H           0.8373   10.7300   -1.0089 H       1  LIG1        0.0319
     38 H           1.3834   11.4121    0.5043 H       1  LIG1        0.0319
     39 O           3.9683   11.3088   -0.0001 O.3     1  LIG1       -0.4909
     40 C           5.3983   11.2978   -0.0002 C.3     1  LIG1        0.0790
     41 H           5.7627   12.3039   -0.0003 H       1  LIG1        0.0660
     42 H           5.7511   10.7908    0.8736 H       1  LIG1        0.0660
     43 H           5.7511   10.7906   -0.8737 H       1  LIG1        0.0660
     44 C           5.5281    8.6248   -0.0002 C.ar    1  LIG1        0.1799
     45 C           6.2658    7.4591   -0.0001 C.ar    1  LIG1        0.0402
     46 C           7.6600    7.8504   -0.0001 C.ar    1  LIG1        0.1612
     47 C           7.6818    9.2300   -0.0002 C.ar    1  LIG1        0.1345
     48 O           6.3794    9.7307   -0.0003 O.2     1  LIG1       -0.4557
     49 H           8.6085   10.1417   -0.0002 H       1  LIG1        0.1068
     50 C           5.8224    6.2367   -0.0000 C.3     1  LIG1       -0.0325
     51 H           6.5220    5.6035    0.5044 H       1  LIG1        0.0280
     52 H           5.7008    5.9013   -1.0089 H       1  LIG1        0.0280
     53 H           4.8794    6.1994    0.5043 H       1  LIG1        0.0280
     54 O           8.6749    7.0381   -0.0001 O.3     1  LIG1       -0.4917
     55 C           8.2052    5.6874   -0.0001 C.3     1  LIG1        0.0789
     56 H           9.0409    5.0191   -0.0003 H       1  LIG1        0.0660
     57 H           7.6117    5.5161    0.8736 H       1  LIG1        0.0660
     58 H           7.6115    5.5163   -0.8737 H       1  LIG1        0.0660
@<TRIPOS>BOND
     1    37    35    1
     2    23    21    1
     3    52    50    1
     4     9     7    1
     5    29    26    1
     6    43    40    1
     7    58    55    1
     8    15    12    1
     9    27    26    1
    10    48    47   ar
    11    48    44   ar
    12    41    40    1
    13    34    33   ar
    14    34    30   ar
    15    20    19   ar
    16    20    16   ar
    17    56    55    1
    18    13    12    1
    19    47    49    1
    20    47    46   ar
    21     5     4   ar
    22     5     1   ar
    23    26    36    1
    24    33    44    1
    25    33    32   ar
    26    40    39    1
    27    40    42    1
    28    19    30    1
    29    19    18   ar
    30    44    45   ar
    31    31    30   ar
    32    31    32   ar
    33    31    35    1
    34    45    46   ar
    35    45    50    1
    36    55    54    1
    37    55    57    1
    38    17    18   ar
    39    17    16   ar
    40    17    21    1
    41    32    39    1
    42    25    18    1
    43    16     4    1
    44     4     3   ar
    45    46    54    1
    46    35    38    1
    47    12    11    1
    48    12    14    1
    49    21    24    1
    50    21    22    1
    51    50    53    1
    52    50    51    1
    53     2     3   ar
    54     2     1   ar
    55     2     7    1
    56     6     1    1
    57     3    11    1
    58     7    10    1
    59     7     8    1
