@<TRIPOS>MOLECULE
mol_data/noopt/geoms/mol2/12il12il12il-12il.out
 58 61 0 0 0
SMALL
GASTEIGER

@<TRIPOS>ATOM
      1 C           0.1763    1.8460    0.0000 C.ar    1  LIG1        0.0993
      2 C           1.5558    1.8460    0.0000 C.ar    1  LIG1        0.0297
      3 C           1.9706    3.2334    0.0000 C.ar    1  LIG1        0.1716
      4 C           0.8165    3.9895   -0.0001 C.ar    1  LIG1        0.2116
      5 O          -0.3030    3.1567   -0.0002 O.2     1  LIG1       -0.4557
      6 H          -0.7504    0.9343    0.0000 H       1  LIG1        0.1033
      7 C           2.3517    0.8177    0.0001 C.3     1  LIG1       -0.0332
      8 H           3.2608    1.0704    0.5046 H       1  LIG1        0.0280
      9 H           2.5701    0.5356   -1.0087 H       1  LIG1        0.0280
     10 H           1.8790    0.0009    0.5045 H       1  LIG1        0.0280
     11 O           3.1998    3.6567   -0.0000 O.3     1  LIG1       -0.4909
     12 C           4.0900    2.5376   -0.0001 C.3     1  LIG1        0.0790
     13 H           5.1015    2.8864   -0.0002 H       1  LIG1        0.0660
     14 H           3.9174    1.9445    0.8737 H       1  LIG1        0.0660
     15 H           3.9171    1.9444   -0.8736 H       1  LIG1        0.0660
     16 C           0.5416    5.2601   -0.0001 C.ar    1  LIG1        0.1809
     17 C           1.2792    6.4258   -0.0001 C.ar    1  LIG1        0.0410
     18 C           0.3286    7.5182   -0.0001 C.ar    1  LIG1        0.1723
     19 C          -0.9274    6.9472   -0.0002 C.ar    1  LIG1        0.2127
     20 O          -0.8223    5.5559   -0.0003 O.2     1  LIG1       -0.4444
     21 C           2.5738    6.5485    0.0000 C.3     1  LIG1       -0.0325
     22 H           2.8464    7.4519    0.5045 H       1  LIG1        0.0280
     23 H           2.9289    6.5822   -1.0088 H       1  LIG1        0.0280
     24 H           3.0112    5.7123    0.5044 H       1  LIG1        0.0280
     25 O           0.6282    8.7833   -0.0001 O.3     1  LIG1       -0.4909
     26 C           2.0499    8.9371   -0.0002 C.3     1  LIG1        0.0790
     27 H           2.2960    9.9784   -0.0003 H       1  LIG1        0.0660
     28 H           2.4588    8.4741    0.8736 H       1  LIG1        0.0660
     29 H           2.4588    8.4738   -0.8737 H       1  LIG1        0.0660
     30 C          -2.1481    7.3943   -0.0002 C.ar    1  LIG1        0.1809
     31 C          -3.4042    6.8241   -0.0002 C.ar    1  LIG1        0.0410
     32 C          -4.3554    7.9160   -0.0002 C.ar    1  LIG1        0.1723
     33 C          -3.6171    9.0815   -0.0003 C.ar    1  LIG1        0.2126
     34 O          -2.2534    8.7859   -0.0004 O.2     1  LIG1       -0.4444
     35 C          -3.7038    5.5588   -0.0001 C.3     1  LIG1       -0.0325
     36 H          -2.9359    5.0104    0.5043 H       1  LIG1        0.0280
     37 H          -3.7860    5.2116   -1.0090 H       1  LIG1        0.0280
     38 H          -4.6362    5.4131    0.5042 H       1  LIG1        0.0280
     39 O          -5.6497    7.7933   -0.0002 O.3     1  LIG1       -0.4909
     40 C          -6.2520    9.0903   -0.0003 C.3     1  LIG1        0.0790
     41 H          -7.3172    8.9889   -0.0005 H       1  LIG1        0.0660
     42 H          -5.9449    9.6262    0.8735 H       1  LIG1        0.0660
     43 H          -5.9446    9.6263   -0.8738 H       1  LIG1        0.0660
     44 C          -3.8920   10.3521   -0.0003 C.ar    1  LIG1        0.1799
     45 C          -3.1543   11.5178   -0.0002 C.ar    1  LIG1        0.0402
     46 C          -4.1049   12.6102   -0.0002 C.ar    1  LIG1        0.1612
     47 C          -5.3610   12.0393   -0.0003 C.ar    1  LIG1        0.1345
     48 O          -5.2558   10.6479   -0.0004 O.2     1  LIG1       -0.4557
     49 H          -6.5817   12.4864   -0.0003 H       1  LIG1        0.1068
     50 C          -1.8598   11.6405   -0.0001 C.3     1  LIG1       -0.0325
     51 H          -1.5872   12.5439    0.5043 H       1  LIG1        0.0280
     52 H          -1.5046   11.6742   -1.0090 H       1  LIG1        0.0280
     53 H          -1.4224   10.8044    0.5042 H       1  LIG1        0.0280
     54 O          -3.8054   13.8753   -0.0002 O.3     1  LIG1       -0.4917
     55 C          -2.3837   14.0291   -0.0003 C.3     1  LIG1        0.0789
     56 H          -2.1375   15.0704   -0.0004 H       1  LIG1        0.0660
     57 H          -1.9747   13.5661    0.8735 H       1  LIG1        0.0660
     58 H          -1.9748   13.5659   -0.8738 H       1  LIG1        0.0660
@<TRIPOS>BOND
     1    37    35    1
     2    52    50    1
     3    23    21    1
     4     9     7    1
     5    43    40    1
     6    58    55    1
     7    29    26    1
     8    15    12    1
     9    41    40    1
    10    48    47   ar
    11    48    44   ar
    12    56    55    1
    13    34    33   ar
    14    34    30   ar
    15    27    26    1
    16    47    49    1
    17    47    46   ar
    18    20    19   ar
    19    20    16   ar
    20    40    39    1
    21    40    42    1
    22    33    44    1
    23    33    32   ar
    24    55    54    1
    25    55    57    1
    26    44    45   ar
    27    13    12    1
    28    45    46   ar
    29    45    50    1
    30    31    32   ar
    31    31    30   ar
    32    31    35    1
    33    39    32    1
    34    46    54    1
    35    30    19    1
    36     5     4   ar
    37     5     1   ar
    38    19    18   ar
    39    26    25    1
    40    26    28    1
    41    35    38    1
    42    35    36    1
    43    50    53    1
    44    50    51    1
    45     4    16    1
    46     4     3   ar
    47    25    18    1
    48    18    17   ar
    49    17    16   ar
    50    17    21    1
    51    12    11    1
    52    12    14    1
    53     3    11    1
    54     3     2   ar
    55     6     1    1
    56     2     1   ar
    57     2     7    1
    58    21    24    1
    59    21    22    1
    60     7    10    1
    61     7     8    1
