@<TRIPOS>MOLECULE
mol_data/noopt/geoms/mol2/12il13dd-4dd-12fi-.out
 49 53 0 0 0
SMALL
GASTEIGER

@<TRIPOS>ATOM
      1 C           0.1763    1.8460    0.0000 C.ar    1  LIG1        0.0992
      2 C           1.5558    1.8460    0.0000 C.ar    1  LIG1        0.0297
      3 C           1.9706    3.2334    0.0000 C.ar    1  LIG1        0.1700
      4 C           0.8165    3.9895   -0.0001 C.ar    1  LIG1        0.1937
      5 O          -0.3030    3.1567   -0.0002 O.2     1  LIG1       -0.4574
      6 H          -0.7504    0.9343    0.0000 H       1  LIG1        0.1033
      7 C           2.3517    0.8177    0.0001 C.3     1  LIG1       -0.0332
      8 H           3.2608    1.0704    0.5046 H       1  LIG1        0.0280
      9 H           2.5701    0.5356   -1.0087 H       1  LIG1        0.0280
     10 H           1.8790    0.0009    0.5045 H       1  LIG1        0.0280
     11 O           3.1998    3.6567   -0.0000 O.3     1  LIG1       -0.4910
     12 C           4.0900    2.5376   -0.0001 C.3     1  LIG1        0.0790
     13 H           5.1015    2.8864   -0.0002 H       1  LIG1        0.0660
     14 H           3.9174    1.9445    0.8737 H       1  LIG1        0.0660
     15 H           3.9171    1.9444   -0.8736 H       1  LIG1        0.0660
     16 C           0.5416    5.2601   -0.0001 C.ar    1  LIG1        0.1041
     17 C           1.3662    6.3409   -0.0005 C.ar    1  LIG1        0.0859
     18 C           0.5391    7.5098    0.0008 C.ar    1  LIG1        0.0235
     19 C          -0.7546    7.0920    0.0002 C.ar    1  LIG1        0.0539
     20 N          -0.7576    5.7154    0.0001 N.ar    1  LIG1       -0.3503
     21 H          -1.5690    5.1412   -0.0005 H       1  LIG1        0.1660
     22 N           3.8123    6.2905   -0.0003 N.1     1  LIG1       -0.1908
     23 C           2.6659    6.3141   -0.0004 C.1     1  LIG1        0.1017
     24 N           1.3056    9.8333    0.0030 N.3     1  LIG1       -0.1261
     25 C           0.9463    8.7444    0.0020 C.3     1  LIG1        0.1378
     26 C          -1.8180    9.1831    0.0231 C.ar    1  LIG1       -0.0100
     27 C          -3.0442    9.8757    0.0243 C.ar    1  LIG1       -0.0439
     28 C          -1.8613    7.7740    0.0007 C.ar    1  LIG1        0.0051
     29 C          -4.2608    9.1975    0.0035 C.ar    1  LIG1        0.0386
     30 H          -3.0338   10.9633    0.0416 H       1  LIG1        0.0628
     31 C          -3.0755    7.0964   -0.0200 C.ar    1  LIG1       -0.0342
     32 C          -4.2831    7.8024   -0.0189 C.ar    1  LIG1        0.0632
     33 H          -3.0825    6.0096   -0.0370 H       1  LIG1        0.0637
     34 N           0.2574   10.4781    0.0603 N.3     1  LIG1       -0.1262
     35 C          -0.7153    9.8712    0.0429 C.3     1  LIG1        0.1351
     36 N          -6.4136    6.6002   -0.0553 N.1     1  LIG1       -0.1908
     37 C          -5.4151    7.1636   -0.0382 C.1     1  LIG1        0.0999
     38 C          -5.3741    9.8687    0.0051 C.ar    1  LIG1        0.1774
     39 C          -5.7168   11.2049    0.0211 C.ar    1  LIG1        0.1656
     40 C          -7.1637   11.2622    0.0121 C.ar    1  LIG1        0.0294
     41 C          -7.6094    9.9566   -0.0090 C.ar    1  LIG1        0.0991
     42 O          -6.5247    9.0790   -0.0138 O.2     1  LIG1       -0.4588
     43 H          -8.7719    9.3749   -0.0249 H       1  LIG1        0.1033
     44 O          -4.9186   12.2308    0.0408 O.3     1  LIG1       -0.5030
     45 H          -5.4361   13.0394    0.0456 H       1  LIG1        0.2923
     46 C          -7.8792   12.3479    0.0221 C.3     1  LIG1       -0.0332
     47 H          -8.8028   12.1617    0.5293 H       1  LIG1        0.0280
     48 H          -8.0798   12.6522   -0.9840 H       1  LIG1        0.0280
     49 H          -7.3438   13.1232    0.5292 H       1  LIG1        0.0280
@<TRIPOS>BOND
     1     9     7    1
     2    48    46    1
     3    15    12    1
     4    36    37    3
     5    37    32    1
     6    33    31    1
     7    43    41    1
     8    31    32   ar
     9    31    28   ar
    10    32    29   ar
    11    42    41   ar
    12    42    38   ar
    13    41    40   ar
    14    21    20    1
    15    17    23    1
    16    17    16   ar
    17    17    18   ar
    18    23    22    3
    19    13    12    1
    20     5     4   ar
    21     5     1   ar
    22    16     4    1
    23    16    20   ar
    24     4     3   ar
    25    12    11    1
    26    12    14    1
    27    11     3    1
    28     1     6    1
    29     1     2   ar
    30     3     2   ar
    31     2     7    1
    32    20    19   ar
    33     7    10    1
    34     7     8    1
    35    19    28    1
    36    19    18   ar
    37    28    26   ar
    38    18    25    1
    39    25    24    1
    40    24    34    1
    41    29    38    1
    42    29    27   ar
    43    38    39   ar
    44    40    39   ar
    45    40    46    1
    46    39    44    1
    47    46    49    1
    48    46    47    1
    49    26    27   ar
    50    26    35    1
    51    27    30    1
    52    44    45    1
    53    35    34    1
