@<TRIPOS>MOLECULE
mol_data/noopt/geoms/mol2/12il12il12il-12il-.out
 58 59 0 0 0
SMALL
GASTEIGER

@<TRIPOS>ATOM
      1 C           0.1763    1.8460    0.0000 C.ar    1  LIG1        0.0993
      2 C           1.5558    1.8460    0.0000 C.ar    1  LIG1        0.0297
      3 C           1.9706    3.2334    0.0000 C.ar    1  LIG1        0.1716
      4 C           0.8165    3.9895   -0.0001 C.ar    1  LIG1        0.2116
      5 O          -0.3030    3.1567   -0.0002 O.2     1  LIG1       -0.4557
      6 H          -0.7504    0.9343    0.0000 H       1  LIG1        0.1033
      7 C           2.3517    0.8177    0.0001 C.3     1  LIG1       -0.0332
      8 H           3.2608    1.0704    0.5046 H       1  LIG1        0.0280
      9 H           2.5701    0.5356   -1.0087 H       1  LIG1        0.0280
     10 H           1.8790    0.0009    0.5045 H       1  LIG1        0.0280
     11 O           3.1998    3.6567   -0.0000 O.3     1  LIG1       -0.4909
     12 C           4.0900    2.5376   -0.0001 C.3     1  LIG1        0.0790
     13 H           5.1015    2.8864   -0.0002 H       1  LIG1        0.0660
     14 H           3.9174    1.9445    0.8737 H       1  LIG1        0.0660
     15 H           3.9171    1.9444   -0.8736 H       1  LIG1        0.0660
     16 C           0.5416    5.2601   -0.0001 C.ar    1  LIG1        0.1809
     17 C           1.2792    6.4258   -0.0001 C.ar    1  LIG1        0.0410
     18 C           0.3286    7.5182   -0.0001 C.ar    1  LIG1        0.1723
     19 C          -0.9274    6.9472   -0.0002 C.ar    1  LIG1        0.2127
     20 O          -0.8223    5.5559   -0.0003 O.2     1  LIG1       -0.4444
     21 C           2.5738    6.5485    0.0000 C.3     1  LIG1       -0.0325
     22 H           2.8464    7.4519    0.5045 H       1  LIG1        0.0280
     23 H           2.9289    6.5822   -1.0088 H       1  LIG1        0.0280
     24 H           3.0112    5.7123    0.5044 H       1  LIG1        0.0280
     25 O           0.6282    8.7833   -0.0001 O.3     1  LIG1       -0.4909
     26 C           2.0499    8.9371   -0.0002 C.3     1  LIG1        0.0790
     27 H           2.2960    9.9784   -0.0003 H       1  LIG1        0.0660
     28 H           2.4588    8.4741    0.8736 H       1  LIG1        0.0660
     29 H           2.4588    8.4738   -0.8737 H       1  LIG1        0.0660
     30 C          -2.1481    7.3943   -0.0002 C.ar    1  LIG1        0.1811
     31 C          -3.4042    6.8241   -0.0002 C.ar    1  LIG1        0.0460
     32 C          -4.3554    7.9160   -0.0002 C.ar    1  LIG1        0.2310
     33 C          -3.6171    9.0815   -0.0003 C.ar    1  LIG1        0.2177
     34 O          -2.2534    8.7859   -0.0004 O.2     1  LIG1       -0.4442
     35 C          -3.7038    5.5588   -0.0001 C.3     1  LIG1       -0.0323
     36 H          -2.9359    5.0104    0.5043 H       1  LIG1        0.0280
     37 H          -3.7860    5.2116   -1.0090 H       1  LIG1        0.0280
     38 H          -4.6362    5.4131    0.5042 H       1  LIG1        0.0280
     39 O          -5.6497    7.7933   -0.0002 O.3     1  LIG1       -0.2835
     40 C          -6.2520    9.0903   -0.0003 C.3     2  LIG2       -0.0681
     41 H          -7.3172    8.9889   -0.0005 H       1  LIG1        0.0227
     42 H          -5.9449    9.6262    0.8735 H       3  UNK3        0.0000
     43 H          -5.9446    9.6263   -0.8738 H       1  LIG1        0.0227
     44 C          -3.8920   10.3521   -0.0003 C.ar    1  LIG1        0.1803
     45 C          -5.0455   11.1087   -0.0003 C.ar    1  LIG1        0.0436
     46 C          -4.6315   12.4963   -0.0002 C.ar    1  LIG1        0.1615
     47 C          -3.2517   12.4956   -0.0003 C.ar    1  LIG1        0.1345
     48 O          -2.7723   11.1852   -0.0004 O.2     1  LIG1       -0.4557
     49 H          -2.3250   13.4073   -0.0003 H       1  LIG1        0.1068
     50 C          -6.2750   10.6853   -0.0002 C.3     1  LIG1       -0.0163
     51 H          -6.3277    9.7431    0.5043 H       1  LIG1        0.0227
     52 H          -6.6122   10.5690   -1.0090 H       1  LIG1        0.0319
     53 H          -6.8966   11.3952    0.5042 H       1  LIG1        0.0319
     54 O          -5.4272   13.5244   -0.0002 O.3     1  LIG1       -0.4917
     55 C          -4.6533   14.7269   -0.0003 C.3     1  LIG1        0.0789
     56 H          -5.3085   15.5728   -0.0004 H       1  LIG1        0.0660
     57 H          -4.0361   14.7539    0.8735 H       1  LIG1        0.0660
     58 H          -4.0360   14.7537   -0.8738 H       1  LIG1        0.0660
@<TRIPOS>BOND
     1    52    50    1
     2    37    35    1
     3    23    21    1
     4     9     7    1
     5    43    40    1
     6    58    55    1
     7    29    26    1
     8    15    12    1
     9    41    40    1
    10    56    55    1
    11    48    47   ar
    12    48    44   ar
    13    34    33   ar
    14    34    30   ar
    15    27    26    1
    16    20    19   ar
    17    20    16   ar
    18    40    51    1
    19    47    49    1
    20    47    46   ar
    21    55    54    1
    22    55    57    1
    23    33    44    1
    24    33    32   ar
    25    45    44   ar
    26    45    46   ar
    27    45    50    1
    28    13    12    1
    29    31    32   ar
    30    31    30   ar
    31    31    35    1
    32    46    54    1
    33    39    32    1
    34    30    19    1
    35     5     4   ar
    36     5     1   ar
    37    19    18   ar
    38    50    53    1
    39    26    25    1
    40    26    28    1
    41    35    38    1
    42    35    36    1
    43     4    16    1
    44     4     3   ar
    45    25    18    1
    46    18    17   ar
    47    17    16   ar
    48    17    21    1
    49    12    11    1
    50    12    14    1
    51     3    11    1
    52     3     2   ar
    53     6     1    1
    54     2     1   ar
    55     2     7    1
    56    21    24    1
    57    21    22    1
    58     7    10    1
    59     7     8    1
