@<TRIPOS>MOLECULE
mol_data/noopt/geoms/mol2/12il12il-.out
 30 31 0 0 0
SMALL
GASTEIGER

@<TRIPOS>ATOM
      1 C           0.1763    1.8460    0.0000 C.ar    1  LIG1        0.0993
      2 C           1.5558    1.8460    0.0000 C.ar    1  LIG1        0.0297
      3 C           1.9706    3.2334    0.0000 C.ar    1  LIG1        0.1716
      4 C           0.8165    3.9895   -0.0001 C.ar    1  LIG1        0.2116
      5 O          -0.3030    3.1567   -0.0002 O.2     1  LIG1       -0.4557
      6 H          -0.7504    0.9343    0.0000 H       1  LIG1        0.1033
      7 C           2.3517    0.8177    0.0001 C.3     1  LIG1       -0.0332
      8 H           3.2608    1.0704    0.5046 H       1  LIG1        0.0280
      9 H           2.5701    0.5356   -1.0087 H       1  LIG1        0.0280
     10 H           1.8790    0.0009    0.5045 H       1  LIG1        0.0280
     11 O           3.1998    3.6567   -0.0000 O.3     1  LIG1       -0.4909
     12 C           4.0900    2.5376   -0.0001 C.3     1  LIG1        0.0790
     13 H           5.1015    2.8864   -0.0002 H       1  LIG1        0.0660
     14 H           3.9174    1.9445    0.8737 H       1  LIG1        0.0660
     15 H           3.9171    1.9444   -0.8736 H       1  LIG1        0.0660
     16 C           0.5416    5.2601   -0.0001 C.ar    1  LIG1        0.1799
     17 C          -0.6119    6.0167   -0.0001 C.ar    1  LIG1        0.0402
     18 C          -0.1979    7.4043   -0.0001 C.ar    1  LIG1        0.1612
     19 C           1.1818    7.4036   -0.0002 C.ar    1  LIG1        0.1345
     20 O           1.6612    6.0932   -0.0003 O.2     1  LIG1       -0.4557
     21 H           2.1085    8.3153   -0.0002 H       1  LIG1        0.1068
     22 C          -1.8414    5.5933   -0.0000 C.3     1  LIG1       -0.0325
     23 H          -1.8941    4.6511    0.5044 H       1  LIG1        0.0280
     24 H          -2.1787    5.4770   -1.0089 H       1  LIG1        0.0280
     25 H          -2.4630    6.3032    0.5043 H       1  LIG1        0.0280
     26 O          -0.9936    8.4324   -0.0001 O.3     1  LIG1       -0.4917
     27 C          -0.2197    9.6349   -0.0002 C.3     1  LIG1        0.0789
     28 H          -0.8750   10.4808   -0.0004 H       1  LIG1        0.0660
     29 H           0.3974    9.6619    0.8736 H       1  LIG1        0.0660
     30 H           0.3976    9.6617   -0.8737 H       1  LIG1        0.0660
@<TRIPOS>BOND
     1    24    22    1
     2     9     7    1
     3    30    27    1
     4    15    12    1
     5    28    27    1
     6    20    19   ar
     7    20    16   ar
     8    13    12    1
     9     5     4   ar
    10     5     1   ar
    11    27    26    1
    12    27    29    1
    13    19    21    1
    14    19    18   ar
    15    17    18   ar
    16    17    16   ar
    17    17    22    1
    18    26    18    1
    19    16     4    1
    20     4     3   ar
    21    12    11    1
    22    12    14    1
    23    22    25    1
    24    22    23    1
    25     1     6    1
    26     1     2   ar
    27    11     3    1
    28     3     2   ar
    29     2     7    1
    30     7    10    1
    31     7     8    1
