@<TRIPOS>MOLECULE
mol_data/noopt/geoms/mol2/12la12la-12la.out
 35 37 0 0 0
SMALL
GASTEIGER

@<TRIPOS>ATOM
      1 C           0.1763    1.8460    0.0000 C.ar    1  LIG1        0.1342
      2 C           1.5558    1.8460    0.0000 C.ar    1  LIG1        0.1583
      3 C           1.9706    3.2334    0.0000 C.ar    1  LIG1        0.0292
      4 C           0.8165    3.9895   -0.0001 C.ar    1  LIG1        0.1770
      5 O          -0.3030    3.1567   -0.0002 O.2     1  LIG1       -0.4560
      6 H          -0.7504    0.9343    0.0000 H       1  LIG1        0.1068
      7 O           2.3515    0.8179    0.0001 O.3     1  LIG1       -0.4919
      8 C           1.5776   -0.3846    0.0001 C.3     1  LIG1        0.0789
      9 H           2.2328   -1.2305   -0.0000 H       1  LIG1        0.0660
     10 H           0.9604   -0.4116    0.8738 H       1  LIG1        0.0660
     11 H           0.9604   -0.4115   -0.8735 H       1  LIG1        0.0660
     12 H           3.1998    3.6567    0.0000 H       1  LIG1        0.0693
     13 C           0.5416    5.2601   -0.0001 C.ar    1  LIG1        0.2121
     14 C          -0.6119    6.0167   -0.0001 C.ar    1  LIG1        0.1694
     15 C          -0.1979    7.4043   -0.0001 C.ar    1  LIG1        0.0300
     16 C           1.1818    7.4036   -0.0002 C.ar    1  LIG1        0.1780
     17 O           1.6612    6.0932   -0.0003 O.2     1  LIG1       -0.4447
     18 O          -1.8411    5.5933   -0.0000 O.3     1  LIG1       -0.4912
     19 C          -2.7313    6.7125   -0.0001 C.3     1  LIG1        0.0790
     20 H          -3.7429    6.3637   -0.0002 H       1  LIG1        0.0660
     21 H          -2.5587    7.3056    0.8736 H       1  LIG1        0.0660
     22 H          -2.5585    7.3057   -0.8737 H       1  LIG1        0.0660
     23 H          -0.9936    8.4323   -0.0001 H       1  LIG1        0.0694
     24 C           2.1085    8.3153   -0.0002 C.ar    1  LIG1        0.2111
     25 C           3.4880    8.3153   -0.0001 C.ar    1  LIG1        0.1687
     26 C           3.9028    9.7027   -0.0001 C.ar    1  LIG1        0.0187
     27 C           2.7487   10.4588   -0.0002 C.ar    1  LIG1        0.0964
     28 O           1.6292    9.6260   -0.0003 O.2     1  LIG1       -0.4560
     29 H           2.4738   11.7294   -0.0002 H       1  LIG1        0.1031
     30 O           4.2837    7.2872   -0.0000 O.3     1  LIG1       -0.4912
     31 C           3.5098    6.0847   -0.0001 C.3     1  LIG1        0.0790
     32 H           4.1651    5.2388   -0.0002 H       1  LIG1        0.0660
     33 H           2.8927    6.0577    0.8737 H       1  LIG1        0.0660
     34 H           2.8926    6.0578   -0.8736 H       1  LIG1        0.0660
     35 H           5.1320   10.1260   -0.0001 H       1  LIG1        0.0686
@<TRIPOS>BOND
     1    22    19    1
     2    34    31    1
     3    11     8    1
     4    28    27   ar
     5    28    24   ar
     6    17    16   ar
     7    17    13   ar
     8    27    29    1
     9    27    26   ar
    10     5     4   ar
    11     5     1   ar
    12    20    19    1
    13    16    24    1
    14    16    15   ar
    15    32    31    1
    16    24    25   ar
    17    25    26   ar
    18    25    30    1
    19    14    15   ar
    20    14    13   ar
    21    14    18    1
    22    23    15    1
    23    26    35    1
    24    13     4    1
    25     4     3   ar
    26    19    18    1
    27    19    21    1
    28    31    30    1
    29    31    33    1
    30     9     8    1
    31     1     6    1
    32     1     2   ar
    33    12     3    1
    34     3     2   ar
    35     2     7    1
    36     8     7    1
    37     8    10    1
