@<TRIPOS>MOLECULE
mol_data/noopt/geoms/mol2/12la6fi-13hi4le6ah13dl12he6he.out
 103 105 0 0 0
SMALL
GASTEIGER

@<TRIPOS>ATOM
      1 C           0.1763    1.8460    0.0000 C.2     1  LIG1       -0.0164
      2 C           1.5558    1.8460    0.0000 C.2     1  LIG1        0.1239
      3 C           1.9706    3.2334    0.0000 C.2     1  LIG1        0.0275
      4 C           0.8165    3.9895   -0.0001 C.2     1  LIG1        0.1946
      5 O          -0.3030    3.1567   -0.0002 O.2     1  LIG1       -0.2870
      6 H          -0.7504    0.9343    0.0000 H       1  LIG1        0.0655
      7 O           2.3515    0.8179    0.0001 O.2     1  LIG1       -0.4950
      8 C           1.5776   -0.3846    0.0001 C.3     1  LIG1        0.0788
      9 H           2.2328   -1.2305   -0.0000 H       1  LIG1        0.0660
     10 H           0.9604   -0.4116    0.8738 H       1  LIG1        0.0660
     11 H           0.9604   -0.4115   -0.8735 H       1  LIG1        0.0660
     12 H           3.1998    3.6567    0.0000 H       1  LIG1        0.0693
     13 C          -0.7951    5.6985   -0.0211 C.ar    1  LIG1        0.2240
     14 C           0.5416    5.2601   -0.0001 C.ar    1  LIG1        0.0837
     15 C           1.5571    6.2179    0.0209 C.ar    1  LIG1       -0.0359
     16 C           1.2066    7.5691    0.0200 C.ar    1  LIG1        0.0126
     17 C          -0.1586    7.9086   -0.0020 C.ar    1  LIG1        0.1005
     18 N          -1.1512    6.9977   -0.0223 N.ar    1  LIG1       -0.2103
     19 H           2.6132    5.9133    0.0367 H       1  LIG1        0.0633
     20 O          -1.7753    4.8448   -0.0410 O.3     1  LIG1       -0.4919
     21 H          -1.4226    3.9519   -0.0459 H       1  LIG1        0.2938
     22 C           2.1150    8.4992    0.0389 C.3     2  LIG2       -0.0681
     23 H           1.7341    9.3595    0.5485 H       1  LIG1        0.0227
     24 H           2.3744    8.7649   -0.9646 H       1  LIG1        0.0227
     25 H           2.9841    8.1387    0.5484 H       1  LIG1        0.0227
     26 C          -0.5350    9.1530   -0.0037 C.2     1  LIG1        0.0886
     27 C           0.1997   10.2966    0.0115 C.2     1  LIG1        0.0733
     28 C          -0.7188   11.3952    0.0021 C.3     1  LIG1        0.0499
     29 C          -1.9744   10.8746   -0.0201 C.2     1  LIG1        0.0365
     30 N          -1.8664    9.5021   -0.0232 N.2     1  LIG1       -0.3542
     31 H          -2.6289    8.8645   -0.0380 H       1  LIG1        0.1657
     32 N           1.4973   10.3746    0.0322 N.pl3   1  LIG1       -0.3548
     33 H           1.8864    9.5800   -0.4338 H       1  LIG1        0.1424
     34 H           1.7885   11.2100   -0.4338 H       1  LIG1        0.1424
     35 C          -0.4123   12.6588    0.0124 C.3     3  LIG3       -0.0681
     36 H          -1.1782   13.2075    0.5197 H       3  LIG3        0.0227
     37 H          -0.3264   13.0132   -0.9935 H       2  LIG2        0.0227
     38 H           0.5199   12.7955    0.5196 H       2  LIG2        0.0227
     39 C          -3.2025   12.8733   -0.0434 C.ar    1  LIG1        0.1884
     40 C          -4.4804   13.4650   -0.0588 C.ar    1  LIG1       -0.0054
     41 C          -3.1323   11.4652   -0.0357 C.ar    1  LIG1        0.0426
     42 C          -5.6385   12.6908   -0.0669 C.ar    1  LIG1        0.0027
     43 H          -4.5574   14.5500   -0.0648 H       1  LIG1        0.0662
     44 C          -4.2881   10.6919   -0.0437 C.ar    1  LIG1       -0.0333
     45 C          -5.5485   11.2983   -0.0594 C.ar    1  LIG1        0.0333
     46 H          -4.2077    9.6079   -0.0375 H       1  LIG1        0.0638
     47 O          -2.1586   13.6482   -0.0368 O.3     1  LIG1       -0.2872
     48 C          -0.9719   12.8502   -0.0344 C.3     4  LIG4       -0.0681
     49 H          -0.1130   13.4883   -0.0291 H       2  LIG2        0.0227
     50 H          -0.9609   12.2300    0.8375 H       3  LIG3        0.0227
     51 H          -0.9539   12.2352   -0.9098 H       3  LIG3        0.0227
     52 C          -6.6255   10.5703   -0.0667 C.1     1  LIG1       -0.0690
     53 C          -7.6206    9.8976   -0.0735 C.1     1  LIG1       -0.1139
     54 H          -8.5071    9.2984   -0.0794 H       1  LIG1        0.1232
     55 C          -7.9798   12.5006   -0.0889 C.ar    1  LIG1        0.0362
     56 C          -6.8021   13.2703   -0.0812 C.ar    1  LIG1        0.0033
     57 C          -6.9151   14.6618   -0.0890 C.ar    1  LIG1       -0.0297
     58 C          -8.1889   15.2325   -0.1042 C.ar    1  LIG1        0.0530
     59 C          -9.3072   14.3788   -0.1111 C.ar    1  LIG1        0.1090
     60 N          -9.2165   13.0345   -0.1036 N.ar    1  LIG1       -0.2510
     61 H          -6.0173   15.2960   -0.0843 H       1  LIG1        0.0643
     62 H          -7.9260   11.2017   -0.0820 H       1  LIG1        0.0836
     63 N          -8.3471   16.5228   -0.1122 N.pl3   1  LIG1       -0.3563
     64 H          -7.5769   16.9502   -0.5856 H       1  LIG1        0.1424
     65 H          -9.1977   16.7514   -0.5856 H       1  LIG1        0.1424
     66 C         -10.5137   14.8626   -0.1252 C.ar    1  LIG1        0.0885
     67 C         -10.9473   16.1509   -0.1351 C.ar    1  LIG1        0.1208
     68 C         -12.3789   16.1204   -0.1481 C.ar    1  LIG1        0.1663
     69 C         -12.7572   14.8147   -0.1473 C.ar    1  LIG1        0.1280
     70 N         -11.6184   14.0412   -0.1328 N.ar    1  LIG1       -0.3465
     71 H         -11.5973   13.0474   -0.1292 H       1  LIG1        0.1662
     72 N          -9.5357   18.1493   -0.1288 N.1     1  LIG1       -0.1907
     73 C         -10.1972   17.2128   -0.1318 C.1     1  LIG1        0.1050
     74 O         -13.1735   17.1492   -0.1591 O.3     1  LIG1       -0.4916
     75 C         -12.3985   18.3509   -0.1632 C.3     1  LIG1        0.0789
     76 H         -13.0529   19.1974   -0.1725 H       1  LIG1        0.0660
     77 H         -11.7859   18.3833    0.7135 H       1  LIG1        0.0660
     78 H         -11.7766   18.3713   -1.0337 H       1  LIG1        0.0660
     79 C         -13.9420   14.2797   -0.1565 C.ar    1  LIG1        0.1771
     80 C         -15.2364   14.7567   -0.1487 C.ar    1  LIG1        0.0888
     81 C         -16.1054   13.5985   -0.1683 C.ar    1  LIG1        0.0918
     82 C         -15.2839   12.4901   -0.1870 C.ar    1  LIG1        0.1562
     83 O         -13.9455   12.8843   -0.1802 O.2     1  LIG1       -0.4499
     84 N         -15.6275   15.9963   -0.1278 N.pl3   1  LIG1       -0.3540
     85 H         -14.9514   16.5670   -0.5937 H       1  LIG1        0.1425
     86 H         -16.5087   16.0757   -0.5938 H       1  LIG1        0.1425
     87 C         -17.4051   13.6263   -0.1681 C.1     1  LIG1       -0.0640
     88 C         -18.6060   13.6521   -0.1679 C.1     1  LIG1       -0.1137
     89 H         -19.6758   13.6750   -0.1677 H       1  LIG1        0.1232
     90 C         -14.3625   10.3295   -0.2204 C.ar    1  LIG1        0.1270
     91 C         -15.4653   11.2030   -0.2087 C.ar    1  LIG1        0.0592
     92 C         -16.7496   10.6556   -0.2206 C.ar    1  LIG1       -0.0309
     93 C         -16.8879    9.2667   -0.2438 C.ar    1  LIG1        0.0436
     94 C         -15.7241    8.4761   -0.2542 C.ar    1  LIG1        0.0451
     95 N         -14.4776    8.9874   -0.2428 N.ar    1  LIG1       -0.2388
     96 H         -17.6353   11.3065   -0.2130 H       1  LIG1        0.0638
     97 H         -15.8013    7.1786   -0.2757 H       1  LIG1        0.0843
     98 N         -13.1474   10.7914   -0.2100 N.pl3   1  LIG1       -0.3426
     99 H         -12.5422   10.1480   -0.6787 H       1  LIG1        0.1437
    100 H         -13.1224   11.6744   -0.6787 H       1  LIG1        0.1437
    101 C         -18.0618    8.7084   -0.2558 C.1     1  LIG1       -0.0681
    102 C         -19.1465    8.1924   -0.2669 C.1     1  LIG1       -0.1139
    103 H         -20.1127    7.7328   -0.2768 H       1  LIG1        0.1232
@<TRIPOS>BOND
     1    78    75    1
     2    37    35    1
     3    24    22    1
     4    51    48    1
     5    11     8    1
     6   100    98    1
     7    99    98    1
     8    86    84    1
     9    85    84    1
    10    65    63    1
    11    64    63    1
    12    34    32    1
    13    33    32    1
    14   103   102    1
    15    97    94    1
    16   102   101    3
    17   101    93    1
    18    94    93   ar
    19    94    95   ar
    20    93    92   ar
    21    95    90   ar
    22    92    96    1
    23    92    91   ar
    24    90    98    1
    25    90    91   ar
    26    91    82    1
    27    82    83   ar
    28    82    81   ar
    29    83    79   ar
    30    76    75    1
    31    81    87    1
    32    81    80   ar
    33    87    88    3
    34    88    89    1
    35    75    74    1
    36    75    77    1
    37    74    68    1
    38    79    80   ar
    39    79    69    1
    40    80    84    1
    41    68    69   ar
    42    68    67   ar
    43    69    70   ar
    44    67    73    1
    45    67    66   ar
    46    70    71    1
    47    70    66   ar
    48    73    72    3
    49    66    59    1
    50    63    58    1
    51    59    58   ar
    52    59    60   ar
    53    58    57   ar
    54    60    55   ar
    55    57    61    1
    56    57    56   ar
    57    55    62    1
    58    55    56   ar
    59    56    42    1
    60    54    53    1
    61    53    52    3
    62    42    45   ar
    63    42    40   ar
    64    52    45    1
    65    43    40    1
    66    45    44   ar
    67    40    39   ar
    68    21    20    1
    69    44    46    1
    70    44    41   ar
    71    39    47    1
    72    39    41   ar
    73    20    13    1
    74    31    30    1
    75    41    29    1
    76    48    36    1
    77    48    50    1
    78    49    35    1
    79    30    29    2
    80    30    26    1
    81    18    13   ar
    82    18    17   ar
    83    13    14   ar
    84    29    28    1
    85    26    17    1
    86    26    27    2
    87    17    16   ar
    88     5     4    1
    89    14     4    1
    90    14    15   ar
    91     4     3    2
    92     9     8    1
    93    12     3    1
    94     6     1    1
    95     2     3    1
    96     2     1    2
    97     2     7    1
    98     8     7    1
    99     8    10    1
   100    27    32    1
   101    35    38    1
   102    16    15   ar
   103    15    19    1
   104    22    25    1
   105    22    23    1
