@<TRIPOS>MOLECULE
mol_data/noopt/geoms/mol2/12la6hl-13fd12ah-13le13il4ei12el-.out
 104 106 0 0 0
SMALL
GASTEIGER

@<TRIPOS>ATOM
      1 C           0.1763    1.8460    0.0000 C.ar    1  LIG1        0.1341
      2 C           1.5558    1.8460    0.0000 C.ar    1  LIG1        0.1582
      3 C           1.9706    3.2334    0.0000 C.ar    1  LIG1        0.0261
      4 C           0.8165    3.9895   -0.0001 C.ar    1  LIG1        0.1418
      5 O          -0.3030    3.1567   -0.0002 O.2     1  LIG1       -0.4591
      6 H          -0.7504    0.9343    0.0000 H       1  LIG1        0.1068
      7 O           2.3515    0.8179    0.0001 O.3     1  LIG1       -0.4919
      8 C           1.5776   -0.3846    0.0001 C.3     1  LIG1        0.0789
      9 H           2.2328   -1.2305   -0.0000 H       1  LIG1        0.0660
     10 H           0.9604   -0.4116    0.8738 H       1  LIG1        0.0660
     11 H           0.9604   -0.4115   -0.8735 H       1  LIG1        0.0660
     12 H           3.1998    3.6567    0.0000 H       1  LIG1        0.0692
     13 C          -0.7951    5.6985   -0.0211 C.ar    1  LIG1        0.1279
     14 C           0.5416    5.2601   -0.0001 C.ar    1  LIG1        0.0603
     15 C           1.5571    6.2179    0.0209 C.ar    1  LIG1       -0.0038
     16 C           1.2066    7.5691    0.0200 C.ar    1  LIG1        0.1483
     17 C          -0.1586    7.9086   -0.0020 C.ar    1  LIG1        0.1343
     18 N          -1.1512    6.9977   -0.0223 N.ar    1  LIG1       -0.2264
     19 H           2.6132    5.9133    0.0367 H       1  LIG1        0.0663
     20 N          -1.7753    4.8448   -0.0410 N.pl3   1  LIG1       -0.3426
     21 H          -2.5574    5.2464   -0.5175 H       1  LIG1        0.1437
     22 H          -1.4850    4.0150   -0.5175 H       1  LIG1        0.1437
     23 O           2.1148    8.4990    0.0389 O.3     1  LIG1       -0.4929
     24 C           3.4126    7.8986    0.0458 C.3     1  LIG1        0.0789
     25 H           4.1598    8.6643    0.0611 H       1  LIG1        0.0660
     26 H           3.5158    7.2821    0.9143 H       1  LIG1        0.0660
     27 H           3.5334    7.3000   -0.8329 H       1  LIG1        0.0660
     28 C          -0.5350    9.1530   -0.0037 C.ar    1  LIG1        0.1124
     29 C           0.1997   10.2966    0.0115 C.ar    1  LIG1        0.1618
     30 C          -0.7188   11.3952    0.0021 C.ar    1  LIG1        0.1220
     31 C          -1.9744   10.8746   -0.0201 C.ar    1  LIG1        0.1038
     32 N          -1.8664    9.5021   -0.0232 N.ar    1  LIG1       -0.3465
     33 H          -2.6289    8.8645   -0.0380 H       1  LIG1        0.1662
     34 O           1.4973   10.3746    0.0323 O.3     1  LIG1       -0.5034
     35 H           1.7628   11.2972    0.0374 H       1  LIG1        0.2923
     36 N          -0.1421   13.7728    0.0215 N.1     1  LIG1       -0.1907
     37 C          -0.4124   12.6585    0.0124 C.1     1  LIG1        0.1051
     38 C          -3.1323   11.4652   -0.0357 C.ar    1  LIG1        0.1538
     39 C          -3.5688   12.7738   -0.0327 C.ar    1  LIG1       -0.0058
     40 C          -5.0160   12.7285   -0.0587 C.ar    1  LIG1        0.0338
     41 C          -5.3679   11.3945   -0.0759 C.ar    1  LIG1        0.1634
     42 O          -4.2238   10.5960   -0.0623 O.2     1  LIG1       -0.4511
     43 H          -2.8455   13.8538   -0.0111 H       1  LIG1        0.0662
     44 N          -5.8064   13.7606   -0.0642 N.3     2  LIG2       -0.1629
     45 H          -5.3596   14.5200   -0.5370 H       1  LIG1        0.1629
     46 H          -6.6560   13.5272   -0.5371 H       2  LIG2        0.0309
     47 C          -6.4860   10.7318   -0.1010 C.ar    1  LIG1        0.1317
     48 C          -7.7722   11.1718   -0.1018 C.ar    1  LIG1        0.2230
     49 C          -8.6191   10.0175   -0.1350 C.ar    1  LIG1        0.0987
     50 C          -7.8132    8.9230   -0.1548 C.ar    1  LIG1        0.0832
     51 N          -6.5064    9.3557   -0.1336 N.ar    1  LIG1       -0.3465
     52 H          -5.7049    8.7678   -0.1413 H       1  LIG1        0.1662
     53 O          -8.1584   12.4129   -0.0756 O.3     1  LIG1       -0.2842
     54 C          -7.0131   13.2691   -0.0661 C.3     3  LIG3       -0.0309
     55 H          -7.3314   14.2904   -0.0447 H       4  UNK4        0.0000
     56 H          -6.4202   13.0620    0.8003 H       5  UNK5        0.0000
     57 H          -6.4306   13.0954   -0.9466 H       6  UNK6        0.0000
     58 C          -9.9191   10.0132   -0.1450 C.1     1  LIG1       -0.0636
     59 C         -11.1202   10.0091   -0.1542 C.1     1  LIG1       -0.1137
     60 H         -12.1902   10.0055   -0.1624 H       1  LIG1        0.1232
     61 C          -8.1096    7.6576   -0.1867 C.ar    1  LIG1        0.0712
     62 C          -9.3179    7.0351   -0.2087 C.ar    1  LIG1        0.0186
     63 C          -9.0720    5.6248   -0.2398 C.ar    1  LIG1        0.1488
     64 C          -7.7241    5.4474   -0.2371 C.ar    1  LIG1        0.0906
     65 N          -7.1312    6.6894   -0.2042 N.ar    1  LIG1       -0.3498
     66 H          -6.1519    6.8600   -0.1952 H       1  LIG1        0.1661
     67 C         -10.4809    7.6167   -0.2013 C.3     1  LIG1       -0.0341
     68 H         -11.1881    6.9936    0.3052 H       1  LIG1        0.0279
     69 H         -10.8052    7.7788   -1.2080 H       1  LIG1        0.0279
     70 H         -10.4065    8.5564    0.3051 H       1  LIG1        0.0279
     71 O          -9.9693    4.6844   -0.2662 O.3     1  LIG1       -0.4927
     72 C         -11.2739    5.2698   -0.2760 C.3     1  LIG1        0.0789
     73 H         -12.0121    4.4955   -0.2978 H       1  LIG1        0.0660
     74 H         -11.4053    5.8630    0.6049 H       1  LIG1        0.0660
     75 H         -11.3806    5.8889   -1.1421 H       1  LIG1        0.0660
     76 C          -7.6601    3.1025   -0.2696 C.ar    1  LIG1        0.0346
     77 C          -6.8494    1.9512   -0.2915 C.ar    1  LIG1       -0.0347
     78 C          -7.0168    4.3570   -0.2587 C.ar    1  LIG1        0.0175
     79 C          -5.4593    2.0425   -0.3026 C.ar    1  LIG1        0.0227
     80 H          -7.3252    0.9731   -0.3000 H       1  LIG1        0.0637
     81 C          -5.6292    4.4488   -0.2698 C.ar    1  LIG1       -0.0477
     82 C          -4.8410    3.2934   -0.2919 C.ar    1  LIG1       -0.0391
     83 H          -5.1568    5.4277   -0.2610 H       1  LIG1        0.0627
     84 C          -8.9515    2.9534   -0.2603 C.1     1  LIG1       -0.0690
     85 C         -10.1448    2.8157   -0.2518 C.1     1  LIG1       -0.1139
     86 H         -11.2077    2.6930   -0.2442 H       1  LIG1        0.1232
     87 C          -3.5440    3.3854   -0.3021 C.3     1  LIG1       -0.0390
     88 H          -3.2461    4.2824    0.1995 H       1  LIG1        0.0278
     89 H          -3.1961    3.4102   -1.3137 H       1  LIG1        0.0278
     90 H          -3.1225    2.5394    0.1995 H       1  LIG1        0.0278
     91 C          -4.7414    0.9590   -0.3229 C.ar    1  LIG1        0.1541
     92 C          -5.0048   -0.3951   -0.3382 C.ar    1  LIG1        0.1119
     93 C          -3.7222   -1.0670   -0.3580 C.ar    1  LIG1        0.1736
     94 C          -2.7597   -0.0785   -0.3535 C.ar    1  LIG1        0.1354
     95 O          -3.3634    1.1793   -0.3321 O.2     1  LIG1       -0.4579
     96 H          -1.4600   -0.0511   -0.3644 H       1  LIG1        0.1068
     97 C          -6.1659   -0.9798   -0.3357 C.1     1  LIG1       -0.0622
     98 C          -7.2387   -1.5202   -0.3334 C.1     1  LIG1       -0.1137
     99 H          -8.1943   -2.0015   -0.3314 H       1  LIG1        0.1232
    100 O          -3.5415   -2.3543   -0.3763 O.3     1  LIG1       -0.4907
    101 C          -4.8100   -3.0143   -0.3831 C.3     1  LIG1        0.0790
    102 H          -4.6608   -4.0737   -0.3983 H       1  LIG1        0.0660
    103 H          -5.3575   -2.7439    0.4956 H       1  LIG1        0.0660
    104 H          -5.3610   -2.7192   -1.2515 H       1  LIG1        0.0660
@<TRIPOS>BOND
     1    89    87    1
     2   104   101    1
     3    69    67    1
     4    75    72    1
     5    11     8    1
     6    27    24    1
     7    46    54    1
     8    45    44    1
     9    22    20    1
    10    21    20    1
    11   102   101    1
    12   101   100    1
    13   101   103    1
    14   100    93    1
    15    96    94    1
    16    93    94   ar
    17    93    92   ar
    18    94    95   ar
    19    92    97    1
    20    92    91   ar
    21    97    98    3
    22    98    99    1
    23    95    91   ar
    24    91    79    1
    25    79    82   ar
    26    79    77   ar
    27    87    82    1
    28    87    90    1
    29    87    88    1
    30    80    77    1
    31    73    72    1
    32    82    81   ar
    33    77    76   ar
    34    72    71    1
    35    72    74    1
    36    81    83    1
    37    81    78   ar
    38    76    84    1
    39    76    78   ar
    40    71    63    1
    41    84    85    3
    42    78    64    1
    43    85    86    1
    44    63    64   ar
    45    63    62   ar
    46    64    65   ar
    47    62    67    1
    48    62    61   ar
    49    65    66    1
    50    65    61   ar
    51    67    70    1
    52    67    68    1
    53    61    50    1
    54    60    59    1
    55    50    49   ar
    56    50    51   ar
    57    59    58    3
    58    58    49    1
    59    52    51    1
    60    49    48   ar
    61    51    47   ar
    62    48    47   ar
    63    48    53    1
    64    47    41    1
    65    41    42   ar
    66    41    40   ar
    67    42    38   ar
    68    40    39   ar
    69    20    13    1
    70    33    32    1
    71    38    39   ar
    72    38    31    1
    73    39    43    1
    74    32    31   ar
    75    32    28   ar
    76    18    13   ar
    77    18    17   ar
    78    13    14   ar
    79    31    30   ar
    80    28    17    1
    81    28    29   ar
    82    17    16   ar
    83     5     4   ar
    84     5     1   ar
    85    14     4    1
    86    14    15   ar
    87     4     3   ar
    88     9     8    1
    89    12     3    1
    90     1     6    1
    91     1     2   ar
    92     3     2   ar
    93     2     7    1
    94     8     7    1
    95     8    10    1
    96    30    29   ar
    97    30    37    1
    98    29    34    1
    99    37    36    3
   100    16    15   ar
   101    16    23    1
   102    15    19    1
   103    34    35    1
   104    23    24    1
   105    24    25    1
   106    24    26    1
