@<TRIPOS>MOLECULE
mol_data/noopt/geoms/mol2/12la12la-.out
 24 25 0 0 0
SMALL
GASTEIGER

@<TRIPOS>ATOM
      1 C           0.1763    1.8460    0.0000 C.ar    1  LIG1        0.1342
      2 C           1.5558    1.8460    0.0000 C.ar    1  LIG1        0.1583
      3 C           1.9706    3.2334    0.0000 C.ar    1  LIG1        0.0292
      4 C           0.8165    3.9895   -0.0001 C.ar    1  LIG1        0.1770
      5 O          -0.3030    3.1567   -0.0002 O.2     1  LIG1       -0.4560
      6 H          -0.7504    0.9343    0.0000 H       1  LIG1        0.1068
      7 O           2.3515    0.8179    0.0001 O.3     1  LIG1       -0.4919
      8 C           1.5776   -0.3846    0.0001 C.3     1  LIG1        0.0789
      9 H           2.2328   -1.2305   -0.0000 H       1  LIG1        0.0660
     10 H           0.9604   -0.4116    0.8738 H       1  LIG1        0.0660
     11 H           0.9604   -0.4115   -0.8735 H       1  LIG1        0.0660
     12 H           3.1998    3.6567    0.0000 H       1  LIG1        0.0693
     13 C           0.5416    5.2601   -0.0001 C.ar    1  LIG1        0.2110
     14 C          -0.6119    6.0167   -0.0001 C.ar    1  LIG1        0.1687
     15 C          -0.1979    7.4043   -0.0001 C.ar    1  LIG1        0.0187
     16 C           1.1818    7.4036   -0.0002 C.ar    1  LIG1        0.0964
     17 O           1.6612    6.0932   -0.0003 O.2     1  LIG1       -0.4560
     18 H           2.1085    8.3153   -0.0002 H       1  LIG1        0.1031
     19 O          -1.8411    5.5933   -0.0000 O.3     1  LIG1       -0.4912
     20 C          -2.7313    6.7125   -0.0001 C.3     1  LIG1        0.0790
     21 H          -3.7429    6.3637   -0.0002 H       1  LIG1        0.0660
     22 H          -2.5587    7.3056    0.8736 H       1  LIG1        0.0660
     23 H          -2.5585    7.3057   -0.8737 H       1  LIG1        0.0660
     24 H          -0.9936    8.4323   -0.0001 H       1  LIG1        0.0686
@<TRIPOS>BOND
     1    23    20    1
     2    11     8    1
     3    17    16   ar
     4    17    13   ar
     5    21    20    1
     6     5     4   ar
     7     5     1   ar
     8    16    18    1
     9    16    15   ar
    10    14    15   ar
    11    14    13   ar
    12    14    19    1
    13    24    15    1
    14    13     4    1
    15     4     3   ar
    16    20    19    1
    17    20    22    1
    18     9     8    1
    19    12     3    1
    20     1     6    1
    21     1     2   ar
    22     3     2   ar
    23     2     7    1
    24     8     7    1
    25     8    10    1
