@<TRIPOS>MOLECULE
mol_data/noopt/geoms/mol2/12la12la12la-12la.out
 46 49 0 0 0
SMALL
GASTEIGER

@<TRIPOS>ATOM
      1 C           0.1763    1.8460    0.0000 C.ar    1  LIG1        0.1342
      2 C           1.5558    1.8460    0.0000 C.ar    1  LIG1        0.1583
      3 C           1.9706    3.2334    0.0000 C.ar    1  LIG1        0.0292
      4 C           0.8165    3.9895   -0.0001 C.ar    1  LIG1        0.1770
      5 O          -0.3030    3.1567   -0.0002 O.2     1  LIG1       -0.4560
      6 H          -0.7504    0.9343    0.0000 H       1  LIG1        0.1068
      7 O           2.3515    0.8179    0.0001 O.3     1  LIG1       -0.4919
      8 C           1.5776   -0.3846    0.0001 C.3     1  LIG1        0.0789
      9 H           2.2328   -1.2305   -0.0000 H       1  LIG1        0.0660
     10 H           0.9604   -0.4116    0.8738 H       1  LIG1        0.0660
     11 H           0.9604   -0.4115   -0.8735 H       1  LIG1        0.0660
     12 H           3.1998    3.6567    0.0000 H       1  LIG1        0.0693
     13 C           0.5416    5.2601   -0.0001 C.ar    1  LIG1        0.2121
     14 C           1.2792    6.4258   -0.0001 C.ar    1  LIG1        0.1694
     15 C           0.3286    7.5182   -0.0001 C.ar    1  LIG1        0.0300
     16 C          -0.9274    6.9472   -0.0002 C.ar    1  LIG1        0.1780
     17 O          -0.8223    5.5559   -0.0003 O.2     1  LIG1       -0.4447
     18 O           2.5735    6.5485   -0.0000 O.3     1  LIG1       -0.4912
     19 C           3.1758    5.2515   -0.0000 C.3     1  LIG1        0.0790
     20 H           4.2410    5.3529   -0.0001 H       1  LIG1        0.0660
     21 H           2.8686    4.7155    0.8737 H       1  LIG1        0.0660
     22 H           2.8685    4.7155   -0.8736 H       1  LIG1        0.0660
     23 H           0.6282    8.7832   -0.0001 H       1  LIG1        0.0694
     24 C          -2.1481    7.3943   -0.0002 C.ar    1  LIG1        0.2121
     25 C          -3.4042    6.8241   -0.0002 C.ar    1  LIG1        0.1694
     26 C          -4.3554    7.9160   -0.0002 C.ar    1  LIG1        0.0300
     27 C          -3.6171    9.0815   -0.0003 C.ar    1  LIG1        0.1780
     28 O          -2.2534    8.7859   -0.0004 O.2     1  LIG1       -0.4447
     29 O          -3.7038    5.5591   -0.0001 O.3     1  LIG1       -0.4912
     30 C          -5.1255    5.4052   -0.0002 C.3     1  LIG1        0.0790
     31 H          -5.3716    4.3639   -0.0003 H       1  LIG1        0.0660
     32 H          -5.5344    5.8683    0.8735 H       1  LIG1        0.0660
     33 H          -5.5343    5.8684   -0.8738 H       1  LIG1        0.0660
     34 H          -5.6496    7.7933   -0.0002 H       1  LIG1        0.0694
     35 C          -3.8920   10.3521   -0.0003 C.ar    1  LIG1        0.2111
     36 C          -3.1543   11.5178   -0.0002 C.ar    1  LIG1        0.1687
     37 C          -4.1049   12.6102   -0.0002 C.ar    1  LIG1        0.0187
     38 C          -5.3610   12.0393   -0.0003 C.ar    1  LIG1        0.0964
     39 O          -5.2558   10.6479   -0.0004 O.2     1  LIG1       -0.4560
     40 H          -6.5817   12.4864   -0.0003 H       1  LIG1        0.1031
     41 O          -1.8601   11.6405   -0.0001 O.3     1  LIG1       -0.4912
     42 C          -1.2578   10.3435   -0.0002 C.3     1  LIG1        0.0790
     43 H          -0.1926   10.4449   -0.0003 H       1  LIG1        0.0660
     44 H          -1.5649    9.8076    0.8736 H       1  LIG1        0.0660
     45 H          -1.5651    9.8075   -0.8737 H       1  LIG1        0.0660
     46 H          -3.8054   13.8752   -0.0002 H       1  LIG1        0.0686
@<TRIPOS>BOND
     1    33    30    1
     2    45    42    1
     3    22    19    1
     4    11     8    1
     5    39    38   ar
     6    39    35   ar
     7    28    27   ar
     8    28    24   ar
     9    38    40    1
    10    38    37   ar
    11    17    16   ar
    12    17    13   ar
    13    31    30    1
    14    27    35    1
    15    27    26   ar
    16    43    42    1
    17    35    36   ar
    18    36    37   ar
    19    36    41    1
    20    25    26   ar
    21    25    24   ar
    22    25    29    1
    23    34    26    1
    24    37    46    1
    25    24    16    1
    26    16    15   ar
    27     5     4   ar
    28     5     1   ar
    29    30    29    1
    30    30    32    1
    31    42    41    1
    32    42    44    1
    33    20    19    1
    34    23    15    1
    35    15    14   ar
    36    14    13   ar
    37    14    18    1
    38    13     4    1
    39     4     3   ar
    40    19    18    1
    41    19    21    1
    42     9     8    1
    43     1     2   ar
    44     1     6    1
    45     2     3   ar
    46     2     7    1
    47     3    12    1
    48     8     7    1
    49     8    10    1
