@<TRIPOS>MOLECULE
mol_data/noopt/geoms/mol2/12la6df13fd4hi-.out
 49 52 0 0 0
SMALL
GASTEIGER

@<TRIPOS>ATOM
      1 C           0.1763    1.8460    0.0000 C.ar    1  LIG1        0.1341
      2 C           1.5558    1.8460    0.0000 C.ar    1  LIG1        0.1582
      3 C           1.9706    3.2334    0.0000 C.ar    1  LIG1        0.0261
      4 C           0.8165    3.9895   -0.0001 C.ar    1  LIG1        0.1413
      5 O          -0.3030    3.1567   -0.0002 O.2     1  LIG1       -0.4591
      6 H          -0.7504    0.9343    0.0000 H       1  LIG1        0.1068
      7 O           2.3515    0.8179    0.0001 O.3     1  LIG1       -0.4919
      8 C           1.5776   -0.3846    0.0001 C.3     1  LIG1        0.0789
      9 H           2.2328   -1.2305   -0.0000 H       1  LIG1        0.0660
     10 H           0.9604   -0.4116    0.8738 H       1  LIG1        0.0660
     11 H           0.9604   -0.4115   -0.8735 H       1  LIG1        0.0660
     12 H           3.1998    3.6567    0.0000 H       1  LIG1        0.0692
     13 C          -0.7953    5.6985    0.0001 C.ar    1  LIG1        0.1516
     14 C           0.5416    5.2601   -0.0001 C.ar    1  LIG1        0.0567
     15 C           1.5573    6.2179    0.0001 C.ar    1  LIG1       -0.0046
     16 C           1.2067    7.5691    0.0002 C.ar    1  LIG1        0.1450
     17 C          -0.1587    7.9086    0.0001 C.ar    1  LIG1        0.1334
     18 N          -1.1514    6.9977    0.0002 N.ar    1  LIG1       -0.2304
     19 H           2.6135    5.9134   -0.0011 H       1  LIG1        0.0663
     20 N          -2.6404    4.0918   -0.0000 N.1     1  LIG1       -0.1893
     21 C          -1.7757    4.8447    0.0000 C.1     1  LIG1        0.1198
     22 O           2.1151    8.4991    0.0002 O.3     1  LIG1       -0.5045
     23 H           1.6917    9.3607    0.0001 H       1  LIG1        0.2922
     24 C          -0.5350    9.1530    0.0003 C.ar    1  LIG1        0.1123
     25 C           0.1997   10.2966    0.0167 C.ar    1  LIG1        0.1617
     26 C          -0.7188   11.3952    0.0092 C.ar    1  LIG1        0.1190
     27 C          -1.9744   10.8746   -0.0132 C.ar    1  LIG1        0.0700
     28 N          -1.8665    9.5021   -0.0182 N.ar    1  LIG1       -0.3488
     29 H          -2.6289    8.8646   -0.0335 H       1  LIG1        0.1661
     30 O           1.4973   10.3746    0.0371 O.3     1  LIG1       -0.5034
     31 H           1.7627   11.2971    0.0421 H       1  LIG1        0.2923
     32 N          -0.1422   13.7727    0.0316 N.1     1  LIG1       -0.1907
     33 C          -0.4124   12.6585    0.0211 C.1     1  LIG1        0.1050
     34 C          -3.2029   12.8733   -0.0132 C.ar    1  LIG1        0.0338
     35 C          -4.4808   13.4649   -0.0282 C.ar    1  LIG1       -0.0402
     36 C          -3.1323   11.4652   -0.0275 C.ar    1  LIG1        0.0206
     37 C          -5.6386   12.6908   -0.0568 C.ar    1  LIG1       -0.0571
     38 H          -4.5580   14.5499   -0.0173 H       1  LIG1        0.0636
     39 C          -4.2879   10.6920   -0.0561 C.ar    1  LIG1       -0.0479
     40 C          -5.5483   11.2984   -0.0710 C.ar    1  LIG1       -0.0497
     41 H          -4.2072    9.6080   -0.0666 H       1  LIG1        0.0627
     42 H          -6.8023   13.2703   -0.0701 H       1  LIG1        0.0621
     43 N          -2.1593   13.6480    0.0132 N.pl3   1  LIG1       -0.3575
     44 H          -1.3973   13.1968   -0.4514 H       1  LIG1        0.1423
     45 H          -2.3707   14.5079   -0.4514 H       1  LIG1        0.1423
     46 C          -6.6252   10.5703   -0.0976 C.3     1  LIG1       -0.0397
     47 H          -6.4399    9.6410    0.3995 H       1  LIG1        0.0278
     48 H          -6.9036   10.3820   -1.1135 H       1  LIG1        0.0278
     49 H          -7.4185   11.0886    0.3994 H       1  LIG1        0.0278
@<TRIPOS>BOND
     1    48    46    1
     2    11     8    1
     3    45    43    1
     4    44    43    1
     5    46    40    1
     6    46    49    1
     7    46    47    1
     8    40    37   ar
     9    40    39   ar
    10    42    37    1
    11    41    39    1
    12    37    35   ar
    13    39    36   ar
    14    29    28    1
    15    35    38    1
    16    35    34   ar
    17    36    34   ar
    18    36    27    1
    19    28    27   ar
    20    28    24   ar
    21    34    43    1
    22    27    26   ar
    23    19    15    1
    24     5     4   ar
    25     5     1   ar
    26     4    14    1
    27     4     3   ar
    28    14    13   ar
    29    14    15   ar
    30    20    21    3
    31     9     8    1
    32    12     3    1
    33     2     3   ar
    34     2     1   ar
    35     2     7    1
    36     6     1    1
    37    21    13    1
    38     8     7    1
    39     8    10    1
    40    13    18   ar
    41    15    16   ar
    42    17    18   ar
    43    17    16   ar
    44    17    24    1
    45    23    22    1
    46    22    16    1
    47    24    25   ar
    48    26    25   ar
    49    26    33    1
    50    25    30    1
    51    33    32    3
    52    30    31    1
