@<TRIPOS>MOLECULE
mol_data/noopt/geoms/mol2/12la12la12la-12la-.out
 46 49 0 0 0
SMALL
GASTEIGER

@<TRIPOS>ATOM
      1 C           0.1763    1.8460    0.0000 C.ar    1  LIG1        0.1342
      2 C           1.5558    1.8460    0.0000 C.ar    1  LIG1        0.1583
      3 C           1.9706    3.2334    0.0000 C.ar    1  LIG1        0.0292
      4 C           0.8165    3.9895   -0.0001 C.ar    1  LIG1        0.1770
      5 O          -0.3030    3.1567   -0.0002 O.2     1  LIG1       -0.4560
      6 H          -0.7504    0.9343    0.0000 H       1  LIG1        0.1068
      7 O           2.3515    0.8179    0.0001 O.3     1  LIG1       -0.4919
      8 C           1.5776   -0.3846    0.0001 C.3     1  LIG1        0.0789
      9 H           2.2328   -1.2305   -0.0000 H       1  LIG1        0.0660
     10 H           0.9604   -0.4116    0.8738 H       1  LIG1        0.0660
     11 H           0.9604   -0.4115   -0.8735 H       1  LIG1        0.0660
     12 H           3.1998    3.6567    0.0000 H       1  LIG1        0.0693
     13 C           0.5416    5.2601   -0.0001 C.ar    1  LIG1        0.2121
     14 C           1.2792    6.4258   -0.0001 C.ar    1  LIG1        0.1694
     15 C           0.3286    7.5182   -0.0001 C.ar    1  LIG1        0.0300
     16 C          -0.9274    6.9472   -0.0002 C.ar    1  LIG1        0.1780
     17 O          -0.8223    5.5559   -0.0003 O.2     1  LIG1       -0.4447
     18 O           2.5735    6.5485   -0.0000 O.3     1  LIG1       -0.4912
     19 C           3.1758    5.2515   -0.0000 C.3     1  LIG1        0.0790
     20 H           4.2410    5.3529   -0.0001 H       1  LIG1        0.0660
     21 H           2.8686    4.7155    0.8737 H       1  LIG1        0.0660
     22 H           2.8685    4.7155   -0.8736 H       1  LIG1        0.0660
     23 H           0.6282    8.7832   -0.0001 H       1  LIG1        0.0694
     24 C          -2.1481    7.3943   -0.0002 C.ar    1  LIG1        0.2121
     25 C          -3.4042    6.8241   -0.0002 C.ar    1  LIG1        0.1694
     26 C          -4.3554    7.9160   -0.0002 C.ar    1  LIG1        0.0300
     27 C          -3.6171    9.0815   -0.0003 C.ar    1  LIG1        0.1780
     28 O          -2.2534    8.7859   -0.0004 O.2     1  LIG1       -0.4447
     29 O          -3.7038    5.5591   -0.0001 O.3     1  LIG1       -0.4912
     30 C          -5.1255    5.4052   -0.0002 C.3     1  LIG1        0.0790
     31 H          -5.3716    4.3639   -0.0003 H       1  LIG1        0.0660
     32 H          -5.5344    5.8683    0.8735 H       1  LIG1        0.0660
     33 H          -5.5343    5.8684   -0.8738 H       1  LIG1        0.0660
     34 H          -5.6496    7.7933   -0.0002 H       1  LIG1        0.0694
     35 C          -3.8920   10.3521   -0.0003 C.ar    1  LIG1        0.2111
     36 C          -5.0455   11.1087   -0.0003 C.ar    1  LIG1        0.1687
     37 C          -4.6315   12.4963   -0.0002 C.ar    1  LIG1        0.0187
     38 C          -3.2517   12.4956   -0.0003 C.ar    1  LIG1        0.0964
     39 O          -2.7723   11.1852   -0.0004 O.2     1  LIG1       -0.4560
     40 H          -2.3250   13.4073   -0.0003 H       1  LIG1        0.1031
     41 O          -6.2747   10.6854   -0.0002 O.3     1  LIG1       -0.4912
     42 C          -7.1649   11.8045   -0.0002 C.3     1  LIG1        0.0790
     43 H          -8.1764   11.4557   -0.0003 H       1  LIG1        0.0660
     44 H          -6.9923   12.3976    0.8735 H       1  LIG1        0.0660
     45 H          -6.9921   12.3977   -0.8738 H       1  LIG1        0.0660
     46 H          -5.4271   13.5243   -0.0002 H       1  LIG1        0.0686
@<TRIPOS>BOND
     1    45    42    1
     2    33    30    1
     3    22    19    1
     4    11     8    1
     5    39    38   ar
     6    39    35   ar
     7    28    27   ar
     8    28    24   ar
     9    43    42    1
    10    31    30    1
    11    17    16   ar
    12    17    13   ar
    13    38    40    1
    14    38    37   ar
    15    27    35    1
    16    27    26   ar
    17    36    35   ar
    18    36    37   ar
    19    36    41    1
    20    42    41    1
    21    42    44    1
    22    25    26   ar
    23    25    24   ar
    24    25    29    1
    25    37    46    1
    26    34    26    1
    27    24    16    1
    28    16    15   ar
    29     5     4   ar
    30     5     1   ar
    31    30    29    1
    32    30    32    1
    33    20    19    1
    34    23    15    1
    35     4    13    1
    36     4     3   ar
    37    15    14   ar
    38    14    13   ar
    39    14    18    1
    40    19    18    1
    41    19    21    1
    42     9     8    1
    43     2     3   ar
    44     2     1   ar
    45     2     7    1
    46     3    12    1
    47     6     1    1
    48     8     7    1
    49     8    10    1
