@<TRIPOS>MOLECULE
mol_data/noopt/geoms/mol2/12la12la-12la-12la.out
 46 49 0 0 0
SMALL
GASTEIGER

@<TRIPOS>ATOM
      1 C           0.1763    1.8460    0.0000 C.ar    1  LIG1        0.1342
      2 C           1.5558    1.8460    0.0000 C.ar    1  LIG1        0.1583
      3 C           1.9706    3.2334    0.0000 C.ar    1  LIG1        0.0292
      4 C           0.8165    3.9895   -0.0001 C.ar    1  LIG1        0.1770
      5 O          -0.3030    3.1567   -0.0002 O.2     1  LIG1       -0.4560
      6 H          -0.7504    0.9343    0.0000 H       1  LIG1        0.1068
      7 O           2.3515    0.8179    0.0001 O.3     1  LIG1       -0.4919
      8 C           1.5776   -0.3846    0.0001 C.3     1  LIG1        0.0789
      9 H           2.2328   -1.2305   -0.0000 H       1  LIG1        0.0660
     10 H           0.9604   -0.4116    0.8738 H       1  LIG1        0.0660
     11 H           0.9604   -0.4115   -0.8735 H       1  LIG1        0.0660
     12 H           3.1998    3.6567    0.0000 H       1  LIG1        0.0693
     13 C           0.5416    5.2601   -0.0001 C.ar    1  LIG1        0.2121
     14 C          -0.6119    6.0167   -0.0001 C.ar    1  LIG1        0.1694
     15 C          -0.1979    7.4043   -0.0001 C.ar    1  LIG1        0.0300
     16 C           1.1818    7.4036   -0.0002 C.ar    1  LIG1        0.1780
     17 O           1.6612    6.0932   -0.0003 O.2     1  LIG1       -0.4447
     18 O          -1.8411    5.5933   -0.0000 O.3     1  LIG1       -0.4912
     19 C          -2.7313    6.7125   -0.0001 C.3     1  LIG1        0.0790
     20 H          -3.7429    6.3637   -0.0002 H       1  LIG1        0.0660
     21 H          -2.5587    7.3056    0.8736 H       1  LIG1        0.0660
     22 H          -2.5585    7.3057   -0.8737 H       1  LIG1        0.0660
     23 H          -0.9936    8.4323   -0.0001 H       1  LIG1        0.0694
     24 C           2.1085    8.3153   -0.0002 C.ar    1  LIG1        0.2121
     25 C           2.1310    9.6946   -0.0002 C.ar    1  LIG1        0.1694
     26 C           3.5250   10.0867   -0.0001 C.ar    1  LIG1        0.0300
     27 C           4.2622    8.9204   -0.0002 C.ar    1  LIG1        0.1780
     28 O           3.4112    7.8147   -0.0003 O.2     1  LIG1       -0.4447
     29 O           1.1161   10.5070   -0.0001 O.3     1  LIG1       -0.4912
     30 C           1.5858   11.8576   -0.0001 C.3     1  LIG1        0.0790
     31 H           0.7501   12.5259   -0.0002 H       1  LIG1        0.0660
     32 H           2.1793   12.0289    0.8736 H       1  LIG1        0.0660
     33 H           2.1794   12.0288   -0.8737 H       1  LIG1        0.0660
     34 H           3.9683   11.3088   -0.0001 H       1  LIG1        0.0694
     35 C           5.5281    8.6248   -0.0002 C.ar    1  LIG1        0.2111
     36 C           6.2658    7.4591   -0.0001 C.ar    1  LIG1        0.1687
     37 C           7.6600    7.8504   -0.0001 C.ar    1  LIG1        0.0187
     38 C           7.6818    9.2300   -0.0002 C.ar    1  LIG1        0.0964
     39 O           6.3794    9.7307   -0.0003 O.2     1  LIG1       -0.4560
     40 H           8.6085   10.1417   -0.0002 H       1  LIG1        0.1031
     41 O           5.8225    6.2370   -0.0000 O.3     1  LIG1       -0.4912
     42 C           4.3925    6.2480   -0.0001 C.3     1  LIG1        0.0790
     43 H           4.0281    5.2419   -0.0002 H       1  LIG1        0.0660
     44 H           4.0397    6.7550    0.8737 H       1  LIG1        0.0660
     45 H           4.0397    6.7552   -0.8736 H       1  LIG1        0.0660
     46 H           8.6749    7.0381   -0.0001 H       1  LIG1        0.0686
@<TRIPOS>BOND
     1    33    30    1
     2    22    19    1
     3    45    42    1
     4    11     8    1
     5    39    38   ar
     6    39    35   ar
     7    28    27   ar
     8    28    24   ar
     9    17    16   ar
    10    17    13   ar
    11    31    30    1
    12    38    40    1
    13    38    37   ar
    14     5     4   ar
    15     5     1   ar
    16    20    19    1
    17    27    35    1
    18    27    26   ar
    19    16    24    1
    20    16    15   ar
    21    43    42    1
    22    35    36   ar
    23    25    24   ar
    24    25    26   ar
    25    25    29    1
    26    30    29    1
    27    30    32    1
    28    36    37   ar
    29    36    41    1
    30    14    15   ar
    31    14    13   ar
    32    14    18    1
    33    26    34    1
    34    23    15    1
    35    13     4    1
    36     4     3   ar
    37    37    46    1
    38    19    18    1
    39    19    21    1
    40    42    41    1
    41    42    44    1
    42     9     8    1
    43    12     3    1
    44     6     1    1
    45     3     2   ar
    46     2     1   ar
    47     2     7    1
    48     8     7    1
    49     8    10    1
