@<TRIPOS>MOLECULE
mol_data/noopt/geoms/mol2/12la12la12la.out
 35 37 0 0 0
SMALL
GASTEIGER

@<TRIPOS>ATOM
      1 C           0.1763    1.8460    0.0000 C.ar    1  LIG1        0.1342
      2 C           1.5558    1.8460    0.0000 C.ar    1  LIG1        0.1583
      3 C           1.9706    3.2334    0.0000 C.ar    1  LIG1        0.0292
      4 C           0.8165    3.9895   -0.0001 C.ar    1  LIG1        0.1770
      5 O          -0.3030    3.1567   -0.0002 O.2     1  LIG1       -0.4560
      6 H          -0.7504    0.9343    0.0000 H       1  LIG1        0.1068
      7 O           2.3515    0.8179    0.0001 O.3     1  LIG1       -0.4919
      8 C           1.5776   -0.3846    0.0001 C.3     1  LIG1        0.0789
      9 H           2.2328   -1.2305   -0.0000 H       1  LIG1        0.0660
     10 H           0.9604   -0.4116    0.8738 H       1  LIG1        0.0660
     11 H           0.9604   -0.4115   -0.8735 H       1  LIG1        0.0660
     12 H           3.1998    3.6567    0.0000 H       1  LIG1        0.0693
     13 C           0.5416    5.2601   -0.0001 C.ar    1  LIG1        0.2121
     14 C           1.2792    6.4258   -0.0001 C.ar    1  LIG1        0.1694
     15 C           0.3286    7.5182   -0.0001 C.ar    1  LIG1        0.0300
     16 C          -0.9274    6.9472   -0.0002 C.ar    1  LIG1        0.1780
     17 O          -0.8223    5.5559   -0.0003 O.2     1  LIG1       -0.4447
     18 O           2.5735    6.5485   -0.0000 O.3     1  LIG1       -0.4912
     19 C           3.1758    5.2515   -0.0000 C.3     1  LIG1        0.0790
     20 H           4.2410    5.3529   -0.0001 H       1  LIG1        0.0660
     21 H           2.8686    4.7155    0.8737 H       1  LIG1        0.0660
     22 H           2.8685    4.7155   -0.8736 H       1  LIG1        0.0660
     23 H           0.6282    8.7832   -0.0001 H       1  LIG1        0.0694
     24 C          -2.1481    7.3943   -0.0002 C.ar    1  LIG1        0.2111
     25 C          -2.7387    8.6410   -0.0002 C.ar    1  LIG1        0.1687
     26 C          -4.1701    8.4218   -0.0002 C.ar    1  LIG1        0.0187
     27 C          -4.3593    7.0551   -0.0003 C.ar    1  LIG1        0.0964
     28 O          -3.1273    6.4000   -0.0004 O.2     1  LIG1       -0.4560
     29 H          -5.3898    6.2627   -0.0003 H       1  LIG1        0.1031
     30 O          -2.1503    9.8003   -0.0001 O.3     1  LIG1       -0.4912
     31 C          -0.7323    9.6157   -0.0001 C.3     1  LIG1        0.0790
     32 H          -0.2484   10.5701   -0.0002 H       1  LIG1        0.0660
     33 H          -0.4436    9.0696    0.8736 H       1  LIG1        0.0660
     34 H          -0.4437    9.0695   -0.8737 H       1  LIG1        0.0660
     35 H          -5.0789    9.3514   -0.0002 H       1  LIG1        0.0686
@<TRIPOS>BOND
     1    34    31    1
     2    22    19    1
     3    11     8    1
     4    28    27   ar
     5    28    24   ar
     6    29    27    1
     7    27    26   ar
     8    17    16   ar
     9    17    13   ar
    10    32    31    1
    11    24    16    1
    12    24    25   ar
    13     5     4   ar
    14     5     1   ar
    15    26    25   ar
    16    26    35    1
    17    16    15   ar
    18    25    30    1
    19    31    30    1
    20    31    33    1
    21    20    19    1
    22    23    15    1
    23    13    14   ar
    24    13     4    1
    25    15    14   ar
    26    14    18    1
    27     4     3   ar
    28    19    18    1
    29    19    21    1
    30     9     8    1
    31     1     6    1
    32     1     2   ar
    33    12     3    1
    34     3     2   ar
    35     2     7    1
    36     8     7    1
    37     8    10    1
