@<TRIPOS>MOLECULE
mol_data/noopt/geoms/mol2/12la12hf(20)4al(30)6ed(340).out
 49 52 0 0 0
SMALL
GASTEIGER

@<TRIPOS>ATOM
      1 C           0.1763    1.8460    0.0000 C.ar    1  LIG1        0.1342
      2 C           1.5558    1.8460    0.0000 C.ar    1  LIG1        0.1583
      3 C           1.9706    3.2334    0.0000 C.ar    1  LIG1        0.0291
      4 C           0.8165    3.9895   -0.0001 C.ar    1  LIG1        0.1753
      5 O          -0.3030    3.1567   -0.0002 O.2     1  LIG1       -0.4560
      6 H          -0.7504    0.9343    0.0000 H       1  LIG1        0.1068
      7 O           2.3515    0.8179    0.0001 O.3     1  LIG1       -0.4919
      8 C           1.5776   -0.3846    0.0001 C.3     1  LIG1        0.0789
      9 H           2.2328   -1.2305   -0.0000 H       1  LIG1        0.0660
     10 H           0.9604   -0.4116    0.8738 H       1  LIG1        0.0660
     11 H           0.9604   -0.4115   -0.8735 H       1  LIG1        0.0660
     12 H           3.1998    3.6567    0.0000 H       1  LIG1        0.0693
     13 C           0.5416    5.2601   -0.0001 C.ar    1  LIG1        0.1949
     14 C           1.2346    6.4161    0.2938 C.ar    1  LIG1        0.1169
     15 C           0.3162    7.5155    0.0817 C.ar    1  LIG1        0.1846
     16 C          -0.8775    6.9580   -0.3280 C.ar    1  LIG1        0.1790
     17 O          -0.7635    5.5686   -0.3862 O.2     1  LIG1       -0.4460
     18 N           2.4691    6.5259    0.6860 N.pl3   1  LIG1       -0.3521
     19 H           2.9996    5.7533    0.3371 H       1  LIG1        0.1425
     20 H           2.8551    7.3799    0.3371 H       1  LIG1        0.1425
     21 O           0.5899    8.7750    0.2519 O.3     1  LIG1       -0.5020
     22 H          -0.2270    9.2775    0.2939 H       1  LIG1        0.2924
     23 C          -2.4400    8.7063   -0.2506 C.ar    1  LIG1       -0.0502
     24 C          -3.7177    9.1559   -0.6365 C.ar    1  LIG1       -0.0501
     25 C          -2.0474    7.4161   -0.6617 C.ar    1  LIG1        0.0245
     26 C          -4.5682    8.3580   -1.3985 C.ar    1  LIG1        0.0227
     27 H          -4.0407   10.1483   -0.3299 H       1  LIG1        0.0625
     28 C          -2.8962    6.6191   -1.4223 C.ar    1  LIG1       -0.0086
     29 C          -4.1615    7.0838   -1.7961 C.ar    1  LIG1        0.1288
     30 H          -2.5705    5.6278   -1.7269 H       1  LIG1        0.0661
     31 H          -1.6914    9.4965    0.4602 H       1  LIG1        0.0625
     32 O          -4.9506    6.3342   -2.5071 O.3     1  LIG1       -0.4880
     33 C          -6.1686    7.0365   -2.7682 C.3     1  LIG1        0.1235
     34 H          -6.8178    6.4193   -3.3535 H       1  LIG1        0.0731
     35 H          -6.6464    7.2787   -1.8418 H       1  LIG1        0.0705
     36 H          -5.9533    7.9370   -3.3045 H       1  LIG1        0.0731
     37 C          -6.8898    8.0217   -1.5217 C.3     1  LIG1        0.1278
     38 C          -5.7411    8.8048   -1.7372 C.2     1  LIG1       -0.0018
     39 C          -5.8926   10.0646   -2.3193 C.2     1  LIG1       -0.0365
     40 C          -7.1748   10.4959   -2.6638 C.2     1  LIG1        0.0674
     41 C          -8.2621    9.6402   -2.4089 C.2     1  LIG1        0.0306
     42 N          -8.1341    8.4219   -1.8479 N.pl3   1  LIG1       -0.2363
     43 H          -5.0181   10.7045   -2.5039 H       1  LIG1        0.0635
     44 H          -9.4750    9.9970   -2.7118 H       1  LIG1        0.0811
     45 C          -6.7998    6.8421   -0.9827 C.1     1  LIG1       -0.0765
     46 C          -6.7165    5.7522   -0.4846 C.1     1  LIG1       -0.1169
     47 H          -6.6424    4.7814   -0.0409 H       1  LIG1        0.1229
     48 N          -7.5393   12.6873   -3.6888 N.1     1  LIG1       -0.1908
     49 C          -7.3685   11.6603   -3.2084 C.1     1  LIG1        0.1005
@<TRIPOS>BOND
     1    48    49    3
     2    34    33    1
     3    36    33    1
     4    49    40    1
     5    33    32    1
     6    44    41    1
     7    40    41    2
     8    40    39    1
     9    32    29    1
    10    43    39    1
    11    41    42    1
    12    39    38    2
    13    42    37    1
    14    35    37    1
    15    29    28   ar
    16    29    26   ar
    17    38    37    1
    18    38    26    1
    19    30    28    1
    20    37    45    1
    21    28    25   ar
    22    26    24   ar
    23    45    46    3
    24    11     8    1
    25    25    16    1
    26    25    23   ar
    27    24    27    1
    28    24    23   ar
    29    46    47    1
    30    17    16   ar
    31    17    13   ar
    32    16    15   ar
    33    23    31    1
    34     5     4   ar
    35     5     1   ar
    36     4    13    1
    37     4     3   ar
    38    13    14   ar
    39     9     8    1
    40     2     3   ar
    41     2     1   ar
    42     2     7    1
    43     3    12    1
    44     6     1    1
    45     8     7    1
    46     8    10    1
    47    15    21    1
    48    15    14   ar
    49    21    22    1
    50    14    18    1
    51    20    18    1
    52    19    18    1
