@<TRIPOS>MOLECULE
mol_data/noopt/geoms/mol2/12la12la-12la12la.out
 46 49 0 0 0
SMALL
GASTEIGER

@<TRIPOS>ATOM
      1 C           0.1763    1.8460    0.0000 C.ar    1  LIG1        0.1342
      2 C           1.5558    1.8460    0.0000 C.ar    1  LIG1        0.1583
      3 C           1.9706    3.2334    0.0000 C.ar    1  LIG1        0.0292
      4 C           0.8165    3.9895   -0.0001 C.ar    1  LIG1        0.1770
      5 O          -0.3030    3.1567   -0.0002 O.2     1  LIG1       -0.4560
      6 H          -0.7504    0.9343    0.0000 H       1  LIG1        0.1068
      7 O           2.3515    0.8179    0.0001 O.3     1  LIG1       -0.4919
      8 C           1.5776   -0.3846    0.0001 C.3     1  LIG1        0.0789
      9 H           2.2328   -1.2305   -0.0000 H       1  LIG1        0.0660
     10 H           0.9604   -0.4116    0.8738 H       1  LIG1        0.0660
     11 H           0.9604   -0.4115   -0.8735 H       1  LIG1        0.0660
     12 H           3.1998    3.6567    0.0000 H       1  LIG1        0.0693
     13 C           0.5416    5.2601   -0.0001 C.ar    1  LIG1        0.2121
     14 C          -0.6119    6.0167   -0.0001 C.ar    1  LIG1        0.1694
     15 C          -0.1979    7.4043   -0.0001 C.ar    1  LIG1        0.0300
     16 C           1.1818    7.4036   -0.0002 C.ar    1  LIG1        0.1780
     17 O           1.6612    6.0932   -0.0003 O.2     1  LIG1       -0.4447
     18 O          -1.8411    5.5933   -0.0000 O.3     1  LIG1       -0.4912
     19 C          -2.7313    6.7125   -0.0001 C.3     1  LIG1        0.0790
     20 H          -3.7429    6.3637   -0.0002 H       1  LIG1        0.0660
     21 H          -2.5587    7.3056    0.8736 H       1  LIG1        0.0660
     22 H          -2.5585    7.3057   -0.8737 H       1  LIG1        0.0660
     23 H          -0.9936    8.4323   -0.0001 H       1  LIG1        0.0694
     24 C           2.1085    8.3153   -0.0002 C.ar    1  LIG1        0.2121
     25 C           3.4880    8.3153   -0.0001 C.ar    1  LIG1        0.1694
     26 C           3.9028    9.7027   -0.0001 C.ar    1  LIG1        0.0300
     27 C           2.7487   10.4588   -0.0002 C.ar    1  LIG1        0.1780
     28 O           1.6292    9.6260   -0.0003 O.2     1  LIG1       -0.4447
     29 O           4.2837    7.2872   -0.0000 O.3     1  LIG1       -0.4912
     30 C           3.5098    6.0847   -0.0001 C.3     1  LIG1        0.0790
     31 H           4.1651    5.2388   -0.0002 H       1  LIG1        0.0660
     32 H           2.8927    6.0577    0.8737 H       1  LIG1        0.0660
     33 H           2.8926    6.0578   -0.8736 H       1  LIG1        0.0660
     34 H           5.1320   10.1260   -0.0001 H       1  LIG1        0.0694
     35 C           2.4738   11.7294   -0.0002 C.ar    1  LIG1        0.2111
     36 C           3.2115   12.8951   -0.0002 C.ar    1  LIG1        0.1687
     37 C           2.2609   13.9875   -0.0002 C.ar    1  LIG1        0.0187
     38 C           1.0048   13.4165   -0.0003 C.ar    1  LIG1        0.0964
     39 O           1.1100   12.0252   -0.0004 O.2     1  LIG1       -0.4560
     40 H          -0.2159   13.8636   -0.0003 H       1  LIG1        0.1031
     41 O           4.5057   13.0177   -0.0001 O.3     1  LIG1       -0.4912
     42 C           5.1080   11.7208   -0.0001 C.3     1  LIG1        0.0790
     43 H           6.1732   11.8222   -0.0002 H       1  LIG1        0.0660
     44 H           4.8009   11.1848    0.8736 H       1  LIG1        0.0660
     45 H           4.8007   11.1848   -0.8737 H       1  LIG1        0.0660
     46 H           2.5604   15.2525   -0.0002 H       1  LIG1        0.0686
@<TRIPOS>BOND
     1    45    42    1
     2    22    19    1
     3    33    30    1
     4    11     8    1
     5    39    38   ar
     6    39    35   ar
     7    28    27   ar
     8    28    24   ar
     9    38    40    1
    10    38    37   ar
    11    17    16   ar
    12    17    13   ar
    13    43    42    1
    14    27    35    1
    15    27    26   ar
    16    35    36   ar
    17    20    19    1
    18     5     4   ar
    19     5     1   ar
    20    36    37   ar
    21    36    41    1
    22    37    46    1
    23    16    24    1
    24    16    15   ar
    25    31    30    1
    26    24    25   ar
    27    25    26   ar
    28    25    29    1
    29    42    41    1
    30    42    44    1
    31    14    15   ar
    32    14    13   ar
    33    14    18    1
    34    23    15    1
    35    26    34    1
    36     4    13    1
    37     4     3   ar
    38    19    18    1
    39    19    21    1
    40    30    29    1
    41    30    32    1
    42     9     8    1
    43     2     3   ar
    44     2     1   ar
    45     2     7    1
    46     6     1    1
    47     3    12    1
    48     8     7    1
    49     8    10    1
