@<TRIPOS>MOLECULE
mol_data/noopt/geoms/mol2/12la12ad-4ea-12ld.out
 45 48 0 0 0
SMALL
GASTEIGER

@<TRIPOS>ATOM
      1 C           0.1763    1.8460    0.0000 C.ar    1  LIG1        0.1342
      2 C           1.5558    1.8460    0.0000 C.ar    1  LIG1        0.1583
      3 C           1.9706    3.2334    0.0000 C.ar    1  LIG1        0.0291
      4 C           0.8165    3.9895   -0.0001 C.ar    1  LIG1        0.1733
      5 O          -0.3030    3.1567   -0.0002 O.2     1  LIG1       -0.4561
      6 H          -0.7504    0.9343    0.0000 H       1  LIG1        0.1068
      7 O           2.3515    0.8179    0.0001 O.3     1  LIG1       -0.4919
      8 C           1.5776   -0.3846    0.0001 C.3     1  LIG1        0.0789
      9 H           2.2328   -1.2305   -0.0000 H       1  LIG1        0.0660
     10 H           0.9604   -0.4116    0.8738 H       1  LIG1        0.0660
     11 H           0.9604   -0.4115   -0.8735 H       1  LIG1        0.0660
     12 H           3.1998    3.6567    0.0000 H       1  LIG1        0.0693
     13 C           0.5416    5.2601   -0.0001 C.ar    1  LIG1        0.1710
     14 C           1.2792    6.4258   -0.0001 C.ar    1  LIG1       -0.0067
     15 C           0.3286    7.5182   -0.0001 C.ar    1  LIG1        0.0292
     16 C          -0.9274    6.9472   -0.0002 C.ar    1  LIG1        0.1421
     17 O          -0.8223    5.5559   -0.0003 O.2     1  LIG1       -0.4514
     18 H           2.5734    6.5485   -0.0000 H       1  LIG1        0.0660
     19 N           0.8924    9.8990   -0.0001 N.pl3   1  LIG1       -0.2335
     20 C           0.6282    8.7832   -0.0001 C.3     1  LIG1        0.1410
     21 C          -2.3873    8.7836    0.0219 C.2     1  LIG1        0.0368
     22 C          -3.7272    9.2172    0.0225 C.2     1  LIG1        0.0066
     23 C          -2.1480    7.3943   -0.0002 C.2     1  LIG1        0.0297
     24 C          -4.7837    8.3095    0.0014 C.2     1  LIG1        0.0153
     25 H          -3.9343   10.2849    0.0395 H       1  LIG1        0.0194
     26 C          -3.2024    6.4877   -0.0213 C.2     1  LIG1       -0.0637
     27 C          -4.5267    6.9382   -0.0207 C.3     1  LIG1        0.0178
     28 H          -2.9921    5.4214   -0.0380 H       1  LIG1        0.0586
     29 C          -1.4443    9.6782    0.0419 C.1     1  LIG1       -0.0940
     30 C          -0.5729   10.5048    0.0604 C.2     1  LIG1        0.0551
     31 H           0.2033   11.2411    0.0768 H       1  LIG1        0.0888
     32 H          -5.5082    6.0860   -0.0403 H       1  LIG1        0.0402
     33 C          -6.0087    8.7448    0.0025 C.ar    1  LIG1        0.1798
     34 C          -6.6114    9.9856    0.0033 C.ar    1  LIG1        0.2413
     35 C          -8.0406    9.7525    0.0043 C.ar    1  LIG1        0.1366
     36 C          -8.2165    8.3841    0.0040 C.ar    1  LIG1        0.1138
     37 O          -6.9782    7.7410    0.0027 O.2     1  LIG1       -0.4579
     38 H          -9.2392    7.5817    0.0046 H       1  LIG1        0.1044
     39 O          -6.0343   11.1506    0.0033 O.3     1  LIG1       -0.2825
     40 C          -4.6145   10.9798    0.0032 C.3     2  LIG2       -0.0776
     41 H          -4.1399   11.9388    0.0030 H       1  LIG1        0.0194
     42 H          -4.3205   10.4366    0.8769 H       1  LIG1        0.0194
     43 H          -4.3207   10.4363   -0.8704 H       1  LIG1        0.0194
     44 N          -9.7679   11.4853    0.0062 N.1     1  LIG1       -0.1906
     45 C          -8.9584   10.6732    0.0053 C.1     1  LIG1        0.1062
@<TRIPOS>BOND
     1    11     8    1
     2    43    40    1
     3    32    27    1
     4    28    26    1
     5    26    27    1
     6    26    23    2
     7    27    24    1
     8    17    16   ar
     9    17    13   ar
    10     5     4   ar
    11     5     1   ar
    12    16    23    1
    13    16    15   ar
    14    23    21    1
    15    19    20    1
    16    19    30    1
    17    15    14   ar
    18    15    20    1
    19    14    13   ar
    20    14    18    1
    21    13     4    1
    22     4     3   ar
    23     9     8    1
    24     1     2   ar
    25     1     6    1
    26     2     3   ar
    27     2     7    1
    28     3    12    1
    29     8     7    1
    30     8    10    1
    31    24    33    1
    32    24    22    2
    33    33    37   ar
    34    33    34   ar
    35    37    36   ar
    36    41    40    1
    37    40    25    1
    38    40    42    1
    39    39    34    1
    40    34    35   ar
    41    36    35   ar
    42    36    38    1
    43    35    45    1
    44    45    44    3
    45    21    22    1
    46    21    29    2
    47    29    30    2
    48    30    31    1
