@<TRIPOS>MOLECULE
mol_data/noopt/geoms/mol2/12la12la12la12la.out
 46 49 0 0 0
SMALL
GASTEIGER

@<TRIPOS>ATOM
      1 C           0.1763    1.8460    0.0000 C.ar    1  LIG1        0.1342
      2 C           1.5558    1.8460    0.0000 C.ar    1  LIG1        0.1583
      3 C           1.9706    3.2334    0.0000 C.ar    1  LIG1        0.0292
      4 C           0.8165    3.9895   -0.0001 C.ar    1  LIG1        0.1770
      5 O          -0.3030    3.1567   -0.0002 O.2     1  LIG1       -0.4560
      6 H          -0.7504    0.9343    0.0000 H       1  LIG1        0.1068
      7 O           2.3515    0.8179    0.0001 O.3     1  LIG1       -0.4919
      8 C           1.5776   -0.3846    0.0001 C.3     1  LIG1        0.0789
      9 H           2.2328   -1.2305   -0.0000 H       1  LIG1        0.0660
     10 H           0.9604   -0.4116    0.8738 H       1  LIG1        0.0660
     11 H           0.9604   -0.4115   -0.8735 H       1  LIG1        0.0660
     12 H           3.1998    3.6567    0.0000 H       1  LIG1        0.0693
     13 C           0.5416    5.2601   -0.0001 C.ar    1  LIG1        0.2121
     14 C           1.2792    6.4258   -0.0001 C.ar    1  LIG1        0.1694
     15 C           0.3286    7.5182   -0.0001 C.ar    1  LIG1        0.0300
     16 C          -0.9274    6.9472   -0.0002 C.ar    1  LIG1        0.1780
     17 O          -0.8223    5.5559   -0.0003 O.2     1  LIG1       -0.4447
     18 O           2.5735    6.5485   -0.0000 O.3     1  LIG1       -0.4912
     19 C           3.1758    5.2515   -0.0000 C.3     1  LIG1        0.0790
     20 H           4.2410    5.3529   -0.0001 H       1  LIG1        0.0660
     21 H           2.8686    4.7155    0.8737 H       1  LIG1        0.0660
     22 H           2.8685    4.7155   -0.8736 H       1  LIG1        0.0660
     23 H           0.6282    8.7832   -0.0001 H       1  LIG1        0.0694
     24 C          -2.1481    7.3943   -0.0002 C.ar    1  LIG1        0.2121
     25 C          -2.7387    8.6410   -0.0002 C.ar    1  LIG1        0.1694
     26 C          -4.1701    8.4218   -0.0002 C.ar    1  LIG1        0.0300
     27 C          -4.3593    7.0551   -0.0003 C.ar    1  LIG1        0.1780
     28 O          -3.1273    6.4000   -0.0004 O.2     1  LIG1       -0.4447
     29 O          -2.1503    9.8003   -0.0001 O.3     1  LIG1       -0.4912
     30 C          -0.7323    9.6157   -0.0001 C.3     1  LIG1        0.0790
     31 H          -0.2484   10.5701   -0.0002 H       1  LIG1        0.0660
     32 H          -0.4436    9.0696    0.8736 H       1  LIG1        0.0660
     33 H          -0.4437    9.0695   -0.8737 H       1  LIG1        0.0660
     34 H          -5.0789    9.3514   -0.0002 H       1  LIG1        0.0694
     35 C          -5.3898    6.2627   -0.0003 C.ar    1  LIG1        0.2111
     36 C          -6.7591    6.4302   -0.0003 C.ar    1  LIG1        0.1687
     37 C          -7.3393    5.1034   -0.0003 C.ar    1  LIG1        0.0187
     38 C          -6.2855    4.2128   -0.0004 C.ar    1  LIG1        0.0964
     39 O          -5.0732    4.9035   -0.0005 O.2     1  LIG1       -0.4560
     40 H          -6.1669    2.9182   -0.0004 H       1  LIG1        0.1031
     41 O          -7.4241    7.5473   -0.0002 O.3     1  LIG1       -0.4912
     42 C          -6.5099    8.6469   -0.0002 C.3     1  LIG1        0.0790
     43 H          -7.0576    9.5661   -0.0003 H       1  LIG1        0.0660
     44 H          -5.8941    8.5988    0.8735 H       1  LIG1        0.0660
     45 H          -5.8940    8.5987   -0.8738 H       1  LIG1        0.0660
     46 H          -8.6107    4.8325   -0.0003 H       1  LIG1        0.0686
@<TRIPOS>BOND
     1    45    42    1
     2    33    30    1
     3    22    19    1
     4    11     8    1
     5    39    38   ar
     6    39    35   ar
     7    28    27   ar
     8    28    24   ar
     9    40    38    1
    10    38    37   ar
    11    43    42    1
    12    36    35   ar
    13    36    37   ar
    14    36    41    1
    15    27    35    1
    16    27    26   ar
    17    17    16   ar
    18    17    13   ar
    19    37    46    1
    20    42    41    1
    21    42    44    1
    22    31    30    1
    23    34    26    1
    24    24    25   ar
    25    24    16    1
    26    26    25   ar
    27    25    29    1
    28     5     4   ar
    29     5     1   ar
    30    16    15   ar
    31    30    29    1
    32    30    32    1
    33    20    19    1
    34    23    15    1
    35     4    13    1
    36     4     3   ar
    37    13    14   ar
    38    14    15   ar
    39    14    18    1
    40    19    18    1
    41    19    21    1
    42     9     8    1
    43    12     3    1
    44     6     1    1
    45     1     2   ar
    46     3     2   ar
    47     2     7    1
    48     8     7    1
    49     8    10    1
