@<TRIPOS>MOLECULE
mol_data/noopt/geoms/mol2/12ld4ha(330)12ei(180)4ee(130).out
 52 55 0 0 0
SMALL
GASTEIGER

@<TRIPOS>ATOM
      1 C           0.1763    1.8460    0.0000 C.ar    1  LIG1        0.1354
      2 C           1.5558    1.8460    0.0000 C.ar    1  LIG1        0.1756
      3 C           1.9706    3.2334    0.0000 C.ar    1  LIG1        0.1390
      4 C           0.8165    3.9895   -0.0001 C.ar    1  LIG1        0.1576
      5 O          -0.3030    3.1567   -0.0002 O.2     1  LIG1       -0.4578
      6 H          -0.7504    0.9343    0.0000 H       1  LIG1        0.1068
      7 O           2.3515    0.8179    0.0001 O.3     1  LIG1       -0.4907
      8 C           1.5776   -0.3846    0.0001 C.3     1  LIG1        0.0790
      9 H           2.2328   -1.2305   -0.0000 H       1  LIG1        0.0660
     10 H           0.9604   -0.4116    0.8738 H       1  LIG1        0.0660
     11 H           0.9604   -0.4115   -0.8735 H       1  LIG1        0.0660
     12 N           4.2839    4.0300    0.0000 N.1     1  LIG1       -0.1906
     13 C           3.1998    3.6567    0.0000 C.1     1  LIG1        0.1067
     14 C           1.4282    6.1706   -0.6106 C.ar    1  LIG1        0.0360
     15 C           1.0859    7.5364   -0.5825 C.ar    1  LIG1       -0.0297
     16 C           0.5416    5.2600   -0.0001 C.ar    1  LIG1        0.0393
     17 C          -0.0869    7.9782    0.0255 C.ar    1  LIG1        0.0203
     18 H           1.7560    8.2560   -1.0475 H       1  LIG1        0.0643
     19 C          -0.6294    5.7006    0.6070 C.ar    1  LIG1       -0.0486
     20 C          -0.9521    7.0616    0.6242 C.ar    1  LIG1       -0.0503
     21 H          -1.2968    4.9789    1.0711 H       1  LIG1        0.0625
     22 N           2.5359    5.8190   -1.1932 N.pl3   1  LIG1       -0.3574
     23 H           2.3716    5.0145   -1.7640 H       1  LIG1        0.1423
     24 H           2.8656    6.5710   -1.7640 H       1  LIG1        0.1423
     25 H          -2.0481    7.4676    1.1934 H       1  LIG1        0.0625
     26 C          -0.3719    9.2466    0.0329 C.ar    1  LIG1        0.1513
     27 C          -1.5313    9.9940    0.0386 C.ar    1  LIG1        0.0739
     28 C          -1.1283   11.3848    0.0458 C.ar    1  LIG1        0.0114
     29 C           0.2514   11.3950    0.0442 C.ar    1  LIG1        0.1410
     30 O           0.7411   10.0885    0.0364 O.2     1  LIG1       -0.4533
     31 C          -2.7571    9.5610    0.0376 C.1     1  LIG1       -0.0656
     32 C          -3.8897    9.1609    0.0368 C.1     1  LIG1       -0.1138
     33 H          -4.8986    8.8046    0.0360 H       1  LIG1        0.1232
     34 C          -1.9322   12.4068    0.0525 C.3     1  LIG1       -0.0349
     35 H          -2.8378   12.1449    0.5588 H       1  LIG1        0.0279
     36 H          -2.1560   12.6912   -0.9545 H       1  LIG1        0.0279
     37 H          -1.4644   13.2252    0.5587 H       1  LIG1        0.0279
     38 C           1.1098   13.3647    0.9862 C.ar    1  LIG1        0.0354
     39 C           2.1288   14.3361    0.9485 C.ar    1  LIG1       -0.0445
     40 C           1.1708   12.3140    0.0482 C.ar    1  LIG1        0.0341
     41 C           3.1641   14.2660    0.0191 C.ar    1  LIG1       -0.0451
     42 H           2.1008   15.1556    1.6632 H       1  LIG1        0.0630
     43 C           2.2042   12.2435   -0.8799 C.ar    1  LIG1       -0.0345
     44 C           3.2075   13.2180   -0.9012 C.ar    1  LIG1        0.0254
     45 H           2.2291   11.4235   -1.5930 H       1  LIG1        0.0637
     46 H           4.0886   15.1800    0.0125 H       1  LIG1        0.0630
     47 C           0.1702   13.4836    1.8768 C.1     1  LIG1       -0.0690
     48 C          -0.6980   13.5935    2.6996 C.1     1  LIG1       -0.1139
     49 H          -1.4714   13.6914    3.4325 H       1  LIG1        0.1232
     50 C           4.1709   13.1470   -1.7712 C.1     1  LIG1       -0.0696
     51 C           5.0611   13.0814   -2.5750 C.1     1  LIG1       -0.1139
     52 H           5.8540   13.0230   -3.2910 H       1  LIG1        0.1232
@<TRIPOS>BOND
     1    52    51    1
     2    51    50    3
     3    50    44    1
     4    24    22    1
     5    23    22    1
     6    45    43    1
     7    22    14    1
     8    18    15    1
     9    36    34    1
    10    44    43   ar
    11    44    41   ar
    12    43    40   ar
    13    11     8    1
    14    14    15   ar
    15    14    16   ar
    16    15    17   ar
    17     5     4   ar
    18     5     1   ar
    19    16     4    1
    20    16    19   ar
    21     4     3   ar
    22     9     8    1
    23     1     2   ar
    24     1     6    1
    25    12    13    3
    26     2     3   ar
    27     2     7    1
    28     3    13    1
    29     8     7    1
    30     8    10    1
    31    46    41    1
    32    41    39   ar
    33    17    26    1
    34    17    20   ar
    35    26    30   ar
    36    26    27   ar
    37    33    32    1
    38    30    29   ar
    39    32    31    3
    40    31    27    1
    41    27    28   ar
    42    29    28   ar
    43    29    40    1
    44    28    34    1
    45    40    38   ar
    46    34    37    1
    47    34    35    1
    48    19    20   ar
    49    19    21    1
    50    20    25    1
    51    39    38   ar
    52    39    42    1
    53    38    47    1
    54    47    48    3
    55    48    49    1
