@<TRIPOS>MOLECULE
mol_data/noopt/geoms/mol2/12ld6he(240)6ee(350)13al.out
 52 55 0 0 0
SMALL
GASTEIGER

@<TRIPOS>ATOM
      1 C           0.1763    1.8460    0.0000 C.ar    1  LIG1        0.1354
      2 C           1.5558    1.8460    0.0000 C.ar    1  LIG1        0.1756
      3 C           1.9706    3.2334    0.0000 C.ar    1  LIG1        0.1390
      4 C           0.8165    3.9895   -0.0001 C.ar    1  LIG1        0.1591
      5 O          -0.3030    3.1567   -0.0002 O.2     1  LIG1       -0.4577
      6 H          -0.7504    0.9343    0.0000 H       1  LIG1        0.1068
      7 O           2.3515    0.8179    0.0001 O.3     1  LIG1       -0.4907
      8 C           1.5776   -0.3846    0.0001 C.3     1  LIG1        0.0790
      9 H           2.2328   -1.2305   -0.0000 H       1  LIG1        0.0660
     10 H           0.9604   -0.4116    0.8738 H       1  LIG1        0.0660
     11 H           0.9604   -0.4115   -0.8735 H       1  LIG1        0.0660
     12 N           4.2839    4.0300    0.0000 N.1     1  LIG1       -0.1906
     13 C           3.1998    3.6567    0.0000 C.1     1  LIG1        0.1067
     14 C           0.9850    6.0836    1.0509 C.ar    1  LIG1        0.1277
     15 C           0.5416    5.2601   -0.0001 C.ar    1  LIG1        0.0593
     16 C          -0.1953    5.8387   -1.0351 C.ar    1  LIG1       -0.0302
     17 C          -0.4623    7.2080   -0.9859 C.ar    1  LIG1        0.0515
     18 C           0.0239    7.9481    0.1075 C.ar    1  LIG1        0.0911
     19 N           0.7365    7.4061    1.1143 N.ar    1  LIG1       -0.2304
     20 H          -0.5595    5.2269   -1.8725 H       1  LIG1        0.0639
     21 N           1.6745    5.5912    2.0369 N.pl3   1  LIG1       -0.3426
     22 H           1.6677    4.5927    1.9824 H       1  LIG1        0.1437
     23 H           2.6168    5.9215    1.9824 H       1  LIG1        0.1437
     24 C          -1.1443    7.7939   -1.9248 C.1     1  LIG1       -0.0675
     25 C          -1.7745    8.3353   -2.7924 C.1     1  LIG1       -0.1138
     26 H          -2.3358    8.8175   -3.5652 H       1  LIG1        0.1232
     27 C          -1.4957    9.7049    0.4578 C.ar    1  LIG1        0.1231
     28 C          -0.1987    9.2257    0.1980 C.ar    1  LIG1        0.0366
     29 C           0.8349   10.1509    0.0416 C.ar    1  LIG1       -0.0323
     30 C           0.5410   11.5114    0.1487 C.ar    1  LIG1        0.0528
     31 C          -0.7877   11.8927    0.4104 C.ar    1  LIG1        0.1039
     32 N          -1.7971   11.0136    0.5643 N.ar    1  LIG1       -0.2351
     33 H           1.8610    9.8141   -0.1633 H       1  LIG1        0.0638
     34 C          -2.4908    8.8825    0.6112 C.1     1  LIG1       -0.0491
     35 C          -3.4103    8.1226    0.7529 C.1     1  LIG1       -0.1124
     36 H          -4.2293    7.4458    0.8791 H       1  LIG1        0.1232
     37 C           1.4682   12.4121    0.0109 C.1     1  LIG1       -0.0674
     38 C           2.3249   13.2444   -0.1164 C.1     1  LIG1       -0.1138
     39 H           3.0880   13.9858   -0.2298 H       1  LIG1        0.1232
     40 C          -1.1110   13.1472    0.5190 C.ar    1  LIG1        0.0698
     41 C          -0.3283   14.2550    0.6089 C.ar    1  LIG1        0.0069
     42 C          -1.1995   15.3870    0.7112 C.ar    1  LIG1        0.1379
     43 C          -2.4762   14.9212    0.6777 C.ar    1  LIG1        0.0444
     44 N          -2.4266   13.5504    0.5605 N.ar    1  LIG1       -0.3564
     45 H          -3.2155   12.9476    0.5128 H       1  LIG1        0.1655
     46 H          -3.6082   15.5576    0.7385 H       1  LIG1        0.0844
     47 H           0.9714   14.2785    0.6041 H       1  LIG1        0.0676
     48 O          -0.8397   16.6318    0.8165 O.3     1  LIG1       -0.4936
     49 C           0.5874   16.7145    0.8551 C.3     1  LIG1        0.0789
     50 H           0.8831   17.7391    0.9416 H       1  LIG1        0.0660
     51 H           0.9539   16.1652    1.6971 H       1  LIG1        0.0660
     52 H           0.9931   16.3009   -0.0445 H       1  LIG1        0.0660
@<TRIPOS>BOND
     1    26    25    1
     2    25    24    3
     3    24    17    1
     4    20    16    1
     5    16    17   ar
     6    16    15   ar
     7    17    18   ar
     8    11     8    1
     9    39    38    1
    10    33    29    1
    11    38    37    3
    12    52    49    1
    13     5     4   ar
    14     5     1   ar
    15     4    15    1
    16     4     3   ar
    17    15    14   ar
    18     9     8    1
    19     1     2   ar
    20     1     6    1
    21     2     3   ar
    22     2     7    1
    23    13     3    1
    24    13    12    3
    25     8     7    1
    26     8    10    1
    27    37    30    1
    28    29    30   ar
    29    29    28   ar
    30    18    28    1
    31    18    19   ar
    32    30    31   ar
    33    28    27   ar
    34    31    40    1
    35    31    32   ar
    36    27    32   ar
    37    27    34    1
    38    45    44    1
    39    40    44   ar
    40    40    41   ar
    41    44    43   ar
    42    47    41    1
    43    41    42   ar
    44    34    35    3
    45    43    42   ar
    46    43    46    1
    47    42    48    1
    48    35    36    1
    49    48    49    1
    50    49    50    1
    51    49    51    1
    52    14    19   ar
    53    14    21    1
    54    23    21    1
    55    22    21    1
