@<TRIPOS>MOLECULE
mol_data/noopt/geoms/mol2/12ld6fh(170)6fa(300)4df(340).out
 48 51 0 0 0
SMALL
GASTEIGER

@<TRIPOS>ATOM
      1 C           0.1763    1.8460    0.0000 C.ar    1  LIG1        0.1354
      2 C           1.5558    1.8460    0.0000 C.ar    1  LIG1        0.1756
      3 C           1.9706    3.2334    0.0000 C.ar    1  LIG1        0.1391
      4 C           0.8165    3.9895   -0.0001 C.ar    1  LIG1        0.1610
      5 O          -0.3030    3.1567   -0.0002 O.2     1  LIG1       -0.4577
      6 H          -0.7504    0.9343    0.0000 H       1  LIG1        0.1068
      7 O           2.3515    0.8179    0.0001 O.3     1  LIG1       -0.4907
      8 C           1.5776   -0.3846    0.0001 C.3     1  LIG1        0.0790
      9 H           2.2328   -1.2305   -0.0000 H       1  LIG1        0.0660
     10 H           0.9604   -0.4116    0.8738 H       1  LIG1        0.0660
     11 H           0.9604   -0.4115   -0.8735 H       1  LIG1        0.0660
     12 N           4.2839    4.0300    0.0000 N.1     1  LIG1       -0.1906
     13 C           3.1998    3.6567    0.0000 C.1     1  LIG1        0.1067
     14 C           1.5597    6.2080   -0.2109 C.ar    1  LIG1        0.2239
     15 C           0.5416    5.2601   -0.0001 C.ar    1  LIG1        0.0817
     16 C          -0.7615    5.7162    0.2071 C.ar    1  LIG1       -0.0231
     17 C          -1.0017    7.0913    0.1971 C.ar    1  LIG1        0.0520
     18 C           0.0826    7.9608   -0.0219 C.ar    1  LIG1        0.1005
     19 N           1.3458    7.5380   -0.2237 N.ar    1  LIG1       -0.2104
     20 H          -1.5828    5.0055    0.3762 H       1  LIG1        0.0645
     21 O           2.7885    5.8322   -0.4084 O.3     1  LIG1       -0.4919
     22 H           3.3560    6.6050   -0.4571 H       1  LIG1        0.2938
     23 N          -2.1972    7.5661    0.3853 N.pl3   1  LIG1       -0.3563
     24 H          -2.2657    8.4719   -0.0329 H       1  LIG1        0.1424
     25 H          -2.8685    6.9542   -0.0329 H       1  LIG1        0.1424
     26 C          -0.7893    9.8876    1.0007 C.ar    1  LIG1        0.2223
     27 C          -0.0907    9.2491   -0.0403 C.ar    1  LIG1        0.0636
     28 C           0.4080   10.0292   -1.0852 C.ar    1  LIG1       -0.0454
     29 C           0.1939   11.4083   -1.0555 C.ar    1  LIG1       -0.0348
     30 C          -0.5171   11.9543    0.0288 C.ar    1  LIG1        0.0762
     31 N          -1.0049   11.2166    1.0453 N.ar    1  LIG1       -0.2124
     32 H           0.9580    9.5656   -1.9163 H       1  LIG1        0.0626
     33 O          -1.2723    9.2040    1.9955 O.3     1  LIG1       -0.4919
     34 H          -0.6523    8.5133    2.2406 H       1  LIG1        0.2937
     35 H           0.6379   12.1778   -2.0046 H       1  LIG1        0.0639
     36 C           0.2646   14.1452   -0.2763 C.ar    1  LIG1        0.0611
     37 C          -0.0275   15.5194   -0.1781 C.ar    1  LIG1       -0.0403
     38 C          -0.7417   13.2327    0.1013 C.ar    1  LIG1        0.0213
     39 C          -1.2662   15.9674    0.2751 C.ar    1  LIG1       -0.0189
     40 H           0.7348   16.2407   -0.4641 H       1  LIG1        0.0632
     41 C          -1.9785   13.6794    0.5538 C.ar    1  LIG1       -0.0098
     42 C          -2.2497   15.0487    0.6439 C.ar    1  LIG1        0.1176
     43 H          -2.7380   12.9560    0.8391 H       1  LIG1        0.0661
     44 H          -1.5020   17.2435    0.3531 H       1  LIG1        0.0654
     45 N           2.4734   13.4733   -1.0858 N.1     1  LIG1       -0.1908
     46 C           1.4383   13.7882   -0.7064 C.1     1  LIG1        0.0998
     47 O          -3.4076   15.4605    1.0677 O.3     1  LIG1       -0.5067
     48 H          -3.9962   14.7093    1.1722 H       1  LIG1        0.2921
@<TRIPOS>BOND
     1    35    29    1
     2    32    28    1
     3    45    46    3
     4    28    29   ar
     5    28    27   ar
     6    29    30   ar
     7    11     8    1
     8    46    36    1
     9    40    37    1
    10    22    21    1
    11    21    14    1
    12    36    37   ar
    13    36    38   ar
    14    19    14   ar
    15    19    18   ar
    16    14    15   ar
    17    37    39   ar
    18    27    18    1
    19    27    26   ar
    20    25    23    1
    21    24    23    1
    22    18    17   ar
    23     5     4   ar
    24     5     1   ar
    25    15     4    1
    26    15    16   ar
    27     4     3   ar
    28     9     8    1
    29     1     2   ar
    30     1     6    1
    31     2     3   ar
    32     2     7    1
    33    13     3    1
    34    13    12    3
    35     8     7    1
    36     8    10    1
    37    30    38    1
    38    30    31   ar
    39    38    41   ar
    40    17    16   ar
    41    17    23    1
    42    16    20    1
    43    39    44    1
    44    39    42   ar
    45    41    42   ar
    46    41    43    1
    47    42    47    1
    48    26    31   ar
    49    26    33    1
    50    47    48    1
    51    33    34    1
