@<TRIPOS>MOLECULE
mol_data/noopt/geoms/mol2/12ld13da(50)12df(220)12dd(20).out
 41 44 0 0 0
SMALL
GASTEIGER

@<TRIPOS>ATOM
      1 C           0.1763    1.8460    0.0000 C.ar    1  LIG1        0.1355
      2 C           1.5558    1.8460    0.0000 C.ar    1  LIG1        0.1757
      3 C           1.9706    3.2334    0.0000 C.ar    1  LIG1        0.1404
      4 C           0.8165    3.9895   -0.0001 C.ar    1  LIG1        0.1731
      5 O          -0.3030    3.1567   -0.0002 O.2     1  LIG1       -0.4563
      6 H          -0.7504    0.9343    0.0000 H       1  LIG1        0.1068
      7 O           2.3515    0.8179    0.0001 O.3     1  LIG1       -0.4907
      8 C           1.5776   -0.3846    0.0001 C.3     1  LIG1        0.0790
      9 H           2.2328   -1.2305   -0.0000 H       1  LIG1        0.0660
     10 H           0.9604   -0.4116    0.8738 H       1  LIG1        0.0660
     11 H           0.9604   -0.4115   -0.8735 H       1  LIG1        0.0660
     12 N           4.2839    4.0300    0.0000 N.1     1  LIG1       -0.1906
     13 C           3.1998    3.6567    0.0000 C.1     1  LIG1        0.1067
     14 C           0.5416    5.2601   -0.0001 C.ar    1  LIG1        0.1016
     15 C           1.0367    6.2696    0.7639 C.ar    1  LIG1        0.0807
     16 C           0.3876    7.4771    0.3502 C.ar    1  LIG1       -0.0152
     17 C          -0.4745    7.1526   -0.6497 C.ar    1  LIG1        0.0853
     18 N          -0.3837    5.7963   -0.8670 N.ar    1  LIG1       -0.3483
     19 H          -0.9033    5.2853   -1.5430 H       1  LIG1        0.1661
     20 N           2.7242    6.0551    2.5225 N.1     1  LIG1       -0.1908
     21 C           1.9334    6.1556    1.6983 C.1     1  LIG1        0.1014
     22 H           0.5840    8.6660    0.8379 H       1  LIG1        0.0653
     23 C          -1.2828    7.8992   -1.3419 C.ar    1  LIG1        0.1730
     24 C          -2.1991    7.6843   -2.3505 C.ar    1  LIG1        0.1410
     25 C          -2.7680    8.9755   -2.6761 C.ar    1  LIG1        0.1843
     26 C          -2.1615    9.8942   -1.8444 C.ar    1  LIG1        0.2144
     27 O          -1.2419    9.2547   -1.0124 O.2     1  LIG1       -0.4451
     28 N          -2.7843    5.5602   -3.4144 N.1     1  LIG1       -0.1906
     29 C          -2.5100    6.5557   -2.9158 C.1     1  LIG1        0.1067
     30 O          -3.6740    9.1976   -3.5817 O.3     1  LIG1       -0.5023
     31 H          -4.1128    8.3735   -3.8048 H       1  LIG1        0.2923
     32 C          -2.2477   11.1787   -1.6638 C.ar    1  LIG1        0.1920
     33 C          -1.3904   12.1713   -1.2362 C.ar    1  LIG1        0.1179
     34 C          -2.1401   13.4098   -1.2700 C.ar    1  LIG1        0.1075
     35 C          -3.4063   13.0916   -1.7164 C.ar    1  LIG1        0.1114
     36 O          -3.4972   11.7218   -1.9660 O.2     1  LIG1       -0.4570
     37 H          -4.4998   13.7546   -1.9503 H       1  LIG1        0.1043
     38 N           0.9450   11.9379   -0.5454 N.1     1  LIG1       -0.1907
     39 C          -0.1495   12.0473   -0.8692 C.1     1  LIG1        0.1044
     40 N          -1.2811   15.6140   -0.6462 N.1     1  LIG1       -0.1907
     41 C          -1.6837   14.5810   -0.9386 C.1     1  LIG1        0.1036
@<TRIPOS>BOND
     1    31    30    1
     2    30    25    1
     3    28    29    3
     4    29    24    1
     5    25    24   ar
     6    25    26   ar
     7    24    23   ar
     8    36    35   ar
     9    36    32   ar
    10    37    35    1
    11    26    32    1
    12    26    27   ar
    13    35    34   ar
    14    32    33   ar
    15    19    18    1
    16    23    27   ar
    17    23    17    1
    18    34    33   ar
    19    34    41    1
    20    33    39    1
    21    41    40    3
    22    11     8    1
    23    39    38    3
    24    18    17   ar
    25    18    14   ar
    26    17    16   ar
    27     5     4   ar
    28     5     1   ar
    29    14     4    1
    30    14    15   ar
    31     4     3   ar
    32     9     8    1
    33     1     6    1
    34     1     2   ar
    35    13    12    3
    36    13     3    1
    37     3     2   ar
    38     2     7    1
    39     8     7    1
    40     8    10    1
    41    16    15   ar
    42    16    22    1
    43    15    21    1
    44    21    20    3
