@<TRIPOS>MOLECULE
mol_data/noopt/geoms/mol2/12ld6li-4df13fa-13al-13la4ee6ah.out
 100 105 0 0 0
SMALL
GASTEIGER

@<TRIPOS>ATOM
      1 C           0.1763    1.8460    0.0000 C.ar    1  LIG1        0.1354
      2 C           1.5558    1.8460    0.0000 C.ar    1  LIG1        0.1756
      3 C           1.9706    3.2334    0.0000 C.ar    1  LIG1        0.1391
      4 C           0.8165    3.9895   -0.0001 C.ar    1  LIG1        0.1609
      5 O          -0.3030    3.1567   -0.0002 O.2     1  LIG1       -0.4577
      6 H          -0.7504    0.9343    0.0000 H       1  LIG1        0.1068
      7 O           2.3515    0.8179    0.0001 O.3     1  LIG1       -0.4907
      8 C           1.5776   -0.3846    0.0001 C.3     1  LIG1        0.0790
      9 H           2.2328   -1.2305   -0.0000 H       1  LIG1        0.0660
     10 H           0.9604   -0.4116    0.8738 H       1  LIG1        0.0660
     11 H           0.9604   -0.4115   -0.8735 H       1  LIG1        0.0660
     12 N           4.2839    4.0300    0.0000 N.1     1  LIG1       -0.1906
     13 C           3.1998    3.6567    0.0000 C.1     1  LIG1        0.1067
     14 C          -0.7951    5.6985   -0.0211 C.ar    1  LIG1        0.2260
     15 C           0.5416    5.2601   -0.0001 C.ar    1  LIG1        0.0804
     16 C           1.5571    6.2179    0.0209 C.ar    1  LIG1       -0.0407
     17 C           1.2066    7.5691    0.0200 C.ar    1  LIG1       -0.0201
     18 C          -0.1586    7.9086   -0.0020 C.ar    1  LIG1        0.0787
     19 N          -1.1512    6.9977   -0.0223 N.ar    1  LIG1       -0.2120
     20 H           2.6132    5.9133    0.0367 H       1  LIG1        0.0630
     21 O          -1.7753    4.8448   -0.0410 O.3     1  LIG1       -0.4792
     22 C          -3.0205    5.5479   -0.0484 C.3     1  LIG1        0.0804
     23 H          -3.8270    4.8449   -0.0649 H       1  LIG1        0.0660
     24 H          -3.0934    6.1536    0.8307 H       1  LIG1        0.0660
     25 H          -3.0730    6.1713   -0.9164 H       1  LIG1        0.0660
     26 C           2.1150    8.4992    0.0389 C.3     1  LIG1       -0.0216
     27 H           1.7341    9.3595    0.5485 H       1  LIG1        0.0854
     28 H           2.3744    8.7649   -0.9646 H       1  LIG1        0.0317
     29 H           2.9841    8.1387    0.5484 H       1  LIG1        0.0317
     30 C           0.4318   10.1792   -0.0038 C.ar    1  LIG1        0.0048
     31 C          -0.0270   11.5107   -0.0040 C.ar    1  LIG1       -0.0397
     32 C          -0.5350    9.1529   -0.0037 C.ar    1  LIG1        0.0129
     33 C          -1.3876   11.8095   -0.0047 C.ar    1  LIG1        0.0439
     34 H           0.7020   12.3179   -0.0039 H       1  LIG1        0.0632
     35 C          -1.8934    9.4506   -0.0044 C.ar    1  LIG1       -0.0097
     36 C          -2.3293   10.7797   -0.0050 C.ar    1  LIG1        0.1267
     37 H          -2.6194    8.6415   -0.0042 H       1  LIG1        0.0661
     38 N           2.8444    9.7727   -0.0030 N.2     1  LIG1       -0.1571
     39 C           1.7137    9.9632   -0.0034 C.2     1  LIG1        0.0577
     40 O          -3.6006   11.0520   -0.0055 O.3     1  LIG1       -0.5061
     41 H          -4.1034   10.2342   -0.0057 H       1  LIG1        0.2922
     42 C          -1.7760   13.0501   -0.0051 C.ar    1  LIG1        0.0925
     43 C          -1.0523   14.2008   -0.0057 C.ar    1  LIG1        0.1428
     44 C          -1.9814   15.2904   -0.0047 C.ar    1  LIG1        0.0072
     45 C          -3.2321   14.7576   -0.0053 C.ar    1  LIG1        0.0669
     46 N          -3.1109   13.3863   -0.0051 N.ar    1  LIG1       -0.3500
     47 H          -3.8673   12.7413   -0.0055 H       1  LIG1        0.1661
     48 O           0.2446   14.2914   -0.0055 O.3     1  LIG1       -0.5046
     49 H           0.5012   15.2165   -0.0055 H       1  LIG1        0.2922
     50 H          -1.6872   16.5567   -0.0038 H       1  LIG1        0.0676
     51 C          -4.3959   15.3370   -0.0050 C.ar    1  LIG1        0.0641
     52 C          -4.7244   16.6560    0.0115 C.ar    1  LIG1       -0.0265
     53 C          -6.1538   16.7409    0.0041 C.ar    1  LIG1        0.0117
     54 C          -6.6360   15.4700   -0.0183 C.ar    1  LIG1        0.0750
     55 N          -5.5631   14.6074   -0.0235 N.ar    1  LIG1       -0.3513
     56 H          -5.6219   13.6153   -0.0388 H       1  LIG1        0.1660
     57 H          -3.8913   17.6539    0.0318 H       1  LIG1        0.0645
     58 O          -6.8632   17.8303    0.0161 O.3     1  LIG1       -0.2383
     59 C          -5.9940   18.9658    0.0204 C.3     2  LIG2       -0.0681
     60 H          -6.5782   19.8622    0.0301 H       2  LIG2        0.0227
     61 H          -5.3723   18.9358    0.8909 H       2  LIG2        0.0227
     62 H          -5.3810   18.9491   -0.8564 H       2  LIG2        0.0227
     63 C          -7.8600   15.0323   -0.0326 C.ar    1  LIG1        0.1112
     64 C          -9.0389   15.7093   -0.0260 C.ar    1  LIG1        0.2061
     65 C         -10.0903   14.7373   -0.0482 C.ar    1  LIG1        0.0112
     66 C          -9.5077   13.5092   -0.0691 C.ar    1  LIG1        0.0519
     67 N          -8.1424   13.6852   -0.0592 N.ar    1  LIG1       -0.3499
     68 H          -7.4675   12.9555   -0.0701 H       1  LIG1        0.1661
     69 O          -9.1815   17.0013   -0.0023 O.3     1  LIG1       -0.2856
     70 C          -7.8939   17.6235    0.0063 C.3     1  LIG1        0.0718
     71 H          -8.0118   18.6868    0.0256 H       1  LIG1        0.0555
     72 H          -7.3516   17.3089    0.8734 H       1  LIG1        0.0555
     73 H          -7.3550   17.3403   -0.8736 H       1  LIG1        0.0555
     74 H         -11.3673   14.9806   -0.0488 H       1  LIG1        0.0677
     75 C         -11.4427   12.1833   -0.1059 C.ar    1  LIG1        0.0344
     76 C         -11.9700   10.8776   -0.1308 C.ar    1  LIG1       -0.0368
     77 C         -10.0399   12.3235   -0.0935 C.ar    1  LIG1        0.0150
     78 C         -11.1391    9.7596   -0.1435 C.ar    1  LIG1        0.0002
     79 H         -13.0497   10.7467   -0.1406 H       1  LIG1        0.0636
     80 C          -9.2099   11.2077   -0.1061 C.ar    1  LIG1       -0.0355
     81 C          -9.7528    9.9188   -0.1312 C.ar    1  LIG1        0.0331
     82 H          -8.1313   11.3419   -0.0960 H       1  LIG1        0.0637
     83 C         -12.2686   13.1872   -0.0954 C.1     1  LIG1       -0.0690
     84 C         -13.0317   14.1148   -0.0857 C.1     1  LIG1       -0.1139
     85 H         -13.7115   14.9411   -0.0770 H       1  LIG1        0.1232
     86 C          -8.9720    8.8795   -0.1428 C.1     1  LIG1       -0.0690
     87 C          -8.2505    7.9191   -0.1534 C.1     1  LIG1       -0.1139
     88 H          -7.6079    7.0637   -0.1629 H       1  LIG1        0.1232
     89 C         -10.8323    7.4309   -0.1790 C.ar    1  LIG1        0.0354
     90 C         -11.6598    8.5686   -0.1666 C.ar    1  LIG1        0.0032
     91 C         -13.0439    8.3866   -0.1792 C.ar    1  LIG1       -0.0304
     92 C         -13.5504    7.0861   -0.2039 C.ar    1  LIG1        0.0435
     93 C         -12.6420    6.0117   -0.2150 C.ar    1  LIG1        0.0482
     94 N         -11.3039    6.1692   -0.2028 N.ar    1  LIG1       -0.2608
     95 H         -13.7220    9.2517   -0.1711 H       1  LIG1        0.0643
     96 H         -13.0650    4.7827   -0.2378 H       1  LIG1        0.0848
     97 H          -9.5378    7.5492   -0.1679 H       1  LIG1        0.0836
     98 N         -14.8312    6.8638   -0.2166 N.pl3   1  LIG1       -0.3568
     99 H         -15.2946    7.6121   -0.6913 H       1  LIG1        0.1424
    100 H         -15.0154    6.0032   -0.6913 H       1  LIG1        0.1424
@<TRIPOS>BOND
     1    28    26    1
     2    25    22    1
     3    73    70    1
     4    11     8    1
     5    62    59    1
     6   100    98    1
     7    99    98    1
     8    96    93    1
     9    98    92    1
    10    93    92   ar
    11    93    94   ar
    12    92    91   ar
    13    94    89   ar
    14    91    95    1
    15    91    90   ar
    16    89    97    1
    17    89    90   ar
    18    90    78    1
    19    88    87    1
    20    87    86    3
    21    78    81   ar
    22    78    76   ar
    23    86    81    1
    24    79    76    1
    25    81    80   ar
    26    76    75   ar
    27    80    82    1
    28    80    77   ar
    29    75    83    1
    30    75    77   ar
    31    83    84    3
    32    77    66    1
    33    84    85    1
    34    68    67    1
    35    66    67   ar
    36    66    65   ar
    37    23    22    1
    38    67    63   ar
    39    74    65    1
    40    22    21    1
    41    22    24    1
    42    65    64   ar
    43    21    14    1
    44    56    55    1
    45    63    64   ar
    46    63    54    1
    47    64    69    1
    48    55    54   ar
    49    55    51   ar
    50    19    14   ar
    51    19    18   ar
    52    14    15   ar
    53    54    53   ar
    54    41    40    1
    55    43    48    1
    56    43    42   ar
    57    43    44   ar
    58    40    36    1
    59    47    46    1
    60    48    49    1
    61    45    46   ar
    62    45    51    1
    63    45    44   ar
    64    46    42   ar
    65    42    33    1
    66    36    33   ar
    67    36    35   ar
    68    51    52   ar
    69    33    31   ar
    70    44    50    1
    71    35    37    1
    72    35    32   ar
    73    31    34    1
    74    31    30   ar
    75    30    32   ar
    76    30    39    1
    77    32    18    1
    78    39    38    2
    79    39    27    1
    80    18    17   ar
    81     5     4   ar
    82     5     1   ar
    83    15     4    1
    84    15    16   ar
    85     4     3   ar
    86     9     8    1
    87     2     3   ar
    88     2     1   ar
    89     2     7    1
    90    13    12    3
    91    13     3    1
    92     6     1    1
    93     8     7    1
    94     8    10    1
    95    53    52   ar
    96    70    58    1
    97    70    71    1
    98    70    72    1
    99    52    57    1
   100    17    16   ar
   101    17    26    1
   102    59    60    1
   103    59    61    1
   104    16    20    1
   105    26    29    1
