@<TRIPOS>MOLECULE
mol_data/noopt/geoms/mol2/12ld12ei6fe-4ia12fa-4dh13fl13lh.out
 99 102 0 0 0
SMALL
GASTEIGER

@<TRIPOS>ATOM
      1 C           0.1763    1.8460    0.0000 C.ar    1  LIG1        0.1354
      2 C           1.5558    1.8460    0.0000 C.ar    1  LIG1        0.1756
      3 C           1.9706    3.2334    0.0000 C.ar    1  LIG1        0.1390
      4 C           0.8165    3.9895   -0.0001 C.ar    1  LIG1        0.1577
      5 O          -0.3030    3.1567   -0.0002 O.2     1  LIG1       -0.4578
      6 H          -0.7504    0.9343    0.0000 H       1  LIG1        0.1068
      7 O           2.3515    0.8179    0.0001 O.3     1  LIG1       -0.4907
      8 C           1.5776   -0.3846    0.0001 C.3     1  LIG1        0.0790
      9 H           2.2328   -1.2305   -0.0000 H       1  LIG1        0.0660
     10 H           0.9604   -0.4116    0.8738 H       1  LIG1        0.0660
     11 H           0.9604   -0.4115   -0.8735 H       1  LIG1        0.0660
     12 N           4.2839    4.0300    0.0000 N.1     1  LIG1       -0.1906
     13 C           3.1998    3.6567    0.0000 C.1     1  LIG1        0.1067
     14 C           0.5416    5.2601   -0.0001 C.2     1  LIG1        0.0462
     15 C           1.2791    6.4258    0.0147 C.2     1  LIG1        0.0426
     16 C           0.3286    7.5182    0.0040 C.2     1  LIG1        0.0130
     17 C          -0.9273    6.9473   -0.0167 C.2     1  LIG1        0.1952
     18 O          -0.8221    5.5559   -0.0197 O.2     1  LIG1       -0.2868
     19 C           2.5732    6.5484    0.0345 C.1     1  LIG1       -0.0685
     20 C           3.7689    6.6617    0.0529 C.1     1  LIG1       -0.1139
     21 H           4.8340    6.7626    0.0692 H       1  LIG1        0.1232
     22 C           0.6282    8.7835    0.0126 C.3     1  LIG1       -0.0349
     23 H          -0.1406    9.3286    0.5194 H       1  LIG1        0.0279
     24 H           0.7118    9.1371   -0.9939 H       1  LIG1        0.0279
     25 H           1.5598    8.9260    0.5193 H       1  LIG1        0.0279
     26 C          -3.2328    6.4992   -0.0637 C.ar    1  LIG1        0.2240
     27 C          -2.1478    7.3944   -0.0335 C.ar    1  LIG1        0.0835
     28 C          -2.4143    8.7648   -0.0218 C.ar    1  LIG1       -0.0403
     29 C          -3.7434    9.1911   -0.0407 C.ar    1  LIG1       -0.0162
     30 C          -4.7601    8.2189   -0.0708 C.ar    1  LIG1        0.0786
     31 N          -4.5210    6.8930   -0.0822 N.ar    1  LIG1       -0.2121
     32 H          -1.5925    9.4944    0.0007 H       1  LIG1        0.0630
     33 O          -3.0354    5.2143   -0.0755 O.3     1  LIG1       -0.4919
     34 H          -2.0923    5.0350   -0.0784 H       1  LIG1        0.2938
     35 C          -4.0437   10.4559   -0.0311 C.3     1  LIG1        0.0011
     36 C          -4.3212   11.6245   -0.0222 C.3     2  LIG2       -0.0309
     37 H          -4.5684   12.6656   -0.0143 H       1  LIG1        0.0309
     38 C          -6.3628    9.9320   -0.0983 C.ar    1  LIG1       -0.0372
     39 C          -7.7331   10.2563   -0.1167 C.ar    1  LIG1       -0.0471
     40 C          -6.0126    8.5663   -0.0892 C.ar    1  LIG1        0.0040
     41 C          -8.7131    9.2663   -0.1262 C.ar    1  LIG1        0.0212
     42 H          -8.0254   11.3040   -0.1238 H       1  LIG1        0.0627
     43 C          -6.9906    7.5776   -0.0986 C.ar    1  LIG1       -0.0516
     44 C          -8.3467    7.9199   -0.1173 C.ar    1  LIG1       -0.0503
     45 H          -6.6952    6.5315   -0.0911 H       1  LIG1        0.0624
     46 C          -5.4946   10.9000   -0.0905 C.3     1  LIG1       -0.0230
     47 H          -5.9089   11.7465    0.4161 H       1  LIG1        0.0317
     48 H          -5.2525   11.1701   -1.0972 H       1  LIG1        0.0317
     49 H          -4.6081   10.5799    0.4160 H       1  LIG1        0.0362
     50 H          -9.2564    6.9913   -0.1259 H       1  LIG1        0.0625
     51 C          -9.9691    9.6015   -0.1432 C.ar    1  LIG1        0.1768
     52 C         -10.6698   10.7898   -0.1413 C.ar    1  LIG1        0.1632
     53 C         -12.0754   10.4424   -0.1687 C.ar    1  LIG1        0.0265
     54 C         -12.1403    9.0643   -0.1855 C.ar    1  LIG1        0.1406
     55 O         -10.8543    8.5230   -0.1704 O.2     1  LIG1       -0.4510
     56 O         -10.1887   11.9973   -0.1195 O.3     1  LIG1       -0.5032
     57 H         -10.9107   12.6299   -0.1141 H       1  LIG1        0.2923
     58 H         -13.0643   11.2862   -0.1755 H       1  LIG1        0.0692
     59 C         -14.4403    8.6035   -0.2247 C.ar    1  LIG1        0.0631
     60 C         -15.4373    7.6092   -0.2513 C.ar    1  LIG1       -0.0327
     61 C         -13.0948    8.1823   -0.2115 C.ar    1  LIG1        0.0365
     62 C         -15.1113    6.2549   -0.2647 C.ar    1  LIG1        0.0238
     63 H         -16.4819    7.9122   -0.2617 H       1  LIG1        0.0638
     64 C         -12.7689    6.8304   -0.2249 C.ar    1  LIG1       -0.0285
     65 C         -13.7737    5.8577   -0.2516 C.ar    1  LIG1        0.0346
     66 H         -11.7240    6.5309   -0.2141 H       1  LIG1        0.0643
     67 N         -15.1291   10.9510   -0.2036 N.1     1  LIG1       -0.1908
     68 C         -14.8063    9.8508   -0.2135 C.1     1  LIG1        0.0999
     69 N         -13.4630    4.5954   -0.2639 N.pl3   1  LIG1       -0.3574
     70 H         -14.1773    4.0809   -0.7384 H       1  LIG1        0.1423
     71 H         -12.5916    4.4712   -0.7385 H       1  LIG1        0.1423
     72 C         -16.0574    5.3635   -0.2893 C.ar    1  LIG1        0.0914
     73 C         -17.4087    5.5114   -0.2898 C.ar    1  LIG1        0.1506
     74 C         -17.9825    4.1998   -0.3224 C.ar    1  LIG1        0.0566
     75 C         -16.9565    3.3081   -0.3422 C.ar    1  LIG1        0.0788
     76 N         -15.7762    4.0163   -0.3216 N.ar    1  LIG1       -0.3495
     77 H         -14.8654    3.6181   -0.3294 H       1  LIG1        0.1661
     78 O         -18.0571    6.6379   -0.2637 O.3     1  LIG1       -0.5040
     79 H         -19.0012    6.4641   -0.2572 H       1  LIG1        0.2923
     80 O         -19.2500    3.9111   -0.3319 O.3     2  LIG2       -0.2383
     81 C         -20.0148    5.1194   -0.3355 C.3     3  LIG3       -0.0681
     82 H         -21.0579    4.8813   -0.3435 H       3  LIG3        0.0227
     83 H         -19.7857    5.6891    0.5409 H       3  LIG3        0.0227
     84 H         -19.7730    5.6920   -1.2064 H       3  LIG3        0.0227
     85 C         -16.9689    2.0085   -0.3738 C.ar    1  LIG1        0.1128
     86 C         -18.0117    1.1368   -0.3956 C.ar    1  LIG1        0.2259
     87 C         -17.4631   -0.1856   -0.4262 C.ar    1  LIG1        0.0902
     88 C         -16.1091   -0.0637   -0.4236 C.ar    1  LIG1        0.0269
     89 N         -15.8023    1.2779   -0.3911 N.ar    1  LIG1       -0.3548
     90 H         -14.8841    1.6586   -0.3822 H       1  LIG1        0.1655
     91 H         -15.1803   -0.9730   -0.4449 H       1  LIG1        0.0827
     92 O         -19.2735    1.4497   -0.3882 O.3     1  LIG1       -0.2836
     93 C         -19.4123    2.8730   -0.3855 C.3     2  LIG2        0.0718
     94 H         -20.4509    3.1301   -0.3796 H       2  LIG2        0.0555
     95 H         -18.9402    3.2758    0.4862 H       2  LIG2        0.0555
     96 H         -18.9496    3.2781   -1.2611 H       2  LIG2        0.0555
     97 N         -18.1329   -1.2995   -0.4523 N.pl3   1  LIG1       -0.3538
     98 H         -18.9995   -1.1562   -0.9303 H       1  LIG1        0.1425
     99 H         -17.6000   -1.9977   -0.9303 H       1  LIG1        0.1425
@<TRIPOS>BOND
     1    96    93    1
     2    84    81    1
     3    48    46    1
     4    24    22    1
     5    99    97    1
     6    98    97    1
     7    11     8    1
     8    71    69    1
     9    70    69    1
    10    97    87    1
    11    91    88    1
    12    87    88   ar
    13    87    86   ar
    14    88    89   ar
    15    86    92    1
    16    86    85   ar
    17    89    90    1
    18    89    85   ar
    19    93    94    1
    20    93    80    1
    21    93    95    1
    22    85    75    1
    23    82    81    1
    24    75    74   ar
    25    75    76   ar
    26    81    83    1
    27    77    76    1
    28    74    73   ar
    29    76    72   ar
    30    73    72   ar
    31    73    78    1
    32    72    62    1
    33    62    65   ar
    34    62    60   ar
    35    69    65    1
    36    78    79    1
    37    63    60    1
    38    65    64   ar
    39    60    59   ar
    40    64    66    1
    41    64    61   ar
    42    59    68    1
    43    59    61   ar
    44    68    67    3
    45    61    54    1
    46    54    55   ar
    47    54    53   ar
    48    58    53    1
    49    55    51   ar
    50    53    52   ar
    51    51    52   ar
    52    51    41    1
    53    52    56    1
    54    41    44   ar
    55    41    39   ar
    56    50    44    1
    57    42    39    1
    58    56    57    1
    59    44    43   ar
    60    39    38   ar
    61    43    45    1
    62    43    40   ar
    63    38    46    1
    64    38    40   ar
    65    46    47    1
    66    40    30    1
    67    31    30   ar
    68    31    26   ar
    69    34    33    1
    70    33    26    1
    71    30    29   ar
    72    26    27   ar
    73    29    35    1
    74    29    28   ar
    75    27    28   ar
    76    27    17    1
    77    35    49    1
    78    36    37    1
    79    28    32    1
    80    18    17    1
    81    17    16    2
    82     5     4   ar
    83     5     1   ar
    84     4    14    1
    85     4     3   ar
    86    14    15    2
    87     9     8    1
    88     3    13    1
    89     3     2   ar
    90     6     1    1
    91    12    13    3
    92     1     2   ar
    93     2     7    1
    94     8     7    1
    95     8    10    1
    96    16    22    1
    97    16    15    1
    98    22    25    1
    99    22    23    1
   100    15    19    1
   101    19    20    3
   102    20    21    1
