@<TRIPOS>MOLECULE
mol_data/noopt/geoms/mol2/12ld13hd(210)4ea(330)4ff(120).out
 49 52 0 0 0
SMALL
GASTEIGER

@<TRIPOS>ATOM
      1 C           0.1763    1.8460    0.0000 C.ar    1  LIG1        0.1355
      2 C           1.5558    1.8460    0.0000 C.ar    1  LIG1        0.1757
      3 C           1.9706    3.2334    0.0000 C.ar    1  LIG1        0.1404
      4 C           0.8165    3.9895   -0.0001 C.ar    1  LIG1        0.1737
      5 O          -0.3030    3.1567   -0.0002 O.2     1  LIG1       -0.4563
      6 H          -0.7504    0.9343    0.0000 H       1  LIG1        0.1068
      7 O           2.3515    0.8179    0.0001 O.3     1  LIG1       -0.4907
      8 C           1.5776   -0.3846    0.0001 C.3     1  LIG1        0.0790
      9 H           2.2328   -1.2305   -0.0000 H       1  LIG1        0.0660
     10 H           0.9604   -0.4116    0.8738 H       1  LIG1        0.0660
     11 H           0.9604   -0.4115   -0.8735 H       1  LIG1        0.0660
     12 N           4.2839    4.0300    0.0000 N.1     1  LIG1       -0.1906
     13 C           3.1998    3.6567    0.0000 C.1     1  LIG1        0.1067
     14 C           0.5416    5.2601   -0.0001 C.ar    1  LIG1        0.1061
     15 C          -0.5381    5.9289   -0.4849 C.ar    1  LIG1        0.0715
     16 C          -0.3316    7.3215   -0.2229 C.ar    1  LIG1        0.0983
     17 C           0.8644    7.4423    0.4121 C.ar    1  LIG1        0.0676
     18 N           1.4025    6.1827    0.5501 N.ar    1  LIG1       -0.3492
     19 H           2.2741    5.9727    0.9794 H       1  LIG1        0.1661
     20 N          -1.5661    5.3985   -1.0781 N.pl3   1  LIG1       -0.3552
     21 H          -2.0129    6.0868   -1.6496 H       1  LIG1        0.1424
     22 H          -1.2642    4.6356   -1.6497 H       1  LIG1        0.1424
     23 N          -1.8474    9.1511   -0.8065 N.1     1  LIG1       -0.1907
     24 C          -1.1370    8.2937   -0.5330 C.1     1  LIG1        0.1032
     25 C           2.8358    8.7100    0.5139 C.ar    1  LIG1        0.0344
     26 C           3.4617    9.8674    1.0157 C.ar    1  LIG1       -0.0379
     27 C           1.4834    8.4977    0.8512 C.ar    1  LIG1        0.0150
     28 C           2.7734   10.7750    1.8177 C.ar    1  LIG1       -0.0131
     29 H           4.5049   10.0506    0.7678 H       1  LIG1        0.0636
     30 C           0.7957    9.4034    1.6518 C.ar    1  LIG1       -0.0508
     31 C           1.4349   10.5476    2.1404 C.ar    1  LIG1       -0.0532
     32 H          -0.2466    9.2172    1.8980 H       1  LIG1        0.0625
     33 C           3.5299    7.9005   -0.2296 C.1     1  LIG1       -0.0690
     34 C           4.1714    7.1524   -0.9166 C.1     1  LIG1       -0.1139
     35 H           4.7427    6.4861   -1.5285 H       1  LIG1        0.1232
     36 H           0.7871   11.3906    2.8884 H       1  LIG1        0.0624
     37 C           2.9998   12.3956    3.4989 C.ar    1  LIG1        0.1248
     38 C           3.6891   13.5426    3.9375 C.ar    1  LIG1       -0.0161
     39 C           3.3822   11.8333    2.2638 C.ar    1  LIG1        0.0270
     40 C           4.7147   14.1063    3.1818 C.ar    1  LIG1       -0.0167
     41 H           3.4099   13.9927    4.8876 H       1  LIG1        0.0655
     42 C           4.4060   12.3956    1.5089 C.ar    1  LIG1       -0.0090
     43 C           5.0791   13.5350    1.9619 C.ar    1  LIG1        0.1177
     44 H           4.6824   11.9436    0.5598 H       1  LIG1        0.0661
     45 H           5.3300   15.1655    3.6170 H       1  LIG1        0.0655
     46 O           2.0520   11.9153    4.2480 O.3     1  LIG1       -0.5062
     47 H           2.2275   10.9897    4.4327 H       1  LIG1        0.2922
     48 O           6.0352   14.0564    1.2519 O.3     1  LIG1       -0.5067
     49 H           5.8376   14.9794    1.0769 H       1  LIG1        0.2921
@<TRIPOS>BOND
     1    22    20    1
     2    21    20    1
     3    35    34    1
     4    20    15    1
     5    34    33    3
     6    11     8    1
     7    23    24    3
     8    24    16    1
     9    15    16   ar
    10    15    14   ar
    11    33    25    1
    12    16    17   ar
    13     5     4   ar
    14     5     1   ar
    15     4    14    1
    16     4     3   ar
    17    14    18   ar
    18     9     8    1
    19    13    12    3
    20    13     3    1
    21     1     6    1
    22     1     2   ar
    23     3     2   ar
    24     2     7    1
    25     8     7    1
    26     8    10    1
    27    17    18   ar
    28    17    27    1
    29    25    27   ar
    30    25    26   ar
    31    18    19    1
    32    44    42    1
    33    29    26    1
    34    27    30   ar
    35    26    28   ar
    36    49    48    1
    37    48    43    1
    38    42    43   ar
    39    42    39   ar
    40    30    32    1
    41    30    31   ar
    42    28    31   ar
    43    28    39    1
    44    43    40   ar
    45    31    36    1
    46    39    37   ar
    47    40    45    1
    48    40    38   ar
    49    37    38   ar
    50    37    46    1
    51    38    41    1
    52    46    47    1
