@<TRIPOS>MOLECULE
mol_data/noopt/geoms/mol2/12ld13hf(200)12ha(280)4la(30).out
 48 51 0 0 0
SMALL
GASTEIGER

@<TRIPOS>ATOM
      1 C           0.1763    1.8460    0.0000 C.ar    1  LIG1        0.1355
      2 C           1.5558    1.8460    0.0000 C.ar    1  LIG1        0.1757
      3 C           1.9706    3.2334    0.0000 C.ar    1  LIG1        0.1404
      4 C           0.8165    3.9895   -0.0001 C.ar    1  LIG1        0.1738
      5 O          -0.3030    3.1567   -0.0002 O.2     1  LIG1       -0.4563
      6 H          -0.7504    0.9343    0.0000 H       1  LIG1        0.1068
      7 O           2.3515    0.8179    0.0001 O.3     1  LIG1       -0.4907
      8 C           1.5776   -0.3846    0.0001 C.3     1  LIG1        0.0790
      9 H           2.2328   -1.2305   -0.0000 H       1  LIG1        0.0660
     10 H           0.9604   -0.4116    0.8738 H       1  LIG1        0.0660
     11 H           0.9604   -0.4115   -0.8735 H       1  LIG1        0.0660
     12 N           4.2839    4.0300    0.0000 N.1     1  LIG1       -0.1906
     13 C           3.1998    3.6567    0.0000 C.1     1  LIG1        0.1067
     14 C           0.5416    5.2601   -0.0001 C.ar    1  LIG1        0.1086
     15 C          -0.6038    5.9147   -0.3281 C.ar    1  LIG1        0.0961
     16 C          -0.3618    7.3149   -0.1512 C.ar    1  LIG1        0.1667
     17 C           0.9202    7.4544    0.2788 C.ar    1  LIG1        0.1283
     18 N           1.4771    6.1989    0.3722 N.ar    1  LIG1       -0.3448
     19 H           2.4069    6.0015    0.6630 H       1  LIG1        0.1663
     20 N          -1.7123    5.3669   -0.7296 N.pl3   1  LIG1       -0.3534
     21 H          -2.2277    6.0229   -1.2809 H       1  LIG1        0.1425
     22 H          -1.5043    4.5590   -1.2809 H       1  LIG1        0.1425
     23 O          -1.2094    8.2780   -0.3615 O.3     1  LIG1       -0.5030
     24 H          -2.0976    7.9176   -0.4133 H       1  LIG1        0.2923
     25 C           1.5989    8.5227    0.5758 C.ar    1  LIG1        0.1759
     26 C           2.3895    9.4113   -0.1229 C.ar    1  LIG1        0.0732
     27 C           2.8517   10.3958    0.8333 C.ar    1  LIG1        0.0057
     28 C           2.3124   10.0433    2.0533 C.ar    1  LIG1        0.1411
     29 O           1.5360    8.8916    1.9203 O.2     1  LIG1       -0.4512
     30 N           2.6794    9.3924   -1.3900 N.pl3   1  LIG1       -0.3550
     31 H           2.2419    8.6027   -1.8202 H       1  LIG1        0.1424
     32 H           2.3485   10.2322   -1.8203 H       1  LIG1        0.1424
     33 H           3.6247   11.4064    0.5666 H       1  LIG1        0.0674
     34 C           3.3828   10.1116    4.1398 C.ar    1  LIG1        0.1307
     35 C           3.3901   10.6592    5.4373 C.ar    1  LIG1       -0.0192
     36 C           2.3604   10.5230    3.2606 C.ar    1  LIG1        0.0589
     37 C           2.4235   11.5765    5.8433 C.ar    1  LIG1       -0.0583
     38 H           4.1701   10.3553    6.1319 H       1  LIG1        0.0654
     39 C           1.3951   11.4387    3.6653 C.ar    1  LIG1       -0.0476
     40 C           1.4196   11.9718    4.9583 C.ar    1  LIG1       -0.0609
     41 H           0.6169   11.7401    2.9689 H       1  LIG1        0.0626
     42 H           2.4604   12.0622    7.0486 H       1  LIG1        0.0619
     43 O           4.3115    9.2603    3.8191 O.3     1  LIG1       -0.4944
     44 C           3.7415    7.9541    3.7012 C.3     1  LIG1        0.0788
     45 H           4.5061    7.2537    3.4371 H       1  LIG1        0.0660
     46 H           3.3049    7.6698    4.6359 H       1  LIG1        0.0660
     47 H           2.9869    7.9613    2.9427 H       1  LIG1        0.0660
     48 H           0.5145   12.8273    5.3312 H       1  LIG1        0.0618
@<TRIPOS>BOND
     1    32    30    1
     2    31    30    1
     3    30    26    1
     4    22    20    1
     5    21    20    1
     6    11     8    1
     7    20    15    1
     8    24    23    1
     9    23    16    1
    10    15    16   ar
    11    15    14   ar
    12    16    17   ar
    13    26    25   ar
    14    26    27   ar
    15     5     4   ar
    16     5     1   ar
    17    14     4    1
    18    14    18   ar
    19     4     3   ar
    20     9     8    1
    21    12    13    3
    22    13     3    1
    23     2     3   ar
    24     2     1   ar
    25     2     7    1
    26     1     6    1
    27     8     7    1
    28     8    10    1
    29    17    18   ar
    30    17    25    1
    31    18    19    1
    32    33    27    1
    33    25    29   ar
    34    27    28   ar
    35    29    28   ar
    36    28    36    1
    37    47    44    1
    38    41    39    1
    39    36    39   ar
    40    36    34   ar
    41    45    44    1
    42    39    40   ar
    43    44    43    1
    44    44    46    1
    45    43    34    1
    46    34    35   ar
    47    40    48    1
    48    40    37   ar
    49    35    37   ar
    50    35    38    1
    51    37    42    1
