@<TRIPOS>MOLECULE
mol_data/noopt/geoms/mol2/12le12le-.out
 28 29 0 0 0
SMALL
GASTEIGER

@<TRIPOS>ATOM
      1 C           0.1763    1.8460    0.0000 C.ar    1  LIG1        0.1355
      2 C           1.5558    1.8460    0.0000 C.ar    1  LIG1        0.1737
      3 C           1.9706    3.2334    0.0000 C.ar    1  LIG1        0.1152
      4 C           0.8165    3.9895   -0.0001 C.ar    1  LIG1        0.1924
      5 O          -0.3030    3.1567   -0.0002 O.2     1  LIG1       -0.4547
      6 H          -0.7504    0.9343    0.0000 H       1  LIG1        0.1068
      7 O           2.3515    0.8179    0.0001 O.3     1  LIG1       -0.4907
      8 C           1.5776   -0.3846    0.0001 C.3     1  LIG1        0.0790
      9 H           2.2328   -1.2305   -0.0000 H       1  LIG1        0.0660
     10 H           0.9604   -0.4116    0.8738 H       1  LIG1        0.0660
     11 H           0.9604   -0.4115   -0.8735 H       1  LIG1        0.0660
     12 C           3.1998    3.6567    0.0000 C.1     1  LIG1       -0.0621
     13 C           4.3355    4.0478    0.0000 C.1     1  LIG1       -0.1137
     14 H           5.3472    4.3962    0.0000 H       1  LIG1        0.1232
     15 C           0.5416    5.2601   -0.0001 C.ar    1  LIG1        0.2136
     16 C          -0.6119    6.0167   -0.0001 C.ar    1  LIG1        0.1842
     17 C          -0.1979    7.4043   -0.0001 C.ar    1  LIG1        0.1047
     18 C           1.1818    7.4036   -0.0002 C.ar    1  LIG1        0.1118
     19 O           1.6612    6.0932   -0.0003 O.2     1  LIG1       -0.4547
     20 H           2.1085    8.3153   -0.0002 H       1  LIG1        0.1043
     21 O          -1.8411    5.5933   -0.0000 O.3     1  LIG1       -0.4901
     22 C          -2.7313    6.7125   -0.0001 C.3     1  LIG1        0.0790
     23 H          -3.7429    6.3637   -0.0002 H       1  LIG1        0.0660
     24 H          -2.5587    7.3056    0.8736 H       1  LIG1        0.0660
     25 H          -2.5585    7.3057   -0.8737 H       1  LIG1        0.0660
     26 C          -0.9936    8.4323   -0.0001 C.1     1  LIG1       -0.0628
     27 C          -1.7288    9.3823   -0.0001 C.1     1  LIG1       -0.1137
     28 H          -2.3837   10.2284   -0.0001 H       1  LIG1        0.1232
@<TRIPOS>BOND
     1    25    22    1
     2    11     8    1
     3    19    18   ar
     4    19    15   ar
     5     5     4   ar
     6     5     1   ar
     7    23    22    1
     8    18    20    1
     9    18    17   ar
    10    28    27    1
    11    27    26    3
    12    16    17   ar
    13    16    15   ar
    14    16    21    1
    15    26    17    1
    16    15     4    1
    17     4     3   ar
    18    22    21    1
    19    22    24    1
    20     9     8    1
    21    14    13    1
    22     1     6    1
    23     1     2   ar
    24    13    12    3
    25    12     3    1
    26     3     2   ar
    27     2     7    1
    28     8     7    1
    29     8    10    1
