@<TRIPOS>MOLECULE
mol_data/noopt/geoms/mol2/12le4he13hf-13ai-.out
 51 54 0 0 0
SMALL
GASTEIGER

@<TRIPOS>ATOM
      1 C           0.1763    1.8460    0.0000 C.ar    1  LIG1        0.1354
      2 C           1.5558    1.8460    0.0000 C.ar    1  LIG1        0.1736
      3 C           1.9706    3.2334    0.0000 C.ar    1  LIG1        0.1120
      4 C           0.8165    3.9895   -0.0001 C.ar    1  LIG1        0.1556
      5 O          -0.3030    3.1567   -0.0002 O.2     1  LIG1       -0.4579
      6 H          -0.7504    0.9343    0.0000 H       1  LIG1        0.1068
      7 O           2.3515    0.8179    0.0001 O.3     1  LIG1       -0.4907
      8 C           1.5776   -0.3846    0.0001 C.3     1  LIG1        0.0790
      9 H           2.2328   -1.2305   -0.0000 H       1  LIG1        0.0660
     10 H           0.9604   -0.4116    0.8738 H       1  LIG1        0.0660
     11 H           0.9604   -0.4115   -0.8735 H       1  LIG1        0.0660
     12 C           3.1998    3.6567    0.0000 C.1     1  LIG1       -0.0622
     13 C           4.3355    4.0478    0.0000 C.1     1  LIG1       -0.1137
     14 H           5.3472    4.3962    0.0000 H       1  LIG1        0.1232
     15 C           1.5879    6.2051    0.0007 C.ar    1  LIG1        0.0361
     16 C           1.2379    7.5692    0.0022 C.ar    1  LIG1       -0.0300
     17 C           0.5416    5.2600   -0.0001 C.ar    1  LIG1        0.0404
     18 C          -0.0943    7.9766    0.0023 C.ar    1  LIG1        0.0174
     19 H           2.0295    8.3152    0.0030 H       1  LIG1        0.0643
     20 C          -0.7885    5.6662    0.0000 C.ar    1  LIG1       -0.0332
     21 C          -1.1159    7.0261    0.0011 C.ar    1  LIG1        0.0346
     22 H          -1.5772    4.9182   -0.0005 H       1  LIG1        0.0638
     23 N           2.8483    5.8866    0.0003 N.pl3   1  LIG1       -0.3574
     24 H           2.9712    5.0134   -0.4712 H       1  LIG1        0.1423
     25 H           3.3713    6.5965   -0.4712 H       1  LIG1        0.1423
     26 C          -2.3610    7.3999    0.0014 C.1     1  LIG1       -0.0690
     27 C          -3.5115    7.7452    0.0017 C.1     1  LIG1       -0.1139
     28 H          -4.5363    8.0529    0.0019 H       1  LIG1        0.1232
     29 C          -0.3815    9.2445    0.0036 C.ar    1  LIG1        0.0728
     30 C           0.4326   10.3332    0.0041 C.ar    1  LIG1        0.0930
     31 C          -0.4059   11.4941    0.0067 C.ar    1  LIG1        0.1649
     32 C          -1.6954   11.0638    0.0060 C.ar    1  LIG1        0.1072
     33 N          -1.6850    9.6872    0.0045 N.ar    1  LIG1       -0.3486
     34 H          -2.4909    9.1052    0.0036 H       1  LIG1        0.1661
     35 N           1.7325   10.3191    0.0039 N.pl3   1  LIG1       -0.3535
     36 H           2.0568    9.4990   -0.4676 H       1  LIG1        0.1425
     37 H           2.0746   11.1319   -0.4676 H       1  LIG1        0.1425
     38 O          -0.0106   12.7326    0.0090 O.3     1  LIG1       -0.5030
     39 H          -0.7752   13.3130    0.0096 H       1  LIG1        0.2923
     40 C          -2.8087   11.7351    0.0074 C.ar    1  LIG1        0.0668
     41 C          -3.0299   13.0762    0.0246 C.ar    1  LIG1       -0.0320
     42 C          -4.4478   13.2759    0.0184 C.ar    1  LIG1       -0.0325
     43 C          -5.0308   12.0480   -0.0041 C.ar    1  LIG1        0.0051
     44 N          -4.0309   11.1018   -0.0105 N.ar    1  LIG1       -0.3592
     45 H          -4.1694   10.1176   -0.0261 H       1  LIG1        0.1654
     46 H          -6.2861   11.7104   -0.0176 H       1  LIG1        0.0809
     47 H          -2.1192   14.0037    0.0447 H       1  LIG1        0.0642
     48 C          -5.0673   14.4192    0.0314 C.3     1  LIG1       -0.0383
     49 H          -6.0029   14.3121    0.5393 H       1  LIG1        0.0278
     50 H          -5.2420   14.7416   -0.9739 H       1  LIG1        0.0278
     51 H          -4.4666   15.1445    0.5393 H       1  LIG1        0.0278
@<TRIPOS>BOND
     1    50    48    1
     2    11     8    1
     3    25    23    1
     4    24    23    1
     5    37    35    1
     6    36    35    1
     7    45    44    1
     8    46    43    1
     9    44    43   ar
    10    44    40   ar
    11    43    42   ar
    12    22    20    1
    13     5     4   ar
    14     5     1   ar
    15    17     4    1
    16    17    20   ar
    17    17    15   ar
    18     4     3   ar
    19     9     8    1
    20    14    13    1
    21     1     6    1
    22     1     2   ar
    23    13    12    3
    24    12     3    1
    25     3     2   ar
    26     2     7    1
    27    20    21   ar
    28     8     7    1
    29     8    10    1
    30    23    15    1
    31    15    16   ar
    32    21    26    1
    33    21    18   ar
    34    26    27    3
    35    27    28    1
    36    16    18   ar
    37    16    19    1
    38    18    29    1
    39    34    33    1
    40    29    30   ar
    41    29    33   ar
    42    35    30    1
    43    30    31   ar
    44    33    32   ar
    45    32    31   ar
    46    32    40    1
    47    31    38    1
    48    40    41   ar
    49    38    39    1
    50    42    41   ar
    51    42    48    1
    52    41    47    1
    53    48    51    1
    54    48    49    1
