@<TRIPOS>MOLECULE
mol_data/noopt/geoms/mol2/12le13ia12eh-4il-.out
 54 57 0 0 0
SMALL
GASTEIGER

@<TRIPOS>ATOM
      1 C           0.1763    1.8460    0.0000 C.ar    1  LIG1        0.1354
      2 C           1.5558    1.8460    0.0000 C.ar    1  LIG1        0.1736
      3 C           1.9706    3.2334    0.0000 C.ar    1  LIG1        0.1134
      4 C           0.8165    3.9895   -0.0001 C.ar    1  LIG1        0.1701
      5 O          -0.3030    3.1567   -0.0002 O.2     1  LIG1       -0.4564
      6 H          -0.7504    0.9343    0.0000 H       1  LIG1        0.1068
      7 O           2.3515    0.8179    0.0001 O.3     1  LIG1       -0.4907
      8 C           1.5776   -0.3846    0.0001 C.3     1  LIG1        0.0790
      9 H           2.2328   -1.2305   -0.0000 H       1  LIG1        0.0660
     10 H           0.9604   -0.4116    0.8738 H       1  LIG1        0.0660
     11 H           0.9604   -0.4115   -0.8735 H       1  LIG1        0.0660
     12 C           3.1998    3.6567    0.0000 C.1     1  LIG1       -0.0621
     13 C           4.3355    4.0478    0.0000 C.1     1  LIG1       -0.1137
     14 H           5.3472    4.3962    0.0000 H       1  LIG1        0.1232
     15 C           0.5416    5.2601   -0.0001 C.ar    1  LIG1        0.0869
     16 C           1.3660    6.3408    0.0161 C.ar    1  LIG1       -0.0214
     17 C           0.5390    7.5098    0.0084 C.ar    1  LIG1       -0.0297
     18 C          -0.7545    7.0921   -0.0139 C.ar    1  LIG1        0.0842
     19 N          -0.7574    5.7154   -0.0188 N.ar    1  LIG1       -0.3491
     20 H          -1.5687    5.1413   -0.0340 H       1  LIG1        0.1661
     21 C           2.6659    6.3141    0.0365 C.3     1  LIG1       -0.0376
     22 H           3.0326    7.1803    0.5465 H       1  LIG1        0.0278
     23 H           3.0383    6.3064   -0.9666 H       1  LIG1        0.0278
     24 H           2.9965    5.4334    0.5464 H       1  LIG1        0.0278
     25 H           0.9462    8.7444    0.0202 H       1  LIG1        0.0643
     26 C          -1.8611    7.7741   -0.0284 C.ar    1  LIG1        0.1689
     27 C          -2.1908    9.1136   -0.0246 C.ar    1  LIG1        0.0931
     28 C          -3.6369    9.1850   -0.0494 C.ar    1  LIG1        0.0873
     29 C          -4.0951    7.8837   -0.0669 C.ar    1  LIG1        0.1579
     30 O          -3.0190    6.9956   -0.0545 O.2     1  LIG1       -0.4502
     31 C          -1.3828   10.1318   -0.0031 C.1     1  LIG1       -0.0639
     32 C          -0.6363   11.0727    0.0168 C.1     1  LIG1       -0.1137
     33 H           0.0288   11.9107    0.0346 H       1  LIG1        0.1232
     34 N          -4.3416   10.2774   -0.0540 N.pl3   1  LIG1       -0.3541
     35 H          -3.8352   10.9987   -0.5265 H       1  LIG1        0.1425
     36 H          -5.2075   10.1135   -0.5266 H       1  LIG1        0.1425
     37 C          -6.4308    8.1030   -0.0826 C.ar    1  LIG1       -0.0395
     38 C          -7.6716    7.4373   -0.1086 C.ar    1  LIG1       -0.0547
     39 C          -5.2630    7.3132   -0.0914 C.ar    1  LIG1        0.0255
     40 C          -7.7484    6.0467   -0.1425 C.ar    1  LIG1       -0.0197
     41 H          -8.5852    8.0275   -0.1022 H       1  LIG1        0.0622
     42 C          -5.3391    5.9250   -0.1253 C.ar    1  LIG1       -0.0090
     43 C          -6.5811    5.2822   -0.1512 C.ar    1  LIG1        0.1208
     44 H          -4.4242    5.3381   -0.1314 H       1  LIG1        0.0661
     45 H          -8.9108    5.4649   -0.1660 H       1  LIG1        0.0654
     46 C          -6.4231    9.4029   -0.0517 C.3     1  LIG1       -0.0390
     47 H          -7.2947    9.7527    0.4611 H       1  LIG1        0.0278
     48 H          -6.4209    9.7835   -1.0518 H       1  LIG1        0.0278
     49 H          -5.5474    9.7423    0.4610 H       1  LIG1        0.0278
     50 O          -6.6462    3.9841   -0.1826 O.3     1  LIG1       -0.4951
     51 C          -8.0164    3.5750   -0.1942 C.3     1  LIG1        0.0788
     52 H          -8.0694    2.5067   -0.2203 H       1  LIG1        0.0660
     53 H          -8.5036    3.9349    0.6879 H       1  LIG1        0.0660
     54 H          -8.5014    3.9774   -1.0589 H       1  LIG1        0.0660
@<TRIPOS>BOND
     1    54    51    1
     2    48    46    1
     3    23    21    1
     4    11     8    1
     5    36    34    1
     6    35    34    1
     7    52    51    1
     8    51    50    1
     9    51    53    1
    10    50    43    1
    11    45    40    1
    12    43    40   ar
    13    43    42   ar
    14    40    38   ar
    15    44    42    1
    16    42    39   ar
    17    38    41    1
    18    38    37   ar
    19    39    37   ar
    20    39    29    1
    21    37    46    1
    22    29    30   ar
    23    29    28   ar
    24    30    26   ar
    25    34    28    1
    26    46    49    1
    27    46    47    1
    28    28    27   ar
    29    20    19    1
    30    26    27   ar
    31    26    18    1
    32    27    31    1
    33    19    18   ar
    34    19    15   ar
    35    18    17   ar
    36    31    32    3
    37     5     4   ar
    38     5     1   ar
    39     4    15    1
    40     4     3   ar
    41    15    16   ar
    42     9     8    1
    43     2     3   ar
    44     2     1   ar
    45     2     7    1
    46     3    12    1
    47     6     1    1
    48    12    13    3
    49    13    14    1
    50     8     7    1
    51     8    10    1
    52    17    16   ar
    53    17    25    1
    54    16    21    1
    55    32    33    1
    56    21    24    1
    57    21    22    1
