@<TRIPOS>MOLECULE
mol_data/noopt/geoms/mol2/12le6ad(250)4if(250)6ff.out
 50 52 0 0 0
SMALL
GASTEIGER

@<TRIPOS>ATOM
      1 C           0.1763    1.8460    0.0000 C.ar    1  LIG1        0.1354
      2 C           1.5558    1.8460    0.0000 C.ar    1  LIG1        0.1736
      3 C           1.9706    3.2334    0.0000 C.ar    1  LIG1        0.1120
      4 C           0.8165    3.9895   -0.0001 C.ar    1  LIG1        0.1553
      5 O          -0.3030    3.1567   -0.0002 O.2     1  LIG1       -0.4579
      6 H          -0.7504    0.9343    0.0000 H       1  LIG1        0.1068
      7 O           2.3515    0.8179    0.0001 O.3     1  LIG1       -0.4907
      8 C           1.5776   -0.3846    0.0001 C.3     1  LIG1        0.0790
      9 H           2.2328   -1.2305   -0.0000 H       1  LIG1        0.0660
     10 H           0.9604   -0.4116    0.8738 H       1  LIG1        0.0660
     11 H           0.9604   -0.4115   -0.8735 H       1  LIG1        0.0660
     12 C           3.1998    3.6567    0.0000 C.1     1  LIG1       -0.0622
     13 C           4.3355    4.0478    0.0000 C.1     1  LIG1       -0.1137
     14 H           5.3472    4.3962    0.0000 H       1  LIG1        0.1232
     15 C           0.7975    6.0431    1.1404 C.ar    1  LIG1        0.0390
     16 C           0.5416    5.2601   -0.0001 C.ar    1  LIG1        0.0370
     17 C          -0.0107    5.8787   -1.1232 C.ar    1  LIG1       -0.0437
     18 C          -0.2865    7.2460   -1.0698 C.ar    1  LIG1       -0.0119
     19 C           0.0047    7.9440    0.1167 C.ar    1  LIG1        0.0751
     20 N           0.5377    7.3631    1.2093 N.ar    1  LIG1       -0.2540
     21 H          -0.2254    5.2992   -2.0323 H       1  LIG1        0.0629
     22 H           1.3111    5.5126    2.2104 H       1  LIG1        0.0837
     23 N          -1.2547    8.4169   -2.9875 N.3     2  LIG2        0.0000
     24 C          -0.8009    7.8682   -2.0887 C.3     1  LIG1        0.0320
     25 C          -0.7894    9.9150   -0.8776 C.ar    1  LIG1       -0.0405
     26 C          -1.0278   11.2941   -0.7214 C.ar    1  LIG1       -0.0468
     27 C          -0.2341    9.2180    0.2150 C.ar    1  LIG1        0.0070
     28 C          -0.7278   11.9522    0.4692 C.ar    1  LIG1        0.0290
     29 H          -1.4555   11.8512   -1.5520 H       1  LIG1        0.0628
     30 C           0.0655    9.8745    1.4038 C.ar    1  LIG1       -0.0101
     31 C          -0.1790   11.2450    1.5396 C.ar    1  LIG1        0.1253
     32 H           0.4932    9.3150    2.2319 H       1  LIG1        0.0661
     33 C          -1.0904    9.3564   -2.0126 C.3     1  LIG1       -0.0391
     34 H          -0.6127    8.4012   -2.0778 H       1  LIG1        0.0278
     35 H          -0.7551    9.9784   -2.8162 H       1  LIG1        0.0278
     36 H          -2.1509    9.2302   -2.0778 H       1  LIG1        0.0278
     37 O           0.1033   11.8533    2.6534 O.3     1  LIG1       -0.5061
     38 H          -0.6480   12.3841    2.9278 H       1  LIG1        0.2922
     39 C          -2.2827   13.7049    0.6391 C.ar    1  LIG1        0.2205
     40 C          -0.9610   13.2264    0.5789 C.ar    1  LIG1        0.0504
     41 C           0.0853   14.1486    0.6400 C.ar    1  LIG1       -0.0058
     42 C          -0.2208   15.5054    0.7578 C.ar    1  LIG1        0.1357
     43 C          -1.5742   15.8864    0.8101 C.ar    1  LIG1        0.0728
     44 N          -2.5961   15.0101    0.7527 N.ar    1  LIG1       -0.2173
     45 H           1.1309   13.8123    0.5949 H       1  LIG1        0.0662
     46 H          -1.9096   17.1375    0.9196 H       1  LIG1        0.0868
     47 O          -3.2904   12.8852    0.5861 O.3     1  LIG1       -0.4920
     48 H          -2.9677   11.9812    0.5731 H       1  LIG1        0.2937
     49 O           0.7174   16.4033    0.8182 O.3     1  LIG1       -0.5052
     50 H           0.3229   17.2784    0.8331 H       1  LIG1        0.2922
@<TRIPOS>BOND
     1    35    33    1
     2    24    18    1
     3    34    33    1
     4    36    33    1
     5    21    17    1
     6    33    25    1
     7    29    26    1
     8    17    18   ar
     9    17    16   ar
    10    18    19   ar
    11    25    26   ar
    12    25    27   ar
    13    11     8    1
    14    26    28   ar
    15     5     4   ar
    16     5     1   ar
    17    16     4    1
    18    16    15   ar
    19     4     3   ar
    20     9     8    1
    21     1     2   ar
    22     1     6    1
    23     2     3   ar
    24     2     7    1
    25     3    12    1
    26    14    13    1
    27    13    12    3
    28     8     7    1
    29     8    10    1
    30    19    27    1
    31    19    20   ar
    32    27    30   ar
    33    28    40    1
    34    28    31   ar
    35    48    47    1
    36    40    39   ar
    37    40    41   ar
    38    47    39    1
    39    45    41    1
    40    39    44   ar
    41    41    42   ar
    42    44    43   ar
    43    42    43   ar
    44    42    49    1
    45    43    46    1
    46    49    50    1
    47    15    20   ar
    48    15    22    1
    49    30    31   ar
    50    30    32    1
    51    31    37    1
    52    37    38    1
