@<TRIPOS>MOLECULE
mol_data/noopt/geoms/mol2/12le12ie(220)12li(40)4de(20).out
 54 57 0 0 0
SMALL
GASTEIGER

@<TRIPOS>ATOM
      1 C           0.1763    1.8460    0.0000 C.ar    1  LIG1        0.1355
      2 C           1.5558    1.8460    0.0000 C.ar    1  LIG1        0.1737
      3 C           1.9706    3.2334    0.0000 C.ar    1  LIG1        0.1150
      4 C           0.8165    3.9895   -0.0001 C.ar    1  LIG1        0.1890
      5 O          -0.3030    3.1567   -0.0002 O.2     1  LIG1       -0.4548
      6 H          -0.7504    0.9343    0.0000 H       1  LIG1        0.1068
      7 O           2.3515    0.8179    0.0001 O.3     1  LIG1       -0.4907
      8 C           1.5776   -0.3846    0.0001 C.3     1  LIG1        0.0790
      9 H           2.2328   -1.2305   -0.0000 H       1  LIG1        0.0660
     10 H           0.9604   -0.4116    0.8738 H       1  LIG1        0.0660
     11 H           0.9604   -0.4115   -0.8735 H       1  LIG1        0.0660
     12 C           3.1998    3.6567    0.0000 C.1     1  LIG1       -0.0621
     13 C           4.3355    4.0478    0.0000 C.1     1  LIG1       -0.1137
     14 H           5.3472    4.3962    0.0000 H       1  LIG1        0.1232
     15 C           0.5416    5.2601   -0.0001 C.ar    1  LIG1        0.1761
     16 C          -0.4283    6.0564   -0.5731 C.ar    1  LIG1        0.0146
     17 C          -0.1468    7.4153   -0.1596 C.ar    1  LIG1        0.0772
     18 C           0.9769    7.3592    0.6390 C.ar    1  LIG1        0.1899
     19 O           1.4199    6.0410    0.7525 O.2     1  LIG1       -0.4469
     20 C          -1.4125    5.6860   -1.3378 C.3     1  LIG1       -0.0348
     21 H          -1.6525    4.6623   -1.1397 H       1  LIG1        0.0279
     22 H          -1.1272    5.7933   -2.3635 H       1  LIG1        0.0279
     23 H          -2.2678    6.2977   -1.1397 H       1  LIG1        0.0279
     24 C          -0.8361    8.4664   -0.4915 C.1     1  LIG1       -0.0655
     25 C          -1.4730    9.4376   -0.7981 C.1     1  LIG1       -0.1138
     26 H          -2.0403   10.3027   -1.0712 H       1  LIG1        0.1232
     27 C           1.6951    8.2258    1.2896 C.ar    1  LIG1        0.2134
     28 C           2.6555    8.1631    2.2778 C.ar    1  LIG1        0.1722
     29 C           3.0553    9.5271    2.5548 C.ar    1  LIG1        0.0378
     30 C           2.3123   10.3331    1.7170 C.ar    1  LIG1        0.1436
     31 O           1.4663    9.5540    0.9271 O.2     1  LIG1       -0.4476
     32 O           3.1272    7.1023    2.8629 O.3     1  LIG1       -0.4909
     33 C           2.0687    6.1651    3.0776 C.3     1  LIG1        0.0790
     34 H           2.4574    5.2921    3.5589 H       1  LIG1        0.0660
     35 H           1.3186    6.6101    3.6975 H       1  LIG1        0.0660
     36 H           1.6380    5.8919    2.1370 H       1  LIG1        0.0660
     37 C           3.9452    9.8932    3.4294 C.3     1  LIG1       -0.0326
     38 H           3.5431   10.6725    4.0426 H       1  LIG1        0.0280
     39 H           4.8168   10.2519    2.9228 H       1  LIG1        0.0280
     40 H           4.2080    9.0566    4.0425 H       1  LIG1        0.0280
     41 C           3.3149   12.4526    1.7982 C.ar    1  LIG1        0.0625
     42 C           3.1671   13.8307    1.5484 C.ar    1  LIG1       -0.0425
     43 C           2.2226   11.6120    1.5016 C.ar    1  LIG1        0.0361
     44 C           1.9852   14.3508    1.0258 C.ar    1  LIG1       -0.0451
     45 H           3.9975   14.4973    1.7702 H       1  LIG1        0.0631
     46 C           1.0424   12.1307    0.9799 C.ar    1  LIG1       -0.0344
     47 C           0.9152   13.5026    0.7383 C.ar    1  LIG1        0.0254
     48 H           0.2143   11.4619    0.7596 H       1  LIG1        0.0637
     49 H           1.8832   15.6283    0.8074 H       1  LIG1        0.0630
     50 N           5.4359   11.6509    2.7170 N.1     1  LIG1       -0.1908
     51 C           4.4419   12.0266    2.2864 C.1     1  LIG1        0.0999
     52 C          -0.1905   13.9818    0.2506 C.1     1  LIG1       -0.0696
     53 C          -1.2121   14.4246   -0.2000 C.1     1  LIG1       -0.1139
     54 H          -2.1222   14.8191   -0.6014 H       1  LIG1        0.1232
@<TRIPOS>BOND
     1    22    20    1
     2    20    23    1
     3    20    21    1
     4    20    16    1
     5    26    25    1
     6    11     8    1
     7    25    24    3
     8    54    53    1
     9    16    17   ar
    10    16    15   ar
    11    24    17    1
    12    53    52    3
    13    17    18   ar
    14     5     4   ar
    15     5     1   ar
    16     4    15    1
    17     4     3   ar
    18    15    19   ar
    19     9     8    1
    20     1     2   ar
    21     1     6    1
    22     2     3   ar
    23     2     7    1
    24    14    13    1
    25    13    12    3
    26    12     3    1
    27     8     7    1
    28     8    10    1
    29    52    47    1
    30    18    19   ar
    31    18    27    1
    32    47    46   ar
    33    47    44   ar
    34    48    46    1
    35    49    44    1
    36    31    27   ar
    37    31    30   ar
    38    46    43   ar
    39    44    42   ar
    40    27    28   ar
    41    43    30    1
    42    43    41   ar
    43    42    45    1
    44    42    41   ar
    45    30    29   ar
    46    41    51    1
    47    36    33    1
    48    28    29   ar
    49    28    32    1
    50    51    50    3
    51    29    37    1
    52    32    33    1
    53    39    37    1
    54    33    34    1
    55    33    35    1
    56    37    40    1
    57    37    38    1
