@<TRIPOS>MOLECULE
mol_data/noopt/geoms/mol2/12le12ea(60)4ld(270)4fa(280).out
 50 53 0 0 0
SMALL
GASTEIGER

@<TRIPOS>ATOM
      1 C           0.1763    1.8460    0.0000 C.ar    1  LIG1        0.1355
      2 C           1.5558    1.8460    0.0000 C.ar    1  LIG1        0.1737
      3 C           1.9706    3.2334    0.0000 C.ar    1  LIG1        0.1151
      4 C           0.8165    3.9895   -0.0001 C.ar    1  LIG1        0.1899
      5 O          -0.3030    3.1567   -0.0002 O.2     1  LIG1       -0.4548
      6 H          -0.7504    0.9343    0.0000 H       1  LIG1        0.1068
      7 O           2.3515    0.8179    0.0001 O.3     1  LIG1       -0.4907
      8 C           1.5776   -0.3846    0.0001 C.3     1  LIG1        0.0790
      9 H           2.2328   -1.2305   -0.0000 H       1  LIG1        0.0660
     10 H           0.9604   -0.4116    0.8738 H       1  LIG1        0.0660
     11 H           0.9604   -0.4115   -0.8735 H       1  LIG1        0.0660
     12 C           3.1998    3.6567    0.0000 C.1     1  LIG1       -0.0621
     13 C           4.3355    4.0478    0.0000 C.1     1  LIG1       -0.1137
     14 H           5.3472    4.3962    0.0000 H       1  LIG1        0.1232
     15 C           0.5416    5.2601   -0.0001 C.ar    1  LIG1        0.1872
     16 C           0.8540    6.3338    0.8077 C.ar    1  LIG1        0.0741
     17 C           0.2103    7.4926    0.2248 C.ar    1  LIG1        0.0005
     18 C          -0.4531    7.0499   -0.9011 C.ar    1  LIG1        0.1406
     19 O          -0.2637    5.6768   -1.0610 O.2     1  LIG1       -0.4503
     20 C           1.5808    6.3337    1.8856 C.1     1  LIG1       -0.0657
     21 C           2.2523    6.3336    2.8815 C.1     1  LIG1       -0.1138
     22 H           2.8505    6.3335    3.7687 H       1  LIG1        0.1232
     23 H           0.2635    8.7043    0.6926 H       1  LIG1        0.0668
     24 C          -0.8983    7.3836   -3.1802 C.ar    1  LIG1        0.1314
     25 C          -1.7265    8.0046   -4.1351 C.ar    1  LIG1       -0.0102
     26 C          -1.1909    7.6014   -1.8183 C.ar    1  LIG1        0.0601
     27 C          -2.7994    8.8068   -3.7532 C.ar    1  LIG1        0.0065
     28 H          -1.5184    7.8500   -5.1915 H       1  LIG1        0.0661
     29 C          -2.2619    8.4022   -1.4365 C.ar    1  LIG1       -0.0296
     30 C          -3.0733    9.0101   -2.4001 C.ar    1  LIG1        0.0605
     31 H          -2.4670    8.5549   -0.3800 H       1  LIG1        0.0639
     32 O           0.0876    6.6462   -3.5978 O.3     1  LIG1       -0.4944
     33 C          -0.3579    5.2961   -3.7511 C.3     1  LIG1        0.0788
     34 H           0.4538    4.6895   -4.0949 H       1  LIG1        0.0660
     35 H          -0.7056    4.9260   -2.8092 H       1  LIG1        0.0660
     36 H          -1.1552    5.2623   -4.4639 H       1  LIG1        0.0660
     37 N          -4.9547   10.4172   -1.7172 N.1     1  LIG1       -0.1908
     38 C          -4.0730    9.7578   -2.0373 C.1     1  LIG1        0.0998
     39 C          -3.1450    9.3321   -6.0134 C.ar    1  LIG1        0.1246
     40 C          -3.9849    9.9521   -6.9587 C.ar    1  LIG1       -0.0196
     41 C          -3.5435    9.3647   -4.6615 C.ar    1  LIG1        0.0249
     42 C          -5.1701   10.5769   -6.5770 C.ar    1  LIG1       -0.0583
     43 H          -3.6962    9.9388   -8.0073 H       1  LIG1        0.0654
     44 C          -4.7266    9.9883   -4.2799 C.ar    1  LIG1       -0.0505
     45 C          -5.5478   10.5983   -5.2339 C.ar    1  LIG1       -0.0610
     46 H          -5.0121   10.0001   -3.2311 H       1  LIG1        0.0625
     47 H          -5.9218   11.1393   -7.4762 H       1  LIG1        0.0619
     48 O          -2.0519    8.7650   -6.4303 O.3     1  LIG1       -0.5062
     49 H          -1.3658    9.4285   -6.5330 H       1  LIG1        0.2922
     50 H          -6.6525   11.1799   -4.8712 H       1  LIG1        0.0618
@<TRIPOS>BOND
     1    43    40    1
     2    47    42    1
     3    40    42   ar
     4    40    39   ar
     5    42    45   ar
     6    49    48    1
     7    48    39    1
     8    39    41   ar
     9    45    50    1
    10    45    44   ar
    11    28    25    1
    12    41    44   ar
    13    41    27    1
    14    36    33    1
    15    44    46    1
    16    25    27   ar
    17    25    24   ar
    18    34    33    1
    19    27    30   ar
    20    33    32    1
    21    33    35    1
    22    32    24    1
    23    24    26   ar
    24    30    38    1
    25    30    29   ar
    26    38    37    3
    27    26    29   ar
    28    26    18    1
    29    29    31    1
    30    19    18   ar
    31    19    15   ar
    32    18    17   ar
    33    11     8    1
    34     5     4   ar
    35     5     1   ar
    36     4    15    1
    37     4     3   ar
    38    15    16   ar
    39     9     8    1
    40    14    13    1
    41     2     3   ar
    42     2     1   ar
    43     2     7    1
    44     3    12    1
    45     6     1    1
    46    12    13    3
    47     8     7    1
    48     8    10    1
    49    17    23    1
    50    17    16   ar
    51    16    20    1
    52    20    21    3
    53    21    22    1
