@<TRIPOS>MOLECULE
mol_data/noopt/geoms/mol2/12le12le12le12le.out
 54 57 0 0 0
SMALL
GASTEIGER

@<TRIPOS>ATOM
      1 C           0.1763    1.8460    0.0000 C.ar    1  LIG1        0.1355
      2 C           1.5558    1.8460    0.0000 C.ar    1  LIG1        0.1737
      3 C           1.9706    3.2334    0.0000 C.ar    1  LIG1        0.1152
      4 C           0.8165    3.9895   -0.0001 C.ar    1  LIG1        0.1924
      5 O          -0.3030    3.1567   -0.0002 O.2     1  LIG1       -0.4547
      6 H          -0.7504    0.9343    0.0000 H       1  LIG1        0.1068
      7 O           2.3515    0.8179    0.0001 O.3     1  LIG1       -0.4907
      8 C           1.5776   -0.3846    0.0001 C.3     1  LIG1        0.0790
      9 H           2.2328   -1.2305   -0.0000 H       1  LIG1        0.0660
     10 H           0.9604   -0.4116    0.8738 H       1  LIG1        0.0660
     11 H           0.9604   -0.4115   -0.8735 H       1  LIG1        0.0660
     12 C           3.1998    3.6567    0.0000 C.1     1  LIG1       -0.0621
     13 C           4.3355    4.0478    0.0000 C.1     1  LIG1       -0.1137
     14 H           5.3472    4.3962    0.0000 H       1  LIG1        0.1232
     15 C           0.5416    5.2601   -0.0001 C.ar    1  LIG1        0.2146
     16 C           1.2792    6.4258   -0.0001 C.ar    1  LIG1        0.1849
     17 C           0.3286    7.5182   -0.0001 C.ar    1  LIG1        0.1159
     18 C          -0.9274    6.9472   -0.0002 C.ar    1  LIG1        0.1934
     19 O          -0.8223    5.5559   -0.0003 O.2     1  LIG1       -0.4434
     20 O           2.5735    6.5485   -0.0000 O.3     1  LIG1       -0.4901
     21 C           3.1758    5.2515   -0.0000 C.3     1  LIG1        0.0790
     22 H           4.2410    5.3529   -0.0001 H       1  LIG1        0.0660
     23 H           2.8686    4.7155    0.8737 H       1  LIG1        0.0660
     24 H           2.8685    4.7155   -0.8736 H       1  LIG1        0.0660
     25 C           0.6282    8.7832   -0.0001 C.1     1  LIG1       -0.0620
     26 C           0.9050    9.9521   -0.0001 C.1     1  LIG1       -0.1137
     27 H           1.1515   10.9933   -0.0001 H       1  LIG1        0.1232
     28 C          -2.1481    7.3943   -0.0002 C.ar    1  LIG1        0.2146
     29 C          -2.7387    8.6410   -0.0002 C.ar    1  LIG1        0.1849
     30 C          -4.1701    8.4218   -0.0002 C.ar    1  LIG1        0.1159
     31 C          -4.3593    7.0551   -0.0003 C.ar    1  LIG1        0.1934
     32 O          -3.1273    6.4000   -0.0004 O.2     1  LIG1       -0.4434
     33 O          -2.1503    9.8003   -0.0001 O.3     1  LIG1       -0.4901
     34 C          -0.7323    9.6157   -0.0001 C.3     1  LIG1        0.0790
     35 H          -0.2484   10.5701   -0.0002 H       1  LIG1        0.0660
     36 H          -0.4436    9.0696    0.8736 H       1  LIG1        0.0660
     37 H          -0.4437    9.0695   -0.8737 H       1  LIG1        0.0660
     38 C          -5.0789    9.3514   -0.0002 C.1     1  LIG1       -0.0620
     39 C          -5.9187   10.2103   -0.0002 C.1     1  LIG1       -0.1137
     40 H          -6.6667   10.9754   -0.0002 H       1  LIG1        0.1232
     41 C          -5.3898    6.2627   -0.0003 C.ar    1  LIG1        0.2136
     42 C          -6.7591    6.4302   -0.0003 C.ar    1  LIG1        0.1842
     43 C          -7.3393    5.1034   -0.0003 C.ar    1  LIG1        0.1047
     44 C          -6.2855    4.2128   -0.0004 C.ar    1  LIG1        0.1118
     45 O          -5.0732    4.9035   -0.0005 O.2     1  LIG1       -0.4547
     46 H          -6.1669    2.9182   -0.0004 H       1  LIG1        0.1043
     47 O          -7.4241    7.5473   -0.0002 O.3     1  LIG1       -0.4901
     48 C          -6.5099    8.6469   -0.0002 C.3     1  LIG1        0.0790
     49 H          -7.0576    9.5661   -0.0003 H       1  LIG1        0.0660
     50 H          -5.8941    8.5988    0.8735 H       1  LIG1        0.0660
     51 H          -5.8940    8.5987   -0.8738 H       1  LIG1        0.0660
     52 C          -8.6107    4.8325   -0.0003 C.1     1  LIG1       -0.0628
     53 C          -9.7856    4.5821   -0.0003 C.1     1  LIG1       -0.1137
     54 H         -10.8321    4.3591   -0.0003 H       1  LIG1        0.1232
@<TRIPOS>BOND
     1    51    48    1
     2    37    34    1
     3    24    21    1
     4    11     8    1
     5    45    44   ar
     6    45    41   ar
     7    44    46    1
     8    44    43   ar
     9    32    31   ar
    10    32    28   ar
    11    49    48    1
    12    43    42   ar
    13    43    52    1
    14    42    41   ar
    15    42    47    1
    16    41    31    1
    17    52    53    3
    18    31    30   ar
    19    19    18   ar
    20    19    15   ar
    21    53    54    1
    22    48    47    1
    23    48    50    1
    24    35    34    1
    25    28    29   ar
    26    28    18    1
    27    29    30   ar
    28    29    33    1
    29    30    38    1
    30    38    39    3
    31    39    40    1
    32     5     4   ar
    33     5     1   ar
    34    18    17   ar
    35    34    33    1
    36    34    36    1
    37    22    21    1
    38    27    26    1
    39     4    15    1
    40     4     3   ar
    41    15    16   ar
    42    16    17   ar
    43    16    20    1
    44    17    25    1
    45    26    25    3
    46    21    20    1
    47    21    23    1
    48     9     8    1
    49    12     3    1
    50    12    13    3
    51     1     6    1
    52     1     2   ar
    53     3     2   ar
    54    13    14    1
    55     2     7    1
    56     8     7    1
    57     8    10    1
