@<TRIPOS>MOLECULE
mol_data/noopt/geoms/mol2/12le12le-12le.out
 41 43 0 0 0
SMALL
GASTEIGER

@<TRIPOS>ATOM
      1 C           0.1763    1.8460    0.0000 C.ar    1  LIG1        0.1355
      2 C           1.5558    1.8460    0.0000 C.ar    1  LIG1        0.1737
      3 C           1.9706    3.2334    0.0000 C.ar    1  LIG1        0.1152
      4 C           0.8165    3.9895   -0.0001 C.ar    1  LIG1        0.1924
      5 O          -0.3030    3.1567   -0.0002 O.2     1  LIG1       -0.4547
      6 H          -0.7504    0.9343    0.0000 H       1  LIG1        0.1068
      7 O           2.3515    0.8179    0.0001 O.3     1  LIG1       -0.4907
      8 C           1.5776   -0.3846    0.0001 C.3     1  LIG1        0.0790
      9 H           2.2328   -1.2305   -0.0000 H       1  LIG1        0.0660
     10 H           0.9604   -0.4116    0.8738 H       1  LIG1        0.0660
     11 H           0.9604   -0.4115   -0.8735 H       1  LIG1        0.0660
     12 C           3.1998    3.6567    0.0000 C.1     1  LIG1       -0.0621
     13 C           4.3355    4.0478    0.0000 C.1     1  LIG1       -0.1137
     14 H           5.3472    4.3962    0.0000 H       1  LIG1        0.1232
     15 C           0.5416    5.2601   -0.0001 C.ar    1  LIG1        0.2146
     16 C          -0.6119    6.0167   -0.0001 C.ar    1  LIG1        0.1849
     17 C          -0.1979    7.4043   -0.0001 C.ar    1  LIG1        0.1159
     18 C           1.1818    7.4036   -0.0002 C.ar    1  LIG1        0.1934
     19 O           1.6612    6.0932   -0.0003 O.2     1  LIG1       -0.4434
     20 O          -1.8411    5.5933   -0.0000 O.3     1  LIG1       -0.4901
     21 C          -2.7313    6.7125   -0.0001 C.3     1  LIG1        0.0790
     22 H          -3.7429    6.3637   -0.0002 H       1  LIG1        0.0660
     23 H          -2.5587    7.3056    0.8736 H       1  LIG1        0.0660
     24 H          -2.5585    7.3057   -0.8737 H       1  LIG1        0.0660
     25 C          -0.9936    8.4323   -0.0001 C.1     1  LIG1       -0.0620
     26 C          -1.7288    9.3823   -0.0001 C.1     1  LIG1       -0.1137
     27 H          -2.3837   10.2284   -0.0001 H       1  LIG1        0.1232
     28 C           2.1085    8.3153   -0.0002 C.ar    1  LIG1        0.2136
     29 C           3.4880    8.3153   -0.0001 C.ar    1  LIG1        0.1842
     30 C           3.9028    9.7027   -0.0001 C.ar    1  LIG1        0.1047
     31 C           2.7487   10.4588   -0.0002 C.ar    1  LIG1        0.1118
     32 O           1.6292    9.6260   -0.0003 O.2     1  LIG1       -0.4547
     33 H           2.4738   11.7294   -0.0002 H       1  LIG1        0.1043
     34 O           4.2837    7.2872   -0.0000 O.3     1  LIG1       -0.4901
     35 C           3.5098    6.0847   -0.0001 C.3     1  LIG1        0.0790
     36 H           4.1651    5.2388   -0.0002 H       1  LIG1        0.0660
     37 H           2.8927    6.0577    0.8737 H       1  LIG1        0.0660
     38 H           2.8926    6.0578   -0.8736 H       1  LIG1        0.0660
     39 C           5.1320   10.1260   -0.0001 C.1     1  LIG1       -0.0628
     40 C           6.2677   10.5171   -0.0001 C.1     1  LIG1       -0.1137
     41 H           7.2794   10.8655   -0.0001 H       1  LIG1        0.1232
@<TRIPOS>BOND
     1    24    21    1
     2    38    35    1
     3    11     8    1
     4    32    31   ar
     5    32    28   ar
     6    19    18   ar
     7    19    15   ar
     8    31    33    1
     9    31    30   ar
    10    22    21    1
    11     5     4   ar
    12     5     1   ar
    13    18    28    1
    14    18    17   ar
    15    36    35    1
    16    28    29   ar
    17    27    26    1
    18    29    30   ar
    19    29    34    1
    20    26    25    3
    21    16    17   ar
    22    16    15   ar
    23    16    20    1
    24    25    17    1
    25    30    39    1
    26    15     4    1
    27     4     3   ar
    28    21    20    1
    29    21    23    1
    30    39    40    3
    31    35    34    1
    32    35    37    1
    33    40    41    1
    34     9     8    1
    35    14    13    1
    36    13    12    3
    37    12     3    1
    38     6     1    1
    39     3     2   ar
    40     2     1   ar
    41     2     7    1
    42     8     7    1
    43     8    10    1
