@<TRIPOS>MOLECULE
mol_data/noopt/geoms/mol2/12le12le.out
 28 29 0 0 0
SMALL
GASTEIGER

@<TRIPOS>ATOM
      1 C           0.1763    1.8460    0.0000 C.ar    1  LIG1        0.1355
      2 C           1.5558    1.8460    0.0000 C.ar    1  LIG1        0.1737
      3 C           1.9706    3.2334    0.0000 C.ar    1  LIG1        0.1152
      4 C           0.8165    3.9895   -0.0001 C.ar    1  LIG1        0.1924
      5 O          -0.3030    3.1567   -0.0002 O.2     1  LIG1       -0.4547
      6 H          -0.7504    0.9343    0.0000 H       1  LIG1        0.1068
      7 O           2.3515    0.8179    0.0001 O.3     1  LIG1       -0.4907
      8 C           1.5776   -0.3846    0.0001 C.3     1  LIG1        0.0790
      9 H           2.2328   -1.2305   -0.0000 H       1  LIG1        0.0660
     10 H           0.9604   -0.4116    0.8738 H       1  LIG1        0.0660
     11 H           0.9604   -0.4115   -0.8735 H       1  LIG1        0.0660
     12 C           3.1998    3.6567    0.0000 C.1     1  LIG1       -0.0621
     13 C           4.3355    4.0478    0.0000 C.1     1  LIG1       -0.1137
     14 H           5.3472    4.3962    0.0000 H       1  LIG1        0.1232
     15 C           0.5416    5.2601   -0.0001 C.ar    1  LIG1        0.2136
     16 C           1.2792    6.4258   -0.0001 C.ar    1  LIG1        0.1842
     17 C           0.3286    7.5182   -0.0001 C.ar    1  LIG1        0.1047
     18 C          -0.9274    6.9472   -0.0002 C.ar    1  LIG1        0.1118
     19 O          -0.8223    5.5559   -0.0003 O.2     1  LIG1       -0.4547
     20 H          -2.1481    7.3943   -0.0002 H       1  LIG1        0.1043
     21 O           2.5735    6.5485   -0.0000 O.3     1  LIG1       -0.4901
     22 C           3.1758    5.2515   -0.0000 C.3     1  LIG1        0.0790
     23 H           4.2410    5.3529   -0.0001 H       1  LIG1        0.0660
     24 H           2.8686    4.7155    0.8737 H       1  LIG1        0.0660
     25 H           2.8685    4.7155   -0.8736 H       1  LIG1        0.0660
     26 C           0.6282    8.7832   -0.0001 C.1     1  LIG1       -0.0628
     27 C           0.9050    9.9521   -0.0001 C.1     1  LIG1       -0.1137
     28 H           1.1515   10.9933   -0.0001 H       1  LIG1        0.1232
@<TRIPOS>BOND
     1    25    22    1
     2    11     8    1
     3    19    18   ar
     4    19    15   ar
     5     5     4   ar
     6     5     1   ar
     7    20    18    1
     8    18    17   ar
     9    23    22    1
    10    15    16   ar
    11    15     4    1
    12    28    27    1
    13    27    26    3
    14    26    17    1
    15    17    16   ar
    16    16    21    1
    17     4     3   ar
    18    22    21    1
    19    22    24    1
    20     9     8    1
    21    14    13    1
    22     1     6    1
    23     1     2   ar
    24    13    12    3
    25    12     3    1
    26     3     2   ar
    27     2     7    1
    28     8     7    1
    29     8    10    1
