@<TRIPOS>MOLECULE
mol_data/noopt/geoms/mol2/12le12le12le-12le-.out
 54 57 0 0 0
SMALL
GASTEIGER

@<TRIPOS>ATOM
      1 C           0.1763    1.8460    0.0000 C.ar    1  LIG1        0.1355
      2 C           1.5558    1.8460    0.0000 C.ar    1  LIG1        0.1737
      3 C           1.9706    3.2334    0.0000 C.ar    1  LIG1        0.1152
      4 C           0.8165    3.9895   -0.0001 C.ar    1  LIG1        0.1924
      5 O          -0.3030    3.1567   -0.0002 O.2     1  LIG1       -0.4547
      6 H          -0.7504    0.9343    0.0000 H       1  LIG1        0.1068
      7 O           2.3515    0.8179    0.0001 O.3     1  LIG1       -0.4907
      8 C           1.5776   -0.3846    0.0001 C.3     1  LIG1        0.0790
      9 H           2.2328   -1.2305   -0.0000 H       1  LIG1        0.0660
     10 H           0.9604   -0.4116    0.8738 H       1  LIG1        0.0660
     11 H           0.9604   -0.4115   -0.8735 H       1  LIG1        0.0660
     12 C           3.1998    3.6567    0.0000 C.1     1  LIG1       -0.0621
     13 C           4.3355    4.0478    0.0000 C.1     1  LIG1       -0.1137
     14 H           5.3472    4.3962    0.0000 H       1  LIG1        0.1232
     15 C           0.5416    5.2601   -0.0001 C.ar    1  LIG1        0.2146
     16 C           1.2792    6.4258   -0.0001 C.ar    1  LIG1        0.1849
     17 C           0.3286    7.5182   -0.0001 C.ar    1  LIG1        0.1159
     18 C          -0.9274    6.9472   -0.0002 C.ar    1  LIG1        0.1934
     19 O          -0.8223    5.5559   -0.0003 O.2     1  LIG1       -0.4434
     20 O           2.5735    6.5485   -0.0000 O.3     1  LIG1       -0.4901
     21 C           3.1758    5.2515   -0.0000 C.3     1  LIG1        0.0790
     22 H           4.2410    5.3529   -0.0001 H       1  LIG1        0.0660
     23 H           2.8686    4.7155    0.8737 H       1  LIG1        0.0660
     24 H           2.8685    4.7155   -0.8736 H       1  LIG1        0.0660
     25 C           0.6282    8.7832   -0.0001 C.1     1  LIG1       -0.0620
     26 C           0.9050    9.9521   -0.0001 C.1     1  LIG1       -0.1137
     27 H           1.1515   10.9933   -0.0001 H       1  LIG1        0.1232
     28 C          -2.1481    7.3943   -0.0002 C.ar    1  LIG1        0.2146
     29 C          -3.4042    6.8241   -0.0002 C.ar    1  LIG1        0.1849
     30 C          -4.3554    7.9160   -0.0002 C.ar    1  LIG1        0.1159
     31 C          -3.6171    9.0815   -0.0003 C.ar    1  LIG1        0.1934
     32 O          -2.2534    8.7859   -0.0004 O.2     1  LIG1       -0.4434
     33 O          -3.7038    5.5591   -0.0001 O.3     1  LIG1       -0.4901
     34 C          -5.1255    5.4052   -0.0002 C.3     1  LIG1        0.0790
     35 H          -5.3716    4.3639   -0.0003 H       1  LIG1        0.0660
     36 H          -5.5344    5.8683    0.8735 H       1  LIG1        0.0660
     37 H          -5.5343    5.8684   -0.8738 H       1  LIG1        0.0660
     38 C          -5.6496    7.7933   -0.0002 C.1     1  LIG1       -0.0620
     39 C          -6.8455    7.6800   -0.0002 C.1     1  LIG1       -0.1137
     40 H          -7.9107    7.5790   -0.0002 H       1  LIG1        0.1232
     41 C          -3.8920   10.3521   -0.0003 C.ar    1  LIG1        0.2136
     42 C          -5.0455   11.1087   -0.0003 C.ar    1  LIG1        0.1842
     43 C          -4.6315   12.4963   -0.0002 C.ar    1  LIG1        0.1047
     44 C          -3.2517   12.4956   -0.0003 C.ar    1  LIG1        0.1118
     45 O          -2.7723   11.1852   -0.0004 O.2     1  LIG1       -0.4547
     46 H          -2.3250   13.4073   -0.0003 H       1  LIG1        0.1043
     47 O          -6.2747   10.6854   -0.0002 O.3     1  LIG1       -0.4901
     48 C          -7.1649   11.8045   -0.0002 C.3     1  LIG1        0.0790
     49 H          -8.1764   11.4557   -0.0003 H       1  LIG1        0.0660
     50 H          -6.9923   12.3976    0.8735 H       1  LIG1        0.0660
     51 H          -6.9921   12.3977   -0.8738 H       1  LIG1        0.0660
     52 C          -5.4271   13.5243   -0.0002 C.1     1  LIG1       -0.0628
     53 C          -6.1623   14.4743   -0.0002 C.1     1  LIG1       -0.1137
     54 H          -6.8172   15.3204   -0.0002 H       1  LIG1        0.1232
@<TRIPOS>BOND
     1    51    48    1
     2    37    34    1
     3    24    21    1
     4    11     8    1
     5    45    44   ar
     6    45    41   ar
     7    32    31   ar
     8    32    28   ar
     9    49    48    1
    10    35    34    1
    11    19    18   ar
    12    19    15   ar
    13    44    46    1
    14    44    43   ar
    15    31    41    1
    16    31    30   ar
    17    42    41   ar
    18    42    43   ar
    19    42    47    1
    20    40    39    1
    21    48    47    1
    22    48    50    1
    23    39    38    3
    24    29    30   ar
    25    29    28   ar
    26    29    33    1
    27    43    52    1
    28    38    30    1
    29    52    53    3
    30    53    54    1
    31    28    18    1
    32    18    17   ar
    33     5     4   ar
    34     5     1   ar
    35    34    33    1
    36    34    36    1
    37    22    21    1
    38    26    25    3
    39    26    27    1
    40    25    17    1
    41    17    16   ar
    42    16    15   ar
    43    16    20    1
    44    15     4    1
    45     4     3   ar
    46    21    20    1
    47    21    23    1
    48     9     8    1
    49     1     2   ar
    50     1     6    1
    51     2     3   ar
    52     2     7    1
    53     3    12    1
    54    12    13    3
    55    13    14    1
    56     8     7    1
    57     8    10    1
