@<TRIPOS>MOLECULE
mol_data/noopt/geoms/mol2/12le12le-12le12le-.out
 54 57 0 0 0
SMALL
GASTEIGER

@<TRIPOS>ATOM
      1 C           0.1763    1.8460    0.0000 C.ar    1  LIG1        0.1355
      2 C           1.5558    1.8460    0.0000 C.ar    1  LIG1        0.1737
      3 C           1.9706    3.2334    0.0000 C.ar    1  LIG1        0.1152
      4 C           0.8165    3.9895   -0.0001 C.ar    1  LIG1        0.1924
      5 O          -0.3030    3.1567   -0.0002 O.2     1  LIG1       -0.4547
      6 H          -0.7504    0.9343    0.0000 H       1  LIG1        0.1068
      7 O           2.3515    0.8179    0.0001 O.3     1  LIG1       -0.4907
      8 C           1.5776   -0.3846    0.0001 C.3     1  LIG1        0.0790
      9 H           2.2328   -1.2305   -0.0000 H       1  LIG1        0.0660
     10 H           0.9604   -0.4116    0.8738 H       1  LIG1        0.0660
     11 H           0.9604   -0.4115   -0.8735 H       1  LIG1        0.0660
     12 C           3.1998    3.6567    0.0000 C.1     1  LIG1       -0.0621
     13 C           4.3355    4.0478    0.0000 C.1     1  LIG1       -0.1137
     14 H           5.3472    4.3962    0.0000 H       1  LIG1        0.1232
     15 C           0.5416    5.2601   -0.0001 C.ar    1  LIG1        0.2146
     16 C          -0.6119    6.0167   -0.0001 C.ar    1  LIG1        0.1849
     17 C          -0.1979    7.4043   -0.0001 C.ar    1  LIG1        0.1159
     18 C           1.1818    7.4036   -0.0002 C.ar    1  LIG1        0.1934
     19 O           1.6612    6.0932   -0.0003 O.2     1  LIG1       -0.4434
     20 O          -1.8411    5.5933   -0.0000 O.3     1  LIG1       -0.4901
     21 C          -2.7313    6.7125   -0.0001 C.3     1  LIG1        0.0790
     22 H          -3.7429    6.3637   -0.0002 H       1  LIG1        0.0660
     23 H          -2.5587    7.3056    0.8736 H       1  LIG1        0.0660
     24 H          -2.5585    7.3057   -0.8737 H       1  LIG1        0.0660
     25 C          -0.9936    8.4323   -0.0001 C.1     1  LIG1       -0.0620
     26 C          -1.7288    9.3823   -0.0001 C.1     1  LIG1       -0.1137
     27 H          -2.3837   10.2284   -0.0001 H       1  LIG1        0.1232
     28 C           2.1085    8.3153   -0.0002 C.ar    1  LIG1        0.2146
     29 C           3.4880    8.3153   -0.0001 C.ar    1  LIG1        0.1849
     30 C           3.9028    9.7027   -0.0001 C.ar    1  LIG1        0.1159
     31 C           2.7487   10.4588   -0.0002 C.ar    1  LIG1        0.1934
     32 O           1.6292    9.6260   -0.0003 O.2     1  LIG1       -0.4434
     33 O           4.2837    7.2872   -0.0000 O.3     1  LIG1       -0.4901
     34 C           3.5098    6.0847   -0.0001 C.3     1  LIG1        0.0790
     35 H           4.1651    5.2388   -0.0002 H       1  LIG1        0.0660
     36 H           2.8927    6.0577    0.8737 H       1  LIG1        0.0660
     37 H           2.8926    6.0578   -0.8736 H       1  LIG1        0.0660
     38 C           5.1320   10.1260   -0.0001 C.1     1  LIG1       -0.0620
     39 C           6.2677   10.5171   -0.0001 C.1     1  LIG1       -0.1137
     40 H           7.2794   10.8655   -0.0001 H       1  LIG1        0.1232
     41 C           2.4738   11.7294   -0.0002 C.ar    1  LIG1        0.2136
     42 C           1.3203   12.4859   -0.0002 C.ar    1  LIG1        0.1842
     43 C           1.7343   13.8736   -0.0002 C.ar    1  LIG1        0.1047
     44 C           3.1141   13.8729   -0.0003 C.ar    1  LIG1        0.1118
     45 O           3.5935   12.5625   -0.0004 O.2     1  LIG1       -0.4547
     46 H           4.0408   14.7846   -0.0002 H       1  LIG1        0.1043
     47 O           0.0911   12.0626   -0.0001 O.3     1  LIG1       -0.4901
     48 C          -0.7991   13.1818   -0.0002 C.3     1  LIG1        0.0790
     49 H          -1.8106   12.8329   -0.0003 H       1  LIG1        0.0660
     50 H          -0.6265   13.7749    0.8735 H       1  LIG1        0.0660
     51 H          -0.6263   13.7749   -0.8738 H       1  LIG1        0.0660
     52 C           0.9387   14.9016   -0.0002 C.1     1  LIG1       -0.0628
     53 C           0.2035   15.8515   -0.0002 C.1     1  LIG1       -0.1137
     54 H          -0.4514   16.6977   -0.0002 H       1  LIG1        0.1232
@<TRIPOS>BOND
     1    51    48    1
     2    24    21    1
     3    37    34    1
     4    11     8    1
     5    45    44   ar
     6    45    41   ar
     7    32    31   ar
     8    32    28   ar
     9    49    48    1
    10    19    18   ar
    11    19    15   ar
    12    44    46    1
    13    44    43   ar
    14    31    41    1
    15    31    30   ar
    16    42    41   ar
    17    42    43   ar
    18    42    47    1
    19     5     4   ar
    20     5     1   ar
    21    22    21    1
    22    48    47    1
    23    48    50    1
    24    53    54    1
    25    53    52    3
    26    43    52    1
    27    18    28    1
    28    18    17   ar
    29    35    34    1
    30    28    29   ar
    31    27    26    1
    32    29    30   ar
    33    29    33    1
    34    26    25    3
    35    16    17   ar
    36    16    15   ar
    37    16    20    1
    38    25    17    1
    39    30    38    1
    40    15     4    1
    41     4     3   ar
    42    21    20    1
    43    21    23    1
    44    38    39    3
    45    34    33    1
    46    34    36    1
    47    39    40    1
    48     9     8    1
    49     6     1    1
    50     3     2   ar
    51     3    12    1
    52     2     1   ar
    53     2     7    1
    54    12    13    3
    55    13    14    1
    56     8     7    1
    57     8    10    1
