@<TRIPOS>MOLECULE
mol_data/noopt/geoms/mol2/12le12le-12le-12le-.out
 54 57 0 0 0
SMALL
GASTEIGER

@<TRIPOS>ATOM
      1 C           0.1763    1.8460    0.0000 C.ar    1  LIG1        0.1355
      2 C           1.5558    1.8460    0.0000 C.ar    1  LIG1        0.1737
      3 C           1.9706    3.2334    0.0000 C.ar    1  LIG1        0.1152
      4 C           0.8165    3.9895   -0.0001 C.ar    1  LIG1        0.1924
      5 O          -0.3030    3.1567   -0.0002 O.2     1  LIG1       -0.4547
      6 H          -0.7504    0.9343    0.0000 H       1  LIG1        0.1068
      7 O           2.3515    0.8179    0.0001 O.3     1  LIG1       -0.4907
      8 C           1.5776   -0.3846    0.0001 C.3     1  LIG1        0.0790
      9 H           2.2328   -1.2305   -0.0000 H       1  LIG1        0.0660
     10 H           0.9604   -0.4116    0.8738 H       1  LIG1        0.0660
     11 H           0.9604   -0.4115   -0.8735 H       1  LIG1        0.0660
     12 C           3.1998    3.6567    0.0000 C.1     1  LIG1       -0.0621
     13 C           4.3355    4.0478    0.0000 C.1     1  LIG1       -0.1137
     14 H           5.3472    4.3962    0.0000 H       1  LIG1        0.1232
     15 C           0.5416    5.2601   -0.0001 C.ar    1  LIG1        0.2146
     16 C          -0.6119    6.0167   -0.0001 C.ar    1  LIG1        0.1849
     17 C          -0.1979    7.4043   -0.0001 C.ar    1  LIG1        0.1159
     18 C           1.1818    7.4036   -0.0002 C.ar    1  LIG1        0.1934
     19 O           1.6612    6.0932   -0.0003 O.2     1  LIG1       -0.4434
     20 O          -1.8411    5.5933   -0.0000 O.3     1  LIG1       -0.4901
     21 C          -2.7313    6.7125   -0.0001 C.3     1  LIG1        0.0790
     22 H          -3.7429    6.3637   -0.0002 H       1  LIG1        0.0660
     23 H          -2.5587    7.3056    0.8736 H       1  LIG1        0.0660
     24 H          -2.5585    7.3057   -0.8737 H       1  LIG1        0.0660
     25 C          -0.9936    8.4323   -0.0001 C.1     1  LIG1       -0.0620
     26 C          -1.7288    9.3823   -0.0001 C.1     1  LIG1       -0.1137
     27 H          -2.3837   10.2284   -0.0001 H       1  LIG1        0.1232
     28 C           2.1085    8.3153   -0.0002 C.ar    1  LIG1        0.2146
     29 C           2.1310    9.6946   -0.0002 C.ar    1  LIG1        0.1849
     30 C           3.5250   10.0867   -0.0001 C.ar    1  LIG1        0.1159
     31 C           4.2622    8.9204   -0.0002 C.ar    1  LIG1        0.1934
     32 O           3.4112    7.8147   -0.0003 O.2     1  LIG1       -0.4434
     33 O           1.1161   10.5070   -0.0001 O.3     1  LIG1       -0.4901
     34 C           1.5858   11.8576   -0.0001 C.3     1  LIG1        0.0790
     35 H           0.7501   12.5259   -0.0002 H       1  LIG1        0.0660
     36 H           2.1793   12.0289    0.8736 H       1  LIG1        0.0660
     37 H           2.1794   12.0288   -0.8737 H       1  LIG1        0.0660
     38 C           3.9683   11.3088   -0.0001 C.1     1  LIG1       -0.0620
     39 C           4.3779   12.4380   -0.0001 C.1     1  LIG1       -0.1137
     40 H           4.7428   13.4439   -0.0001 H       1  LIG1        0.1232
     41 C           5.5281    8.6248   -0.0002 C.ar    1  LIG1        0.2136
     42 C           6.7057    9.3433   -0.0002 C.ar    1  LIG1        0.1842
     43 C           7.7825    8.3750   -0.0001 C.ar    1  LIG1        0.1047
     44 C           7.1911    7.1285   -0.0002 C.ar    1  LIG1        0.1118
     45 O           5.8017    7.2563   -0.0003 O.2     1  LIG1       -0.4547
     46 H           7.6182    5.9007   -0.0001 H       1  LIG1        0.1043
     47 O           6.8495   10.6354   -0.0001 O.3     1  LIG1       -0.4901
     48 C           8.2420   10.9607   -0.0001 C.3     1  LIG1        0.0790
     49 H           8.3599   12.0242   -0.0002 H       1  LIG1        0.0660
     50 H           8.7041   10.5508    0.8736 H       1  LIG1        0.0660
     51 H           8.7041   10.5506   -0.8737 H       1  LIG1        0.0660
     52 C           9.0522    8.6539   -0.0001 C.1     1  LIG1       -0.0628
     53 C          10.2254    8.9116   -0.0001 C.1     1  LIG1       -0.1137
     54 H          11.2705    9.1411   -0.0000 H       1  LIG1        0.1232
@<TRIPOS>BOND
     1    37    34    1
     2    51    48    1
     3    24    21    1
     4    11     8    1
     5    32    31   ar
     6    32    28   ar
     7    45    44   ar
     8    45    41   ar
     9    19    18   ar
    10    19    15   ar
    11    35    34    1
    12    49    48    1
    13    22    21    1
    14     5     4   ar
    15     5     1   ar
    16    31    41    1
    17    31    30   ar
    18    44    46    1
    19    44    43   ar
    20    18    28    1
    21    18    17   ar
    22    41    42   ar
    23    29    28   ar
    24    29    30   ar
    25    29    33    1
    26    42    43   ar
    27    42    47    1
    28    27    26    1
    29    34    33    1
    30    34    36    1
    31    48    47    1
    32    48    50    1
    33    26    25    3
    34    16    17   ar
    35    16    15   ar
    36    16    20    1
    37    30    38    1
    38    25    17    1
    39    38    39    3
    40    43    52    1
    41    39    40    1
    42    15     4    1
    43     4     3   ar
    44    21    20    1
    45    21    23    1
    46    52    53    3
    47    53    54    1
    48     9     8    1
    49    14    13    1
    50    13    12    3
    51    12     3    1
    52     6     1    1
    53     3     2   ar
    54     2     1   ar
    55     2     7    1
    56     8     7    1
    57     8    10    1
