@<TRIPOS>MOLECULE
mol_data/noopt/geoms/mol2/12le12le12le.out
 41 43 0 0 0
SMALL
GASTEIGER

@<TRIPOS>ATOM
      1 C           0.1763    1.8460    0.0000 C.ar    1  LIG1        0.1355
      2 C           1.5558    1.8460    0.0000 C.ar    1  LIG1        0.1737
      3 C           1.9706    3.2334    0.0000 C.ar    1  LIG1        0.1152
      4 C           0.8165    3.9895   -0.0001 C.ar    1  LIG1        0.1924
      5 O          -0.3030    3.1567   -0.0002 O.2     1  LIG1       -0.4547
      6 H          -0.7504    0.9343    0.0000 H       1  LIG1        0.1068
      7 O           2.3515    0.8179    0.0001 O.3     1  LIG1       -0.4907
      8 C           1.5776   -0.3846    0.0001 C.3     1  LIG1        0.0790
      9 H           2.2328   -1.2305   -0.0000 H       1  LIG1        0.0660
     10 H           0.9604   -0.4116    0.8738 H       1  LIG1        0.0660
     11 H           0.9604   -0.4115   -0.8735 H       1  LIG1        0.0660
     12 C           3.1998    3.6567    0.0000 C.1     1  LIG1       -0.0621
     13 C           4.3355    4.0478    0.0000 C.1     1  LIG1       -0.1137
     14 H           5.3472    4.3962    0.0000 H       1  LIG1        0.1232
     15 C           0.5416    5.2601   -0.0001 C.ar    1  LIG1        0.2146
     16 C           1.2792    6.4258   -0.0001 C.ar    1  LIG1        0.1849
     17 C           0.3286    7.5182   -0.0001 C.ar    1  LIG1        0.1159
     18 C          -0.9274    6.9472   -0.0002 C.ar    1  LIG1        0.1934
     19 O          -0.8223    5.5559   -0.0003 O.2     1  LIG1       -0.4434
     20 O           2.5735    6.5485   -0.0000 O.3     1  LIG1       -0.4901
     21 C           3.1758    5.2515   -0.0000 C.3     1  LIG1        0.0790
     22 H           4.2410    5.3529   -0.0001 H       1  LIG1        0.0660
     23 H           2.8686    4.7155    0.8737 H       1  LIG1        0.0660
     24 H           2.8685    4.7155   -0.8736 H       1  LIG1        0.0660
     25 C           0.6282    8.7832   -0.0001 C.1     1  LIG1       -0.0620
     26 C           0.9050    9.9521   -0.0001 C.1     1  LIG1       -0.1137
     27 H           1.1515   10.9933   -0.0001 H       1  LIG1        0.1232
     28 C          -2.1481    7.3943   -0.0002 C.ar    1  LIG1        0.2136
     29 C          -2.7387    8.6410   -0.0002 C.ar    1  LIG1        0.1842
     30 C          -4.1701    8.4218   -0.0002 C.ar    1  LIG1        0.1047
     31 C          -4.3593    7.0551   -0.0003 C.ar    1  LIG1        0.1118
     32 O          -3.1273    6.4000   -0.0004 O.2     1  LIG1       -0.4547
     33 H          -5.3898    6.2627   -0.0003 H       1  LIG1        0.1043
     34 O          -2.1503    9.8003   -0.0001 O.3     1  LIG1       -0.4901
     35 C          -0.7323    9.6157   -0.0001 C.3     1  LIG1        0.0790
     36 H          -0.2484   10.5701   -0.0002 H       1  LIG1        0.0660
     37 H          -0.4436    9.0696    0.8736 H       1  LIG1        0.0660
     38 H          -0.4437    9.0695   -0.8737 H       1  LIG1        0.0660
     39 C          -5.0789    9.3514   -0.0002 C.1     1  LIG1       -0.0628
     40 C          -5.9187   10.2103   -0.0002 C.1     1  LIG1       -0.1137
     41 H          -6.6667   10.9754   -0.0002 H       1  LIG1        0.1232
@<TRIPOS>BOND
     1    38    35    1
     2    24    21    1
     3    11     8    1
     4    32    31   ar
     5    32    28   ar
     6    19    18   ar
     7    19    15   ar
     8    31    33    1
     9    31    30   ar
    10    36    35    1
    11    29    30   ar
    12    29    28   ar
    13    29    34    1
    14    30    39    1
    15    18    28    1
    16    18    17   ar
    17    39    40    3
    18     5     4   ar
    19     5     1   ar
    20    40    41    1
    21    35    34    1
    22    35    37    1
    23    22    21    1
    24    25    26    3
    25    25    17    1
    26    26    27    1
    27    17    16   ar
    28    16    15   ar
    29    16    20    1
    30    15     4    1
    31     4     3   ar
    32    21    20    1
    33    21    23    1
    34     9     8    1
    35     1     6    1
    36     1     2   ar
    37    14    13    1
    38    13    12    3
    39    12     3    1
    40     3     2   ar
    41     2     7    1
    42     8     7    1
    43     8    10    1
