@<TRIPOS>MOLECULE
mol_data/noopt/geoms/mol2/12lf.out
 14 14 0 0 0
SMALL
GASTEIGER

@<TRIPOS>ATOM
      1 C           0.1763    1.8460    0.0000 C.ar    1  LIG1        0.1370
      2 C           1.5558    1.8460    0.0000 C.ar    1  LIG1        0.1994
      3 C           1.9706    3.2334    0.0000 C.ar    1  LIG1        0.1971
      4 C           0.8165    3.9895   -0.0001 C.ar    1  LIG1        0.1368
      5 O          -0.3030    3.1567   -0.0002 O.2     1  LIG1       -0.4635
      6 H          -0.7504    0.9343    0.0000 H       1  LIG1        0.1069
      7 H           0.5416    5.2601   -0.0001 H       1  LIG1        0.1069
      8 O           2.3515    0.8179    0.0001 O.3     1  LIG1       -0.4888
      9 C           1.5776   -0.3846    0.0001 C.3     1  LIG1        0.0791
     10 H           2.2328   -1.2305   -0.0000 H       1  LIG1        0.0660
     11 H           0.9604   -0.4116    0.8738 H       1  LIG1        0.0660
     12 H           0.9604   -0.4115   -0.8735 H       1  LIG1        0.0660
     13 O           3.1998    3.6567    0.0000 O.3     1  LIG1       -0.5012
     14 H           3.2081    4.6167    0.0000 H       1  LIG1        0.2924
@<TRIPOS>BOND
     1    12     9    1
     2     5     4   ar
     3     5     1   ar
     4     4     7    1
     5     4     3   ar
     6    10     9    1
     7     1     2   ar
     8     1     6    1
     9     2     3   ar
    10     2     8    1
    11     3    13    1
    12    13    14    1
    13     9     8    1
    14     9    11    1
