@<TRIPOS>MOLECULE
mol_data/noopt/geoms/mol2/12lf12lf-.out
 26 27 0 0 0
SMALL
GASTEIGER

@<TRIPOS>ATOM
      1 C           0.1763    1.8460    0.0000 C.ar    1  LIG1        0.1381
      2 C           1.5558    1.8460    0.0000 C.ar    1  LIG1        0.2002
      3 C           1.9706    3.2334    0.0000 C.ar    1  LIG1        0.2086
      4 C           0.8165    3.9895   -0.0001 C.ar    1  LIG1        0.2184
      5 O          -0.3030    3.1567   -0.0002 O.2     1  LIG1       -0.4521
      6 H          -0.7504    0.9343    0.0000 H       1  LIG1        0.1069
      7 O           2.3515    0.8179    0.0001 O.3     1  LIG1       -0.4888
      8 C           1.5776   -0.3846    0.0001 C.3     1  LIG1        0.0791
      9 H           2.2328   -1.2305   -0.0000 H       1  LIG1        0.0660
     10 H           0.9604   -0.4116    0.8738 H       1  LIG1        0.0660
     11 H           0.9604   -0.4115   -0.8735 H       1  LIG1        0.0660
     12 O           3.1998    3.6567    0.0000 O.3     1  LIG1       -0.5007
     13 H           3.2081    4.6167    0.0000 H       1  LIG1        0.2924
     14 C           0.5416    5.2601   -0.0001 C.ar    1  LIG1        0.2186
     15 C          -0.6119    6.0167   -0.0001 C.ar    1  LIG1        0.2109
     16 C          -0.1979    7.4043   -0.0001 C.ar    1  LIG1        0.1979
     17 C           1.1818    7.4036   -0.0002 C.ar    1  LIG1        0.1379
     18 O           1.6612    6.0932   -0.0003 O.2     1  LIG1       -0.4521
     19 H           2.1085    8.3153   -0.0002 H       1  LIG1        0.1069
     20 O          -1.8411    5.5933   -0.0000 O.3     1  LIG1       -0.4883
     21 C          -2.7313    6.7125   -0.0001 C.3     1  LIG1        0.0791
     22 H          -3.7429    6.3637   -0.0002 H       1  LIG1        0.0660
     23 H          -2.5587    7.3056    0.8736 H       1  LIG1        0.0660
     24 H          -2.5585    7.3057   -0.8737 H       1  LIG1        0.0660
     25 O          -0.9936    8.4324   -0.0001 O.3     1  LIG1       -0.5012
     26 H          -1.9053    8.1319   -0.0001 H       1  LIG1        0.2924
@<TRIPOS>BOND
     1    24    21    1
     2    11     8    1
     3    18    17   ar
     4    18    14   ar
     5     5     4   ar
     6     5     1   ar
     7    22    21    1
     8    17    19    1
     9    17    16   ar
    10    26    25    1
    11    15    16   ar
    12    15    14   ar
    13    15    20    1
    14    25    16    1
    15    14     4    1
    16     4     3   ar
    17    21    20    1
    18    21    23    1
    19     9     8    1
    20    13    12    1
    21     1     6    1
    22     1     2   ar
    23    12     3    1
    24     3     2   ar
    25     2     7    1
    26     8     7    1
    27     8    10    1
