@<TRIPOS>MOLECULE
mol_data/noopt/geoms/mol2/12lf6eh-12hi-13id-.out
 51 54 0 0 0
SMALL
GASTEIGER

@<TRIPOS>ATOM
      1 C           0.1763    1.8460    0.0000 C.ar    1  LIG1        0.1379
      2 C           1.5558    1.8460    0.0000 C.ar    1  LIG1        0.2001
      3 C           1.9706    3.2334    0.0000 C.ar    1  LIG1        0.2054
      4 C           0.8165    3.9895   -0.0001 C.ar    1  LIG1        0.1825
      5 O          -0.3030    3.1567   -0.0002 O.2     1  LIG1       -0.4553
      6 H          -0.7504    0.9343    0.0000 H       1  LIG1        0.1069
      7 O           2.3515    0.8179    0.0001 O.3     1  LIG1       -0.4888
      8 C           1.5776   -0.3846    0.0001 C.3     1  LIG1        0.0791
      9 H           2.2328   -1.2305   -0.0000 H       1  LIG1        0.0660
     10 H           0.9604   -0.4116    0.8738 H       1  LIG1        0.0660
     11 H           0.9604   -0.4115   -0.8735 H       1  LIG1        0.0660
     12 O           3.1998    3.6567    0.0000 O.3     1  LIG1       -0.5008
     13 H           3.2081    4.6167    0.0000 H       1  LIG1        0.2924
     14 C          -0.7951    5.6985   -0.0211 C.ar    1  LIG1        0.1248
     15 C           0.5416    5.2601   -0.0001 C.ar    1  LIG1        0.0566
     16 C           1.5571    6.2179    0.0209 C.ar    1  LIG1       -0.0254
     17 C           1.2066    7.5691    0.0200 C.ar    1  LIG1        0.0548
     18 C          -0.1586    7.9086   -0.0020 C.ar    1  LIG1        0.1298
     19 N          -1.1512    6.9977   -0.0223 N.ar    1  LIG1       -0.2327
     20 H           2.6132    5.9133    0.0367 H       1  LIG1        0.0644
     21 C          -1.7753    4.8448   -0.0410 C.1     1  LIG1       -0.0491
     22 C          -2.6810    4.0560   -0.0594 C.1     1  LIG1       -0.1124
     23 H          -3.4878    3.3534   -0.0758 H       1  LIG1        0.1232
     24 N           2.1148    8.4990    0.0389 N.pl3   1  LIG1       -0.3562
     25 H           2.9366    8.1718   -0.4276 H       1  LIG1        0.1424
     26 H           1.7683    9.3128   -0.4276 H       1  LIG1        0.1424
     27 C          -0.5350    9.1529   -0.0037 C.ar    1  LIG1        0.1765
     28 C           0.1064   10.3743   -0.0049 C.ar    1  LIG1        0.0762
     29 C          -0.9291   11.3866   -0.0065 C.ar    1  LIG1        0.0181
     30 C          -2.1351   10.7163   -0.0062 C.ar    1  LIG1        0.1568
     31 O          -1.9182    9.3380   -0.0046 O.2     1  LIG1       -0.4496
     32 N           1.3865   10.6008   -0.0046 N.pl3   1  LIG1       -0.3548
     33 H           1.8571    9.8548   -0.4759 H       1  LIG1        0.1424
     34 H           1.5726   11.4628   -0.4760 H       1  LIG1        0.1424
     35 C          -0.7324   12.6719   -0.0080 C.3     1  LIG1       -0.0343
     36 H          -1.5419   13.1572    0.4961 H       1  LIG1        0.0279
     37 H          -0.6786   13.0234   -1.0172 H       1  LIG1        0.0279
     38 H           0.1853   12.8928    0.4960 H       1  LIG1        0.0279
     39 C          -3.3878   11.0636   -0.0071 C.ar    1  LIG1        0.0866
     40 C          -3.9614   12.2960    0.0086 C.ar    1  LIG1       -0.0048
     41 C          -5.3809   12.1073   -0.0000 C.ar    1  LIG1        0.0726
     42 C          -5.6123   10.7679   -0.0223 C.ar    1  LIG1        0.0200
     43 N          -4.3949   10.1252   -0.0262 N.ar    1  LIG1       -0.3569
     44 H          -4.2638    9.1400   -0.0412 H       1  LIG1        0.1655
     45 H          -6.7306   10.1052   -0.0374 H       1  LIG1        0.0820
     46 C          -3.3333   13.4344    0.0292 C.3     1  LIG1       -0.0364
     47 H          -3.9299   14.1617    0.5392 H       1  LIG1        0.0279
     48 H          -3.1534   13.7607   -0.9739 H       1  LIG1        0.0279
     49 H          -2.4000   13.3176    0.5391 H       1  LIG1        0.0279
     50 N          -7.0816   13.8659    0.0206 N.1     1  LIG1       -0.1908
     51 C          -6.2846   13.0417    0.0110 C.1     1  LIG1        0.1009
@<TRIPOS>BOND
     1    37    35    1
     2    48    46    1
     3    11     8    1
     4    34    32    1
     5    33    32    1
     6    26    24    1
     7    25    24    1
     8    23    22    1
     9    22    21    3
    10    44    43    1
    11    21    14    1
    12    45    42    1
    13    43    42   ar
    14    43    39   ar
    15    42    41   ar
    16    19    14   ar
    17    19    18   ar
    18    14    15   ar
    19    35    29    1
    20    35    38    1
    21    35    36    1
    22    39    30    1
    23    39    40   ar
    24    29    30   ar
    25    29    28   ar
    26    30    31   ar
    27    28    32    1
    28    28    27   ar
    29    31    27   ar
    30    27    18    1
    31    18    17   ar
    32     5     4   ar
    33     5     1   ar
    34    15     4    1
    35    15    16   ar
    36     4     3   ar
    37     9     8    1
    38    41    40   ar
    39    41    51    1
    40     1     2   ar
    41     1     6    1
    42     2     3   ar
    43     2     7    1
    44     3    12    1
    45    13    12    1
    46     8     7    1
    47     8    10    1
    48    40    46    1
    49    51    50    3
    50    17    16   ar
    51    17    24    1
    52    16    20    1
    53    46    49    1
    54    46    47    1
