@<TRIPOS>MOLECULE
mol_data/noopt/geoms/mol2/12lf12lf12lf12lf.out
 50 50 0 0 0
SMALL
GASTEIGER

@<TRIPOS>ATOM
      1 C           0.1763    1.8460    0.0000 C.ar    1  LIG1        0.1383
      2 C           1.5558    1.8460    0.0000 C.ar    1  LIG1        0.2055
      3 C           1.9706    3.2334    0.0000 C.ar    1  LIG1        0.2689
      4 C           0.8165    3.9895   -0.0001 C.ar    1  LIG1        0.2238
      5 O          -0.3030    3.1567   -0.0002 O.2     1  LIG1       -0.4519
      6 H          -0.7504    0.9343    0.0000 H       1  LIG1        0.1069
      7 O           2.3515    0.8179    0.0001 O.3     1  LIG1       -0.4887
      8 C           1.5776   -0.3846    0.0001 C.3     1  LIG1        0.0791
      9 H           2.2328   -1.2305   -0.0000 H       1  LIG1        0.0660
     10 H           0.9604   -0.4116    0.8738 H       1  LIG1        0.0660
     11 H           0.9604   -0.4115   -0.8735 H       1  LIG1        0.0660
     12 O           3.1998    3.6567    0.0000 O.3     1  LIG1       -0.2798
     13 H           3.2081    4.6167    0.0000 H       1  LIG1        0.0194
     14 C           0.5416    5.2601   -0.0001 C.ar    1  LIG1        0.2251
     15 C           1.2792    6.4258   -0.0001 C.ar    1  LIG1        0.2747
     16 C           0.3286    7.5182   -0.0001 C.ar    1  LIG1        0.2747
     17 C          -0.9274    6.9472   -0.0002 C.ar    1  LIG1        0.2251
     18 O          -0.8223    5.5559   -0.0003 O.2     1  LIG1       -0.4403
     19 O           2.5735    6.5485   -0.0000 O.3     1  LIG1       -0.2796
     20 C           3.1758    5.2515   -0.0000 C.3     2  LIG2       -0.0776
     21 H           4.2410    5.3529   -0.0001 H       1  LIG1        0.0194
     22 H           2.8686    4.7155    0.8737 H       1  LIG1        0.0194
     23 H           2.8685    4.7155   -0.8736 H       1  LIG1        0.0194
     24 O           0.6282    8.7833   -0.0001 O.3     1  LIG1       -0.2796
     25 H          -0.1786    9.3036   -0.0001 H       2  LIG2        0.0194
     26 C          -2.1481    7.3943   -0.0002 C.ar    1  LIG1        0.2251
     27 C          -2.7387    8.6410   -0.0002 C.ar    1  LIG1        0.2747
     28 C          -4.1701    8.4218   -0.0002 C.ar    1  LIG1        0.2747
     29 C          -4.3593    7.0551   -0.0003 C.ar    1  LIG1        0.2251
     30 O          -3.1273    6.4000   -0.0004 O.2     1  LIG1       -0.4403
     31 O          -2.1503    9.8003   -0.0001 O.3     1  LIG1       -0.2796
     32 C          -0.7323    9.6157   -0.0001 C.3     3  LIG3       -0.0776
     33 H          -0.2484   10.5701   -0.0002 H       2  LIG2        0.0194
     34 H          -0.4436    9.0696    0.8736 H       2  LIG2        0.0194
     35 H          -0.4437    9.0695   -0.8737 H       2  LIG2        0.0194
     36 O          -5.0790    9.3514   -0.0002 O.3     1  LIG1       -0.2796
     37 H          -5.9500    8.9479   -0.0002 H       3  LIG3        0.0194
     38 C          -5.3898    6.2627   -0.0003 C.ar    1  LIG1        0.2238
     39 C          -6.7591    6.4302   -0.0003 C.ar    1  LIG1        0.2687
     40 C          -7.3393    5.1034   -0.0003 C.ar    1  LIG1        0.2031
     41 C          -6.2855    4.2128   -0.0004 C.ar    1  LIG1        0.1381
     42 O          -5.0732    4.9035   -0.0005 O.2     1  LIG1       -0.4519
     43 H          -6.1669    2.9182   -0.0004 H       1  LIG1        0.1069
     44 O          -7.4241    7.5473   -0.0002 O.3     1  LIG1       -0.2798
     45 C          -6.5099    8.6469   -0.0002 C.3     4  LIG4       -0.0776
     46 H          -7.0576    9.5661   -0.0003 H       3  LIG3        0.0194
     47 H          -5.8941    8.5988    0.8735 H       3  LIG3        0.0194
     48 H          -5.8940    8.5987   -0.8738 H       3  LIG3        0.0194
     49 O          -8.6108    4.8325   -0.0003 O.3     1  LIG1       -0.5011
     50 H          -8.7356    3.8806   -0.0003 H       1  LIG1        0.2924
@<TRIPOS>BOND
     1    48    45    1
     2    35    32    1
     3    23    20    1
     4    11     8    1
     5    42    41   ar
     6    42    38   ar
     7    30    29   ar
     8    30    26   ar
     9    43    41    1
    10    41    40   ar
    11    46    45    1
    12    29    38    1
    13    29    28   ar
    14    18    17   ar
    15    18    14   ar
    16    38    39   ar
    17    39    40   ar
    18    39    44    1
    19    40    49    1
    20    49    50    1
    21    45    37    1
    22    45    47    1
    23    33    32    1
    24    26    27   ar
    25    26    17    1
    26    28    27   ar
    27    28    36    1
    28    27    31    1
    29     5     4   ar
    30     5     1   ar
    31    17    16   ar
    32    32    25    1
    33    32    34    1
    34    21    20    1
    35     4    14    1
    36     4     3   ar
    37    14    15   ar
    38    15    16   ar
    39    15    19    1
    40    16    24    1
    41    20    13    1
    42    20    22    1
    43     9     8    1
    44     2     3   ar
    45     2     1   ar
    46     2     7    1
    47     3    12    1
    48     1     6    1
    49     8     7    1
    50     8    10    1
