@<TRIPOS>MOLECULE
mol_data/noopt/geoms/mol2/12lf6ed(110)6al(40)13aa(340).out
 47 50 0 0 0
SMALL
GASTEIGER

@<TRIPOS>ATOM
      1 C           0.1763    1.8460    0.0000 C.ar    1  LIG1        0.1379
      2 C           1.5558    1.8460    0.0000 C.ar    1  LIG1        0.2001
      3 C           1.9706    3.2334    0.0000 C.ar    1  LIG1        0.2054
      4 C           0.8165    3.9895   -0.0001 C.ar    1  LIG1        0.1825
      5 O          -0.3030    3.1567   -0.0002 O.2     1  LIG1       -0.4553
      6 H          -0.7504    0.9343    0.0000 H       1  LIG1        0.1069
      7 O           2.3515    0.8179    0.0001 O.3     1  LIG1       -0.4888
      8 C           1.5776   -0.3846    0.0001 C.3     1  LIG1        0.0791
      9 H           2.2328   -1.2305   -0.0000 H       1  LIG1        0.0660
     10 H           0.9604   -0.4116    0.8738 H       1  LIG1        0.0660
     11 H           0.9604   -0.4115   -0.8735 H       1  LIG1        0.0660
     12 O           3.1998    3.6567    0.0000 O.3     1  LIG1       -0.5008
     13 H           3.2081    4.6167    0.0000 H       1  LIG1        0.2924
     14 C           0.7972    6.0430   -1.1408 C.ar    1  LIG1        0.1246
     15 C           0.5416    5.2601   -0.0001 C.ar    1  LIG1        0.0561
     16 C          -0.0110    5.8786    1.1229 C.ar    1  LIG1       -0.0288
     17 C          -0.2870    7.2459    1.0694 C.ar    1  LIG1        0.0785
     18 C           0.0043    7.9439   -0.1170 C.ar    1  LIG1        0.0913
     19 N           0.5372    7.3630   -1.2097 N.ar    1  LIG1       -0.2364
     20 H          -0.2236    5.2996    2.0327 H       1  LIG1        0.0639
     21 C           1.3108    5.5125   -2.2107 C.1     1  LIG1       -0.0491
     22 C           1.7854    5.0223   -3.1993 C.1     1  LIG1       -0.1124
     23 H           2.2081    4.5857   -4.0800 H       1  LIG1        0.1232
     24 N          -1.2550    8.4168    2.9871 N.1     1  LIG1       -0.1908
     25 C          -0.8013    7.8681    2.0884 C.1     1  LIG1        0.1013
     26 C          -1.2692    9.6851   -1.0469 C.ar    1  LIG1        0.0378
     27 C          -0.2349    9.2179   -0.2155 C.ar    1  LIG1        0.0232
     28 C           0.5218   10.1510    0.4957 C.ar    1  LIG1       -0.0071
     29 C           0.2228   11.5071    0.3537 C.ar    1  LIG1        0.1480
     30 C          -0.8310   11.8763   -0.5022 C.ar    1  LIG1        0.1285
     31 N          -1.5713   10.9895   -1.1956 N.ar    1  LIG1       -0.2492
     32 H           1.3387    9.8236    1.1543 H       1  LIG1        0.0662
     33 H          -2.0013    8.8551   -1.7289 H       1  LIG1        0.0836
     34 O           0.8981   12.4148    0.9941 O.3     1  LIG1       -0.4929
     35 C           2.2276   11.9436    1.2292 C.3     1  LIG1        0.0789
     36 H           2.7830   12.6910    1.7561 H       1  LIG1        0.0660
     37 H           2.1905   11.0483    1.8140 H       1  LIG1        0.0660
     38 H           2.7041   11.7387    0.2933 H       1  LIG1        0.0660
     39 C          -1.1475   13.1264   -0.6673 C.ar    1  LIG1        0.0685
     40 C          -0.4011   14.1747   -1.1054 C.ar    1  LIG1       -0.0348
     41 C          -1.2429   15.3331   -1.0947 C.ar    1  LIG1       -0.0438
     42 C          -2.4671   14.9414   -0.6522 C.ar    1  LIG1        0.0022
     43 N          -2.4130   13.5912   -0.3889 N.ar    1  LIG1       -0.3594
     44 H          -3.1680   13.0395   -0.0519 H       1  LIG1        0.1654
     45 H          -3.5572   15.6260   -0.4707 H       1  LIG1        0.0807
     46 H           0.8473   14.1301   -1.4655 H       1  LIG1        0.0639
     47 H          -0.9029   16.5384   -1.4436 H       1  LIG1        0.0633
@<TRIPOS>BOND
     1    23    22    1
     2    22    21    3
     3    21    14    1
     4    33    26    1
     5    46    40    1
     6    47    41    1
     7    19    14   ar
     8    19    18   ar
     9    31    26   ar
    10    31    30   ar
    11    14    15   ar
    12    40    41   ar
    13    40    39   ar
    14    41    42   ar
    15    26    27   ar
    16    11     8    1
    17    39    30    1
    18    39    43   ar
    19    42    45    1
    20    42    43   ar
    21    30    29   ar
    22    43    44    1
    23    27    18    1
    24    27    28   ar
    25    18    17   ar
    26     5     4   ar
    27     5     1   ar
    28    15     4    1
    29    15    16   ar
    30     4     3   ar
    31     9     8    1
    32     1     2   ar
    33     1     6    1
    34     2     3   ar
    35     2     7    1
    36     3    12    1
    37    13    12    1
    38     8     7    1
    39     8    10    1
    40    38    35    1
    41    29    28   ar
    42    29    34    1
    43    28    32    1
    44    34    35    1
    45    17    16   ar
    46    17    25    1
    47    16    20    1
    48    35    36    1
    49    35    37    1
    50    25    24    3
