@<TRIPOS>MOLECULE
mol_data/noopt/geoms/mol2/12lf12lf12lf-12lf.out
 50 52 0 0 0
SMALL
GASTEIGER

@<TRIPOS>ATOM
      1 C           0.1763    1.8460    0.0000 C.ar    1  LIG1        0.1383
      2 C           1.5558    1.8460    0.0000 C.ar    1  LIG1        0.2055
      3 C           1.9706    3.2334    0.0000 C.ar    1  LIG1        0.2689
      4 C           0.8165    3.9895   -0.0001 C.ar    1  LIG1        0.2238
      5 O          -0.3030    3.1567   -0.0002 O.2     1  LIG1       -0.4519
      6 H          -0.7504    0.9343    0.0000 H       1  LIG1        0.1069
      7 O           2.3515    0.8179    0.0001 O.3     1  LIG1       -0.4887
      8 C           1.5776   -0.3846    0.0001 C.3     1  LIG1        0.0791
      9 H           2.2328   -1.2305   -0.0000 H       1  LIG1        0.0660
     10 H           0.9604   -0.4116    0.8738 H       1  LIG1        0.0660
     11 H           0.9604   -0.4115   -0.8735 H       1  LIG1        0.0660
     12 O           3.1998    3.6567    0.0000 O.3     1  LIG1       -0.2798
     13 H           3.2081    4.6167    0.0000 H       1  LIG1        0.0194
     14 C           0.5416    5.2601   -0.0001 C.ar    1  LIG1        0.2249
     15 C           1.2792    6.4258   -0.0001 C.ar    1  LIG1        0.2695
     16 C           0.3286    7.5182   -0.0001 C.ar    1  LIG1        0.2145
     17 C          -0.9274    6.9472   -0.0002 C.ar    1  LIG1        0.2197
     18 O          -0.8223    5.5559   -0.0003 O.2     1  LIG1       -0.4405
     19 O           2.5735    6.5485   -0.0000 O.3     1  LIG1       -0.2798
     20 C           3.1758    5.2515   -0.0000 C.3     2  LIG2       -0.0776
     21 H           4.2410    5.3529   -0.0001 H       1  LIG1        0.0194
     22 H           2.8686    4.7155    0.8737 H       1  LIG1        0.0194
     23 H           2.8685    4.7155   -0.8736 H       1  LIG1        0.0194
     24 O           0.6282    8.7833   -0.0001 O.3     1  LIG1       -0.5006
     25 H          -0.1786    9.3036   -0.0001 H       1  LIG1        0.2924
     26 C          -2.1481    7.3943   -0.0002 C.ar    1  LIG1        0.2197
     27 C          -3.4042    6.8241   -0.0002 C.ar    1  LIG1        0.2117
     28 C          -4.3554    7.9160   -0.0002 C.ar    1  LIG1        0.2094
     29 C          -3.6171    9.0815   -0.0003 C.ar    1  LIG1        0.2194
     30 O          -2.2534    8.7859   -0.0004 O.2     1  LIG1       -0.4407
     31 O          -3.7038    5.5591   -0.0001 O.3     1  LIG1       -0.4883
     32 C          -5.1255    5.4052   -0.0002 C.3     1  LIG1        0.0791
     33 H          -5.3716    4.3639   -0.0003 H       1  LIG1        0.0660
     34 H          -5.5344    5.8683    0.8735 H       1  LIG1        0.0660
     35 H          -5.5343    5.8684   -0.8738 H       1  LIG1        0.0660
     36 O          -5.6497    7.7933   -0.0002 O.3     1  LIG1       -0.5007
     37 H          -5.8833    6.8622   -0.0002 H       1  LIG1        0.2924
     38 C          -3.8920   10.3521   -0.0003 C.ar    1  LIG1        0.2186
     39 C          -3.1543   11.5178   -0.0002 C.ar    1  LIG1        0.2109
     40 C          -4.1049   12.6102   -0.0002 C.ar    1  LIG1        0.1979
     41 C          -5.3610   12.0393   -0.0003 C.ar    1  LIG1        0.1379
     42 O          -5.2558   10.6479   -0.0004 O.2     1  LIG1       -0.4521
     43 H          -6.5817   12.4864   -0.0003 H       1  LIG1        0.1069
     44 O          -1.8601   11.6405   -0.0001 O.3     1  LIG1       -0.4883
     45 C          -1.2578   10.3435   -0.0002 C.3     1  LIG1        0.0791
     46 H          -0.1926   10.4449   -0.0003 H       1  LIG1        0.0660
     47 H          -1.5649    9.8076    0.8736 H       1  LIG1        0.0660
     48 H          -1.5651    9.8075   -0.8737 H       1  LIG1        0.0660
     49 O          -3.8054   13.8753   -0.0002 O.3     1  LIG1       -0.5012
     50 H          -4.6121   14.3956   -0.0002 H       1  LIG1        0.2924
@<TRIPOS>BOND
     1    35    32    1
     2    48    45    1
     3    23    20    1
     4    11     8    1
     5    42    41   ar
     6    42    38   ar
     7    30    29   ar
     8    30    26   ar
     9    41    43    1
    10    41    40   ar
    11    33    32    1
    12    18    17   ar
    13    18    14   ar
    14    29    38    1
    15    29    28   ar
    16    46    45    1
    17    38    39   ar
    18    39    40   ar
    19    39    44    1
    20    37    36    1
    21    27    28   ar
    22    27    26   ar
    23    27    31    1
    24    36    28    1
    25    40    49    1
    26    26    17    1
    27    17    16   ar
    28     5     4   ar
    29     5     1   ar
    30    32    31    1
    31    32    34    1
    32    49    50    1
    33    45    44    1
    34    45    47    1
    35    21    20    1
    36    24    25    1
    37    24    16    1
    38    16    15   ar
    39    15    14   ar
    40    15    19    1
    41    14     4    1
    42     4     3   ar
    43    20    13    1
    44    20    22    1
    45     9     8    1
    46     1     2   ar
    47     1     6    1
    48     2     3   ar
    49     2     7    1
    50     3    12    1
    51     8     7    1
    52     8    10    1
