@<TRIPOS>MOLECULE
mol_data/noopt/geoms/mol2/12lf12lf12lf.out
 38 38 0 0 0
SMALL
GASTEIGER

@<TRIPOS>ATOM
      1 C           0.1763    1.8460    0.0000 C.ar    1  LIG1        0.1383
      2 C           1.5558    1.8460    0.0000 C.ar    1  LIG1        0.2055
      3 C           1.9706    3.2334    0.0000 C.ar    1  LIG1        0.2689
      4 C           0.8165    3.9895   -0.0001 C.ar    1  LIG1        0.2238
      5 O          -0.3030    3.1567   -0.0002 O.2     1  LIG1       -0.4519
      6 H          -0.7504    0.9343    0.0000 H       1  LIG1        0.1069
      7 O           2.3515    0.8179    0.0001 O.3     1  LIG1       -0.4887
      8 C           1.5776   -0.3846    0.0001 C.3     1  LIG1        0.0791
      9 H           2.2328   -1.2305   -0.0000 H       1  LIG1        0.0660
     10 H           0.9604   -0.4116    0.8738 H       1  LIG1        0.0660
     11 H           0.9604   -0.4115   -0.8735 H       1  LIG1        0.0660
     12 O           3.1998    3.6567    0.0000 O.3     1  LIG1       -0.2798
     13 H           3.2081    4.6167    0.0000 H       1  LIG1        0.0194
     14 C           0.5416    5.2601   -0.0001 C.ar    1  LIG1        0.2251
     15 C           1.2792    6.4258   -0.0001 C.ar    1  LIG1        0.2747
     16 C           0.3286    7.5182   -0.0001 C.ar    1  LIG1        0.2747
     17 C          -0.9274    6.9472   -0.0002 C.ar    1  LIG1        0.2251
     18 O          -0.8223    5.5559   -0.0003 O.2     1  LIG1       -0.4403
     19 O           2.5735    6.5485   -0.0000 O.3     1  LIG1       -0.2796
     20 C           3.1758    5.2515   -0.0000 C.3     2  LIG2       -0.0776
     21 H           4.2410    5.3529   -0.0001 H       1  LIG1        0.0194
     22 H           2.8686    4.7155    0.8737 H       1  LIG1        0.0194
     23 H           2.8685    4.7155   -0.8736 H       1  LIG1        0.0194
     24 O           0.6282    8.7833   -0.0001 O.3     1  LIG1       -0.2796
     25 H          -0.1786    9.3036   -0.0001 H       2  LIG2        0.0194
     26 C          -2.1481    7.3943   -0.0002 C.ar    1  LIG1        0.2238
     27 C          -2.7387    8.6410   -0.0002 C.ar    1  LIG1        0.2687
     28 C          -4.1701    8.4218   -0.0002 C.ar    1  LIG1        0.2031
     29 C          -4.3593    7.0551   -0.0003 C.ar    1  LIG1        0.1381
     30 O          -3.1273    6.4000   -0.0004 O.2     1  LIG1       -0.4519
     31 H          -5.3898    6.2627   -0.0003 H       1  LIG1        0.1069
     32 O          -2.1503    9.8003   -0.0001 O.3     1  LIG1       -0.2798
     33 C          -0.7323    9.6157   -0.0001 C.3     3  LIG3       -0.0776
     34 H          -0.2484   10.5701   -0.0002 H       2  LIG2        0.0194
     35 H          -0.4436    9.0696    0.8736 H       2  LIG2        0.0194
     36 H          -0.4437    9.0695   -0.8737 H       2  LIG2        0.0194
     37 O          -5.0790    9.3514   -0.0002 O.3     1  LIG1       -0.5011
     38 H          -5.9500    8.9479   -0.0002 H       1  LIG1        0.2924
@<TRIPOS>BOND
     1    36    33    1
     2    23    20    1
     3    11     8    1
     4    30    29   ar
     5    30    26   ar
     6    18    17   ar
     7    18    14   ar
     8    29    31    1
     9    29    28   ar
    10    34    33    1
    11    28    27   ar
    12    28    37    1
    13    17    26    1
    14    17    16   ar
    15    27    26   ar
    16    27    32    1
    17     5     4   ar
    18     5     1   ar
    19    37    38    1
    20    33    25    1
    21    33    35    1
    22    21    20    1
    23    24    16    1
    24    16    15   ar
    25    15    14   ar
    26    15    19    1
    27    14     4    1
    28     4     3   ar
    29    20    13    1
    30    20    22    1
    31     9     8    1
    32     1     6    1
    33     1     2   ar
    34    12     3    1
    35     3     2   ar
    36     2     7    1
    37     8     7    1
    38     8    10    1
