@<TRIPOS>MOLECULE
mol_data/noopt/geoms/mol2/12lf12lf-12lf-12lf.out
 50 53 0 0 0
SMALL
GASTEIGER

@<TRIPOS>ATOM
      1 C           0.1763    1.8460    0.0000 C.ar    1  LIG1        0.1381
      2 C           1.5558    1.8460    0.0000 C.ar    1  LIG1        0.2002
      3 C           1.9706    3.2334    0.0000 C.ar    1  LIG1        0.2086
      4 C           0.8165    3.9895   -0.0001 C.ar    1  LIG1        0.2184
      5 O          -0.3030    3.1567   -0.0002 O.2     1  LIG1       -0.4521
      6 H          -0.7504    0.9343    0.0000 H       1  LIG1        0.1069
      7 O           2.3515    0.8179    0.0001 O.3     1  LIG1       -0.4888
      8 C           1.5776   -0.3846    0.0001 C.3     1  LIG1        0.0791
      9 H           2.2328   -1.2305   -0.0000 H       1  LIG1        0.0660
     10 H           0.9604   -0.4116    0.8738 H       1  LIG1        0.0660
     11 H           0.9604   -0.4115   -0.8735 H       1  LIG1        0.0660
     12 O           3.1998    3.6567    0.0000 O.3     1  LIG1       -0.5007
     13 H           3.2081    4.6167    0.0000 H       1  LIG1        0.2924
     14 C           0.5416    5.2601   -0.0001 C.ar    1  LIG1        0.2196
     15 C          -0.6119    6.0167   -0.0001 C.ar    1  LIG1        0.2117
     16 C          -0.1979    7.4043   -0.0001 C.ar    1  LIG1        0.2094
     17 C           1.1818    7.4036   -0.0002 C.ar    1  LIG1        0.2195
     18 O           1.6612    6.0932   -0.0003 O.2     1  LIG1       -0.4407
     19 O          -1.8411    5.5933   -0.0000 O.3     1  LIG1       -0.4883
     20 C          -2.7313    6.7125   -0.0001 C.3     1  LIG1        0.0791
     21 H          -3.7429    6.3637   -0.0002 H       1  LIG1        0.0660
     22 H          -2.5587    7.3056    0.8736 H       1  LIG1        0.0660
     23 H          -2.5585    7.3057   -0.8737 H       1  LIG1        0.0660
     24 O          -0.9936    8.4324   -0.0001 O.3     1  LIG1       -0.5007
     25 H          -1.9053    8.1319   -0.0001 H       1  LIG1        0.2924
     26 C           2.1085    8.3153   -0.0002 C.ar    1  LIG1        0.2197
     27 C           2.1310    9.6946   -0.0002 C.ar    1  LIG1        0.2117
     28 C           3.5250   10.0867   -0.0001 C.ar    1  LIG1        0.2094
     29 C           4.2622    8.9204   -0.0002 C.ar    1  LIG1        0.2194
     30 O           3.4112    7.8147   -0.0003 O.2     1  LIG1       -0.4407
     31 O           1.1161   10.5070   -0.0001 O.3     1  LIG1       -0.4883
     32 C           1.5858   11.8576   -0.0001 C.3     1  LIG1        0.0791
     33 H           0.7501   12.5259   -0.0002 H       1  LIG1        0.0660
     34 H           2.1793   12.0289    0.8736 H       1  LIG1        0.0660
     35 H           2.1794   12.0288   -0.8737 H       1  LIG1        0.0660
     36 O           3.9683   11.3088   -0.0001 O.3     1  LIG1       -0.5007
     37 H           3.2269   11.9186   -0.0001 H       1  LIG1        0.2924
     38 C           5.5281    8.6248   -0.0002 C.ar    1  LIG1        0.2186
     39 C           6.2658    7.4591   -0.0001 C.ar    1  LIG1        0.2109
     40 C           7.6600    7.8504   -0.0001 C.ar    1  LIG1        0.1979
     41 C           7.6818    9.2300   -0.0002 C.ar    1  LIG1        0.1379
     42 O           6.3794    9.7307   -0.0003 O.2     1  LIG1       -0.4521
     43 H           8.6085   10.1417   -0.0002 H       1  LIG1        0.1069
     44 O           5.8225    6.2370   -0.0000 O.3     1  LIG1       -0.4883
     45 C           4.3925    6.2480   -0.0001 C.3     1  LIG1        0.0791
     46 H           4.0281    5.2419   -0.0002 H       1  LIG1        0.0660
     47 H           4.0397    6.7550    0.8737 H       1  LIG1        0.0660
     48 H           4.0397    6.7552   -0.8736 H       1  LIG1        0.0660
     49 O           8.6749    7.0381   -0.0001 O.3     1  LIG1       -0.5012
     50 H           9.4906    7.5444   -0.0001 H       1  LIG1        0.2924
@<TRIPOS>BOND
     1    35    32    1
     2    23    20    1
     3    48    45    1
     4    11     8    1
     5    42    41   ar
     6    42    38   ar
     7    30    29   ar
     8    30    26   ar
     9    18    17   ar
    10    18    14   ar
    11    33    32    1
    12    41    43    1
    13    41    40   ar
    14     5     4   ar
    15     5     1   ar
    16    21    20    1
    17    29    38    1
    18    29    28   ar
    19    17    26    1
    20    17    16   ar
    21    46    45    1
    22    38    39   ar
    23    27    26   ar
    24    27    28   ar
    25    27    31    1
    26    32    31    1
    27    32    34    1
    28    39    40   ar
    29    39    44    1
    30    15    16   ar
    31    15    14   ar
    32    15    19    1
    33    25    24    1
    34    28    36    1
    35    24    16    1
    36    36    37    1
    37     4    14    1
    38     4     3   ar
    39    40    49    1
    40    20    19    1
    41    20    22    1
    42    45    44    1
    43    45    47    1
    44    49    50    1
    45     9     8    1
    46    13    12    1
    47    12     3    1
    48     6     1    1
    49     3     2   ar
    50     2     1   ar
    51     2     7    1
    52     8     7    1
    53     8    10    1
