@<TRIPOS>MOLECULE
mol_data/noopt/geoms/mol2/12lf4id(200)4di(350)13ld(190).out
 55 60 0 0 0
SMALL
GASTEIGER

@<TRIPOS>ATOM
      1 C           0.1763    1.8460    0.0000 C.ar    1  LIG1        0.1379
      2 C           1.5558    1.8460    0.0000 C.ar    1  LIG1        0.2001
      3 C           1.9706    3.2334    0.0000 C.ar    1  LIG1        0.2053
      4 C           0.8165    3.9895   -0.0001 C.ar    1  LIG1        0.1801
      5 O          -0.3030    3.1567   -0.0002 O.2     1  LIG1       -0.4554
      6 H          -0.7504    0.9343    0.0000 H       1  LIG1        0.1069
      7 O           2.3515    0.8179    0.0001 O.3     1  LIG1       -0.4888
      8 C           1.5776   -0.3846    0.0001 C.3     1  LIG1        0.0791
      9 H           2.2328   -1.2305   -0.0000 H       1  LIG1        0.0660
     10 H           0.9604   -0.4116    0.8738 H       1  LIG1        0.0660
     11 H           0.9604   -0.4115   -0.8735 H       1  LIG1        0.0660
     12 O           3.1998    3.6567    0.0000 O.3     1  LIG1       -0.5008
     13 H           3.2081    4.6167    0.0000 H       1  LIG1        0.2924
     14 C          -0.7294    5.7038   -0.4189 C.ar    1  LIG1       -0.0391
     15 C          -0.9773    7.0900   -0.4020 C.ar    1  LIG1       -0.0498
     16 C           0.5416    5.2600   -0.0001 C.ar    1  LIG1        0.0246
     17 C          -0.0043    7.9961    0.0137 C.ar    1  LIG1       -0.0077
     18 H          -1.9513    7.4539   -0.7213 H       1  LIG1        0.0627
     19 C           1.5133    6.1642    0.4150 C.ar    1  LIG1       -0.0408
     20 C           1.2478    7.5375    0.4251 C.ar    1  LIG1        0.0127
     21 H           2.4858    5.7973    0.7332 H       1  LIG1        0.0631
     22 C          -1.6771    4.9074   -0.8169 C.3     1  LIG1       -0.0390
     23 H          -1.4933    3.9208   -0.4459 H       1  LIG1        0.0278
     24 H          -1.7006    4.8876   -1.8865 H       1  LIG1        0.0278
     25 H          -2.6173    5.2585   -0.4460 H       1  LIG1        0.0278
     26 N           2.9648    9.1194    1.1570 N.ar    1  LIG1       -0.1464
     27 C           2.1601    8.3780    0.8140 C.ar    1  LIG1        0.1215
     28 C           0.7699   10.2011   -0.1930 C.ar    1  LIG1        0.0126
     29 C           0.4338   11.5687   -0.1789 C.ar    1  LIG1       -0.0424
     30 C          -0.2671    9.2692    0.0168 C.ar    1  LIG1       -0.0077
     31 C          -0.8762   11.9919    0.0340 C.ar    1  LIG1        0.0055
     32 H           1.2187   12.3046   -0.3385 H       1  LIG1        0.0631
     33 C          -1.5751    9.6912    0.2294 C.ar    1  LIG1       -0.0498
     34 C          -1.8890   11.0542    0.2394 C.ar    1  LIG1       -0.0406
     35 H          -2.3571    8.9532    0.3889 H       1  LIG1        0.0627
     36 N           3.1032    9.5734   -0.5768 N.ar    1  LIG1       -0.1464
     37 C           2.0097    9.8676   -0.3969 C.ar    1  LIG1        0.1215
     38 C          -3.1138   11.4429    0.4388 C.3     1  LIG1       -0.0391
     39 H          -3.6402   10.6934    0.9920 H       1  LIG1        0.0278
     40 H          -3.5972   11.5962   -0.5034 H       1  LIG1        0.0278
     41 H          -3.1117   12.3589    0.9919 H       1  LIG1        0.0278
     42 C          -1.1510   13.2625    0.0406 C.ar    1  LIG1        0.0903
     43 C          -2.3357   13.9095   -0.1201 C.ar    1  LIG1        0.1625
     44 C          -2.0724   15.3138   -0.0250 C.ar    1  LIG1        0.1112
     45 C          -0.7387   15.4632    0.1914 C.ar    1  LIG1        0.0233
     46 N          -0.1707   14.2099    0.2318 N.ar    1  LIG1       -0.3565
     47 H           0.7941   14.0192    0.3767 H       1  LIG1        0.1655
     48 H          -0.0243   16.5384    0.3454 H       1  LIG1        0.0821
     49 O          -3.4925   13.3524   -0.3241 O.3     1  LIG1       -0.4917
     50 C          -4.5021   14.3624   -0.3990 C.3     1  LIG1        0.0789
     51 H          -5.4539   13.9035   -0.5671 H       1  LIG1        0.0660
     52 H          -4.5275   14.9102    0.5198 H       1  LIG1        0.0660
     53 H          -4.2802   15.0292   -1.2058 H       1  LIG1        0.0660
     54 N          -3.7149   17.1172   -0.2149 N.1     1  LIG1       -0.1907
     55 C          -2.9452   16.2720   -0.1259 C.1     1  LIG1        0.1044
@<TRIPOS>BOND
     1    24    22    1
     2    53    50    1
     3    11     8    1
     4    22    25    1
     5    22    23    1
     6    22    14    1
     7    18    15    1
     8    36    37   ar
     9    36    26   ar
    10    51    50    1
    11    40    38    1
    12    14    15   ar
    13    14    16   ar
    14    15    17   ar
    15    50    49    1
    16    50    52    1
    17    37    28   ar
    18    37    27   ar
    19    32    29    1
    20    49    43    1
    21    54    55    3
    22    28    29   ar
    23    28    30   ar
    24    29    31   ar
    25    55    44    1
    26    43    44   ar
    27    43    42   ar
    28    44    45   ar
    29     5     4   ar
    30     5     1   ar
    31    16     4    1
    32    16    19   ar
    33     4     3   ar
    34     9     8    1
    35     6     1    1
    36     1     2   ar
    37     2     3   ar
    38     2     7    1
    39    13    12    1
    40    12     3    1
    41     8     7    1
    42     8    10    1
    43    17    30   ar
    44    17    20   ar
    45    30    33   ar
    46    31    42    1
    47    31    34   ar
    48    42    46   ar
    49    45    46   ar
    50    45    48    1
    51    33    34   ar
    52    33    35    1
    53    46    47    1
    54    34    38    1
    55    19    20   ar
    56    19    21    1
    57    20    27   ar
    58    38    41    1
    59    38    39    1
    60    27    26   ar
