@<TRIPOS>MOLECULE
mol_data/noopt/geoms/mol2/12lf12id4ea-6id.out
 50 54 0 0 0
SMALL
GASTEIGER

@<TRIPOS>ATOM
      1 C           0.1763    1.8460    0.0000 C.ar    1  LIG1        0.1381
      2 C           1.5558    1.8460    0.0000 C.ar    1  LIG1        0.2002
      3 C           1.9706    3.2334    0.0000 C.ar    1  LIG1        0.2085
      4 C           0.8165    3.9895   -0.0001 C.ar    1  LIG1        0.2149
      5 O          -0.3030    3.1567   -0.0002 O.2     1  LIG1       -0.4522
      6 H          -0.7504    0.9343    0.0000 H       1  LIG1        0.1069
      7 O           2.3515    0.8179    0.0001 O.3     1  LIG1       -0.4888
      8 C           1.5776   -0.3846    0.0001 C.3     1  LIG1        0.0791
      9 H           2.2328   -1.2305   -0.0000 H       1  LIG1        0.0660
     10 H           0.9604   -0.4116    0.8738 H       1  LIG1        0.0660
     11 H           0.9604   -0.4115   -0.8735 H       1  LIG1        0.0660
     12 O           3.1998    3.6567    0.0000 O.3     1  LIG1       -0.5007
     13 H           3.2081    4.6167    0.0000 H       1  LIG1        0.2924
     14 C           0.5416    5.2601   -0.0001 C.ar    1  LIG1        0.1776
     15 C           1.2791    6.4258    0.0147 C.ar    1  LIG1        0.0046
     16 C           0.3286    7.5182    0.0040 C.ar    1  LIG1        0.0321
     17 C          -0.9273    6.9473   -0.0167 C.ar    1  LIG1        0.1424
     18 O          -0.8221    5.5559   -0.0197 O.2     1  LIG1       -0.4509
     19 C           2.5735    6.5484    0.0345 C.3     1  LIG1       -0.0357
     20 H           2.8385    7.4511    0.5443 H       1  LIG1        0.0279
     21 H           2.9439    6.5836   -0.9688 H       1  LIG1        0.0279
     22 H           3.0033    5.7116    0.5443 H       1  LIG1        0.0279
     23 N           0.8923    9.8989    0.0201 N.pl3   1  LIG1       -0.2335
     24 C           0.6281    8.7832    0.0126 C.3     1  LIG1        0.1413
     25 C          -2.3872    8.7837   -0.0205 C.2     1  LIG1        0.0290
     26 C          -3.7269    9.2174   -0.0381 C.2     1  LIG1       -0.0418
     27 C          -2.1478    7.3944   -0.0335 C.2     1  LIG1        0.0291
     28 C          -4.7832    8.3097   -0.0679 C.2     1  LIG1       -0.0296
     29 H          -3.9341   10.2852   -0.0283 H       1  LIG1        0.0633
     30 C          -3.2019    6.4877   -0.0633 C.2     1  LIG1       -0.0639
     31 C          -4.5260    6.9382   -0.0808 C.3     1  LIG1        0.0141
     32 H          -2.9914    5.4213   -0.0727 H       1  LIG1        0.0586
     33 C          -1.4444    9.6784    0.0070 C.1     1  LIG1       -0.0946
     34 C          -0.5733   10.5051    0.0324 C.2     1  LIG1        0.0551
     35 H           0.2027   11.2414    0.0550 H       1  LIG1        0.0888
     36 H          -5.5074    6.0860   -0.1085 H       1  LIG1        0.0401
     37 C          -7.0846    7.8392   -0.0921 C.ar    1  LIG1        0.0457
     38 C          -6.0081    8.7449   -0.0837 C.ar    1  LIG1        0.0010
     39 C          -6.2875   10.1127   -0.0922 C.ar    1  LIG1       -0.0337
     40 C          -7.6207   10.5261   -0.1090 C.ar    1  LIG1        0.0704
     41 C          -8.6282    9.5440   -0.1165 C.ar    1  LIG1        0.0452
     42 N          -8.3765    8.2204   -0.1082 N.ar    1  LIG1       -0.2583
     43 H          -5.4725   10.8503   -0.0870 H       1  LIG1        0.0637
     44 H          -9.8842    9.8792   -0.1320 H       1  LIG1        0.0843
     45 C          -6.8750    6.5559   -0.0846 C.3     1  LIG1       -0.0218
     46 H          -5.9557    6.3476    0.4219 H       1  LIG1        0.0293
     47 H          -6.8165    6.1981   -1.0913 H       1  LIG1        0.0293
     48 H          -7.6802    6.0659    0.4219 H       1  LIG1        0.0293
     49 N          -8.2085   12.9010   -0.1253 N.1     1  LIG1       -0.1908
     50 C          -7.9330   11.7880   -0.1177 C.1     1  LIG1        0.1007
@<TRIPOS>BOND
     1    47    45    1
     2    21    19    1
     3    11     8    1
     4    44    41    1
     5    49    50    3
     6    50    40    1
     7    41    40   ar
     8    41    42   ar
     9    40    39   ar
    10    36    31    1
    11    42    37   ar
    12    39    43    1
    13    39    38   ar
    14    37    45    1
    15    37    38   ar
    16    45    48    1
    17    45    46    1
    18    38    28    1
    19    31    28    1
    20    31    30    1
    21    32    30    1
    22    28    26    2
    23    30    27    2
    24    26    29    1
    25    26    25    1
    26    27    25    1
    27    27    17    1
    28    25    33    2
    29    18    17   ar
    30    18    14   ar
    31    17    16   ar
    32     5     4   ar
    33     5     1   ar
    34    14     4    1
    35    14    15   ar
    36     4     3   ar
    37     9     8    1
    38     1     6    1
    39     1     2   ar
    40     3     2   ar
    41     3    12    1
    42     2     7    1
    43    13    12    1
    44     8     7    1
    45     8    10    1
    46    16    24    1
    47    16    15   ar
    48    33    34    2
    49    24    23    1
    50    15    19    1
    51    23    34    1
    52    34    35    1
    53    19    22    1
    54    19    20    1
