@<TRIPOS>MOLECULE
mol_data/noopt/geoms/mol2/12lf12lf-12lf12lf.out
 50 52 0 0 0
SMALL
GASTEIGER

@<TRIPOS>ATOM
      1 C           0.1763    1.8460    0.0000 C.ar    1  LIG1        0.1381
      2 C           1.5558    1.8460    0.0000 C.ar    1  LIG1        0.2002
      3 C           1.9706    3.2334    0.0000 C.ar    1  LIG1        0.2086
      4 C           0.8165    3.9895   -0.0001 C.ar    1  LIG1        0.2184
      5 O          -0.3030    3.1567   -0.0002 O.2     1  LIG1       -0.4521
      6 H          -0.7504    0.9343    0.0000 H       1  LIG1        0.1069
      7 O           2.3515    0.8179    0.0001 O.3     1  LIG1       -0.4888
      8 C           1.5776   -0.3846    0.0001 C.3     1  LIG1        0.0791
      9 H           2.2328   -1.2305   -0.0000 H       1  LIG1        0.0660
     10 H           0.9604   -0.4116    0.8738 H       1  LIG1        0.0660
     11 H           0.9604   -0.4115   -0.8735 H       1  LIG1        0.0660
     12 O           3.1998    3.6567    0.0000 O.3     1  LIG1       -0.5007
     13 H           3.2081    4.6167    0.0000 H       1  LIG1        0.2924
     14 C           0.5416    5.2601   -0.0001 C.ar    1  LIG1        0.2196
     15 C          -0.6119    6.0167   -0.0001 C.ar    1  LIG1        0.2117
     16 C          -0.1979    7.4043   -0.0001 C.ar    1  LIG1        0.2094
     17 C           1.1818    7.4036   -0.0002 C.ar    1  LIG1        0.2195
     18 O           1.6612    6.0932   -0.0003 O.2     1  LIG1       -0.4407
     19 O          -1.8411    5.5933   -0.0000 O.3     1  LIG1       -0.4883
     20 C          -2.7313    6.7125   -0.0001 C.3     1  LIG1        0.0791
     21 H          -3.7429    6.3637   -0.0002 H       1  LIG1        0.0660
     22 H          -2.5587    7.3056    0.8736 H       1  LIG1        0.0660
     23 H          -2.5585    7.3057   -0.8737 H       1  LIG1        0.0660
     24 O          -0.9936    8.4324   -0.0001 O.3     1  LIG1       -0.5007
     25 H          -1.9053    8.1319   -0.0001 H       1  LIG1        0.2924
     26 C           2.1085    8.3153   -0.0002 C.ar    1  LIG1        0.2199
     27 C           3.4880    8.3153   -0.0001 C.ar    1  LIG1        0.2170
     28 C           3.9028    9.7027   -0.0001 C.ar    1  LIG1        0.2697
     29 C           2.7487   10.4588   -0.0002 C.ar    1  LIG1        0.2249
     30 O           1.6292    9.6260   -0.0003 O.2     1  LIG1       -0.4405
     31 O           4.2837    7.2872   -0.0000 O.3     1  LIG1       -0.4882
     32 C           3.5098    6.0847   -0.0001 C.3     1  LIG1        0.0791
     33 H           4.1651    5.2388   -0.0002 H       1  LIG1        0.0660
     34 H           2.8927    6.0577    0.8737 H       1  LIG1        0.0660
     35 H           2.8926    6.0578   -0.8736 H       1  LIG1        0.0660
     36 O           5.1320   10.1260   -0.0001 O.3     1  LIG1       -0.2798
     37 H           5.1403   11.0859   -0.0001 H       1  LIG1        0.0194
     38 C           2.4738   11.7294   -0.0002 C.ar    1  LIG1        0.2238
     39 C           3.2115   12.8951   -0.0002 C.ar    1  LIG1        0.2687
     40 C           2.2609   13.9875   -0.0002 C.ar    1  LIG1        0.2031
     41 C           1.0048   13.4165   -0.0003 C.ar    1  LIG1        0.1381
     42 O           1.1100   12.0252   -0.0004 O.2     1  LIG1       -0.4519
     43 H          -0.2159   13.8636   -0.0003 H       1  LIG1        0.1069
     44 O           4.5057   13.0177   -0.0001 O.3     1  LIG1       -0.2798
     45 C           5.1080   11.7208   -0.0001 C.3     2  LIG2       -0.0776
     46 H           6.1732   11.8222   -0.0002 H       1  LIG1        0.0194
     47 H           4.8009   11.1848    0.8736 H       1  LIG1        0.0194
     48 H           4.8007   11.1848   -0.8737 H       1  LIG1        0.0194
     49 O           2.5604   15.2525   -0.0002 O.3     1  LIG1       -0.5011
     50 H           1.7537   15.7729   -0.0002 H       1  LIG1        0.2924
@<TRIPOS>BOND
     1    48    45    1
     2    23    20    1
     3    35    32    1
     4    11     8    1
     5    42    41   ar
     6    42    38   ar
     7    30    29   ar
     8    30    26   ar
     9    41    43    1
    10    41    40   ar
    11    18    17   ar
    12    18    14   ar
    13    29    38    1
    14    29    28   ar
    15    46    45    1
    16    38    39   ar
    17    21    20    1
    18     5     4   ar
    19     5     1   ar
    20    39    40   ar
    21    39    44    1
    22    40    49    1
    23    17    26    1
    24    17    16   ar
    25    49    50    1
    26    33    32    1
    27    26    27   ar
    28    27    28   ar
    29    27    31    1
    30    45    37    1
    31    45    47    1
    32    25    24    1
    33    15    16   ar
    34    15    14   ar
    35    15    19    1
    36    24    16    1
    37    28    36    1
    38     4    14    1
    39     4     3   ar
    40    20    19    1
    41    20    22    1
    42    32    31    1
    43    32    34    1
    44     9     8    1
    45     6     1    1
    46     3     2   ar
    47     3    12    1
    48     2     1   ar
    49     2     7    1
    50    12    13    1
    51     8     7    1
    52     8    10    1
