@<TRIPOS>MOLECULE
mol_data/noopt/geoms/mol2/12lf12lf-12lf.out
 38 40 0 0 0
SMALL
GASTEIGER

@<TRIPOS>ATOM
      1 C           0.1763    1.8460    0.0000 C.ar    1  LIG1        0.1381
      2 C           1.5558    1.8460    0.0000 C.ar    1  LIG1        0.2002
      3 C           1.9706    3.2334    0.0000 C.ar    1  LIG1        0.2086
      4 C           0.8165    3.9895   -0.0001 C.ar    1  LIG1        0.2184
      5 O          -0.3030    3.1567   -0.0002 O.2     1  LIG1       -0.4521
      6 H          -0.7504    0.9343    0.0000 H       1  LIG1        0.1069
      7 O           2.3515    0.8179    0.0001 O.3     1  LIG1       -0.4888
      8 C           1.5776   -0.3846    0.0001 C.3     1  LIG1        0.0791
      9 H           2.2328   -1.2305   -0.0000 H       1  LIG1        0.0660
     10 H           0.9604   -0.4116    0.8738 H       1  LIG1        0.0660
     11 H           0.9604   -0.4115   -0.8735 H       1  LIG1        0.0660
     12 O           3.1998    3.6567    0.0000 O.3     1  LIG1       -0.5007
     13 H           3.2081    4.6167    0.0000 H       1  LIG1        0.2924
     14 C           0.5416    5.2601   -0.0001 C.ar    1  LIG1        0.2196
     15 C          -0.6119    6.0167   -0.0001 C.ar    1  LIG1        0.2117
     16 C          -0.1979    7.4043   -0.0001 C.ar    1  LIG1        0.2094
     17 C           1.1818    7.4036   -0.0002 C.ar    1  LIG1        0.2194
     18 O           1.6612    6.0932   -0.0003 O.2     1  LIG1       -0.4407
     19 O          -1.8411    5.5933   -0.0000 O.3     1  LIG1       -0.4883
     20 C          -2.7313    6.7125   -0.0001 C.3     1  LIG1        0.0791
     21 H          -3.7429    6.3637   -0.0002 H       1  LIG1        0.0660
     22 H          -2.5587    7.3056    0.8736 H       1  LIG1        0.0660
     23 H          -2.5585    7.3057   -0.8737 H       1  LIG1        0.0660
     24 O          -0.9936    8.4324   -0.0001 O.3     1  LIG1       -0.5007
     25 H          -1.9053    8.1319   -0.0001 H       1  LIG1        0.2924
     26 C           2.1085    8.3153   -0.0002 C.ar    1  LIG1        0.2186
     27 C           3.4880    8.3153   -0.0001 C.ar    1  LIG1        0.2109
     28 C           3.9028    9.7027   -0.0001 C.ar    1  LIG1        0.1979
     29 C           2.7487   10.4588   -0.0002 C.ar    1  LIG1        0.1379
     30 O           1.6292    9.6260   -0.0003 O.2     1  LIG1       -0.4521
     31 H           2.4738   11.7294   -0.0002 H       1  LIG1        0.1069
     32 O           4.2837    7.2872   -0.0000 O.3     1  LIG1       -0.4883
     33 C           3.5098    6.0847   -0.0001 C.3     1  LIG1        0.0791
     34 H           4.1651    5.2388   -0.0002 H       1  LIG1        0.0660
     35 H           2.8927    6.0577    0.8737 H       1  LIG1        0.0660
     36 H           2.8926    6.0578   -0.8736 H       1  LIG1        0.0660
     37 O           5.1320   10.1260   -0.0001 O.3     1  LIG1       -0.5012
     38 H           5.1403   11.0859   -0.0001 H       1  LIG1        0.2924
@<TRIPOS>BOND
     1    23    20    1
     2    36    33    1
     3    11     8    1
     4    30    29   ar
     5    30    26   ar
     6    18    17   ar
     7    18    14   ar
     8    29    31    1
     9    29    28   ar
    10    21    20    1
    11     5     4   ar
    12     5     1   ar
    13    17    26    1
    14    17    16   ar
    15    34    33    1
    16    26    27   ar
    17    27    28   ar
    18    27    32    1
    19    15    16   ar
    20    15    14   ar
    21    15    19    1
    22    25    24    1
    23    24    16    1
    24    28    37    1
    25    14     4    1
    26     4     3   ar
    27    20    19    1
    28    20    22    1
    29    37    38    1
    30    33    32    1
    31    33    35    1
    32     9     8    1
    33    13    12    1
    34    12     3    1
    35     6     1    1
    36     3     2   ar
    37     2     1   ar
    38     2     7    1
    39     8     7    1
    40     8    10    1
