@<TRIPOS>MOLECULE
mol_data/noopt/geoms/mol2/12lf12lf.out
 26 26 0 0 0
SMALL
GASTEIGER

@<TRIPOS>ATOM
      1 C           0.1763    1.8460    0.0000 C.ar    1  LIG1        0.1383
      2 C           1.5558    1.8460    0.0000 C.ar    1  LIG1        0.2055
      3 C           1.9706    3.2334    0.0000 C.ar    1  LIG1        0.2689
      4 C           0.8165    3.9895   -0.0001 C.ar    1  LIG1        0.2238
      5 O          -0.3030    3.1567   -0.0002 O.2     1  LIG1       -0.4519
      6 H          -0.7504    0.9343    0.0000 H       1  LIG1        0.1069
      7 O           2.3515    0.8179    0.0001 O.3     1  LIG1       -0.4887
      8 C           1.5776   -0.3846    0.0001 C.3     1  LIG1        0.0791
      9 H           2.2328   -1.2305   -0.0000 H       1  LIG1        0.0660
     10 H           0.9604   -0.4116    0.8738 H       1  LIG1        0.0660
     11 H           0.9604   -0.4115   -0.8735 H       1  LIG1        0.0660
     12 O           3.1998    3.6567    0.0000 O.3     1  LIG1       -0.2798
     13 H           3.2081    4.6167    0.0000 H       1  LIG1        0.0194
     14 C           0.5416    5.2601   -0.0001 C.ar    1  LIG1        0.2238
     15 C           1.2792    6.4258   -0.0001 C.ar    1  LIG1        0.2687
     16 C           0.3286    7.5182   -0.0001 C.ar    1  LIG1        0.2031
     17 C          -0.9274    6.9472   -0.0002 C.ar    1  LIG1        0.1381
     18 O          -0.8223    5.5559   -0.0003 O.2     1  LIG1       -0.4519
     19 H          -2.1481    7.3943   -0.0002 H       1  LIG1        0.1069
     20 O           2.5735    6.5485   -0.0000 O.3     1  LIG1       -0.2798
     21 C           3.1758    5.2515   -0.0000 C.3     2  LIG2       -0.0776
     22 H           4.2410    5.3529   -0.0001 H       1  LIG1        0.0194
     23 H           2.8686    4.7155    0.8737 H       1  LIG1        0.0194
     24 H           2.8685    4.7155   -0.8736 H       1  LIG1        0.0194
     25 O           0.6282    8.7833   -0.0001 O.3     1  LIG1       -0.5011
     26 H          -0.1786    9.3036   -0.0001 H       1  LIG1        0.2924
@<TRIPOS>BOND
     1    24    21    1
     2    11     8    1
     3    18    17   ar
     4    18    14   ar
     5     5     4   ar
     6     5     1   ar
     7    19    17    1
     8    17    16   ar
     9    22    21    1
    10    14    15   ar
    11    14     4    1
    12    26    25    1
    13    25    16    1
    14    16    15   ar
    15    15    20    1
    16     4     3   ar
    17    21    13    1
    18    21    23    1
    19     9     8    1
    20     1     6    1
    21     1     2   ar
    22    12     3    1
    23     3     2   ar
    24     2     7    1
    25     8     7    1
    26     8    10    1
