@<TRIPOS>MOLECULE
mol_data/noopt/geoms/mol2/12lh13dl-4ld12fh-12ll-12ff-6ia13fa.out
 98 99 0 0 0
SMALL
GASTEIGER

@<TRIPOS>ATOM
      1 C           0.1763    1.8460    0.0000 C.ar    1  LIG1        0.1361
      2 C           1.5558    1.8460    0.0000 C.ar    1  LIG1        0.1789
      3 C           1.9706    3.2334    0.0000 C.ar    1  LIG1        0.1148
      4 C           0.8165    3.9895   -0.0001 C.ar    1  LIG1        0.1764
      5 O          -0.3030    3.1567   -0.0002 O.2     1  LIG1       -0.4558
      6 H          -0.7504    0.9343    0.0000 H       1  LIG1        0.1068
      7 O           2.3515    0.8179    0.0001 O.3     1  LIG1       -0.4901
      8 C           1.5776   -0.3846    0.0001 C.3     1  LIG1        0.0790
      9 H           2.2328   -1.2305   -0.0000 H       1  LIG1        0.0660
     10 H           0.9604   -0.4116    0.8738 H       1  LIG1        0.0660
     11 H           0.9604   -0.4115   -0.8735 H       1  LIG1        0.0660
     12 N           3.1998    3.6567   -0.0000 N.pl3   1  LIG1       -0.3521
     13 H           3.7808    2.9932   -0.4714 H       1  LIG1        0.1425
     14 H           3.2491    4.5372   -0.4714 H       1  LIG1        0.1425
     15 C           0.5416    5.2601   -0.0001 C.2     1  LIG1        0.1031
     16 C           1.3662    6.3409   -0.0005 C.2     1  LIG1        0.0981
     17 C           0.5391    7.5098    0.0008 C.3     1  LIG1        0.0499
     18 C          -0.7546    7.0920    0.0002 C.2     1  LIG1        0.0363
     19 N          -0.7576    5.7154    0.0001 N.2     1  LIG1       -0.3534
     20 H          -1.5690    5.1412   -0.0005 H       1  LIG1        0.1658
     21 N           3.8123    6.2905   -0.0003 N.1     1  LIG1       -0.1908
     22 C           2.6659    6.3141   -0.0004 C.1     1  LIG1        0.1027
     23 O           0.9464    8.7444    0.0020 O.3     2  HOH2       -0.2528
     24 C           2.3760    8.7754    0.0023 C.3     3  LIG3       -0.0681
     25 H           2.7108    9.7917    0.0031 H       1  LIG1        0.0227
     26 H           2.7434    8.2782    0.8758 H       1  LIG1        0.0227
     27 H           2.7437    8.2794   -0.8715 H       1  LIG1        0.0227
     28 C          -1.8179    9.1833    0.0018 C.ar    1  LIG1        0.1302
     29 C          -3.0441    9.8759    0.0039 C.ar    1  LIG1       -0.0073
     30 C          -1.8613    7.7740    0.0007 C.ar    1  LIG1        0.0377
     31 C          -4.2608    9.1975    0.0043 C.ar    1  LIG1        0.0418
     32 H          -3.0336   10.9636    0.0049 H       1  LIG1        0.0662
     33 C          -3.0756    7.0963    0.0012 C.ar    1  LIG1       -0.0313
     34 C          -4.2831    7.8023    0.0029 C.ar    1  LIG1        0.0634
     35 H          -3.0827    6.0093    0.0004 H       1  LIG1        0.0638
     36 O          -0.7150    9.8715    0.0012 O.3     1  LIG1       -0.4879
     37 C           0.4035    8.9806    0.0009 C.3     1  LIG1        0.1235
     38 H           1.3110    9.5475    0.0003 H       0  HOH0        0.2528
     39 H           0.3687    8.3641    0.8749 H       1  LIG1        0.0731
     40 H           0.3679    8.3636   -0.8724 H       1  LIG1        0.0731
     41 N          -6.4138    6.5997    0.0039 N.1     1  LIG1       -0.1908
     42 C          -5.4153    7.1633    0.0034 C.1     1  LIG1        0.0999
     43 C          -5.3741    9.8688    0.0062 C.ar    1  LIG1        0.1803
     44 C          -5.7167   11.2049    0.0224 C.ar    1  LIG1        0.1846
     45 C          -7.1637   11.2623    0.0135 C.ar    1  LIG1        0.1170
     46 C          -7.6094    9.9567   -0.0076 C.ar    1  LIG1        0.1988
     47 O          -6.5247    9.0791   -0.0126 O.2     1  LIG1       -0.4458
     48 O          -4.9185   12.2309    0.0420 O.3     1  LIG1       -0.5020
     49 H          -5.4360   13.0394    0.0468 H       1  LIG1        0.2924
     50 N          -7.8790   12.3477    0.0237 N.pl3   1  LIG1       -0.3521
     51 H          -7.3826   13.0784   -0.4451 H       1  LIG1        0.1425
     52 H          -8.7462   12.1799   -0.4451 H       2  HOH2        0.0309
     53 C          -8.7719    9.3750   -0.0235 C.ar    1  LIG1        0.2229
     54 C         -10.0842    9.8001   -0.0354 C.ar    1  LIG1        0.2696
     55 C         -10.9062    8.6081   -0.0508 C.ar    1  LIG1        0.2170
     56 C         -10.0413    7.5332   -0.0474 C.ar    1  LIG1        0.2198
     57 O          -8.7198    7.9804   -0.0307 O.2     1  LIG1       -0.4406
     58 O         -10.5243   11.0234   -0.0334 O.3     1  LIG1       -0.2798
     59 C          -9.4175   11.9289   -0.0328 C.3     4  LIG4       -0.0309
     60 H          -9.7802   12.9355   -0.0313 H       5  UNK5        0.0000
     61 H          -8.8217   11.7632    0.8404 H       1  LIG1        0.1425
     62 H          -8.8225   11.7655   -0.9069 H       6  UNK6        0.0000
     63 O         -12.2060    8.5843   -0.0651 O.3     1  LIG1       -0.4882
     64 C         -12.7079    9.9233   -0.0704 C.3     1  LIG1        0.0791
     65 H         -13.7776    9.9032   -0.0823 H       1  LIG1        0.0660
     66 H         -12.3705   10.4341    0.8072 H       1  LIG1        0.0660
     67 H         -12.3511   10.4345   -0.9400 H       1  LIG1        0.0660
     68 C         -10.1713    6.2397   -0.0558 C.ar    1  LIG1        0.2193
     69 C         -11.2322    5.3579   -0.0474 C.ar    1  LIG1        0.2091
     70 C         -10.6645    4.0259   -0.0664 C.ar    1  LIG1        0.2060
     71 C          -9.2938    4.1822   -0.0852 C.ar    1  LIG1        0.1826
     72 O          -8.9651    5.5382   -0.0792 O.2     1  LIG1       -0.4439
     73 O         -12.5011    5.6399   -0.0266 O.3     1  LIG1       -0.5007
     74 H         -13.0101    4.8260   -0.0215 H       1  LIG1        0.2924
     75 O         -11.3392    2.9146   -0.0654 O.3     1  LIG1       -0.5008
     76 H         -10.7320    2.1711   -0.0652 H       1  LIG1        0.2924
     77 C          -6.9621    3.8982   -0.1180 C.ar    1  LIG1        0.0497
     78 C          -8.2704    3.3808   -0.1065 C.ar    1  LIG1        0.0421
     79 C          -8.4394    1.9950   -0.1182 C.ar    1  LIG1       -0.0472
     80 C          -7.3063    1.1801   -0.1409 C.ar    1  LIG1       -0.0334
     81 C          -6.0392    1.7917   -0.1511 C.ar    1  LIG1        0.0910
     82 N          -5.8579    3.1268   -0.1399 N.ar    1  LIG1       -0.2496
     83 H          -9.4462    1.5541   -0.1107 H       1  LIG1        0.0626
     84 C          -6.7537    5.1817   -0.1077 C.3     1  LIG1       -0.0216
     85 H          -7.5595    5.6699    0.3995 H       1  LIG1        0.0293
     86 H          -6.6953    5.5416   -1.1138 H       1  LIG1        0.0293
     87 H          -5.8348    5.3897    0.3994 H       1  LIG1        0.0293
     88 H          -7.4105   -0.1157   -0.1527 H       1  LIG1        0.0640
     89 C          -4.9546    1.0754   -0.1722 C.ar    1  LIG1        0.1069
     90 C          -4.7885   -0.2738   -0.1702 C.ar    1  LIG1        0.1435
     91 C          -3.3802   -0.5314   -0.1992 C.ar    1  LIG1       -0.0021
     92 C          -2.7476    0.6717   -0.2194 C.ar    1  LIG1        0.0058
     93 N          -3.7078    1.6582   -0.2025 N.ar    1  LIG1       -0.3565
     94 H          -3.5291    2.6359   -0.2114 H       1  LIG1        0.1655
     95 H          -1.4798    0.9578   -0.2485 H       1  LIG1        0.0808
     96 O          -5.7362   -1.1633   -0.1449 O.3     1  LIG1       -0.5046
     97 H          -5.3505   -2.0424   -0.1387 H       1  LIG1        0.2922
     98 H          -2.8083   -1.6988   -0.2057 H       1  LIG1        0.0669
@<TRIPOS>BOND
     1    86    84    1
     2    67    64    1
     3    11     8    1
     4    40    37    1
     5    27    24    1
     6    14    12    1
     7    13    12    1
     8    52    59    1
     9    51    50    1
    10    95    92    1
    11    92    93   ar
    12    92    91   ar
    13    94    93    1
    14    98    91    1
    15    93    89   ar
    16    91    90   ar
    17    89    90   ar
    18    89    81    1
    19    90    96    1
    20    88    80    1
    21    81    80   ar
    22    81    82   ar
    23    96    97    1
    24    80    79   ar
    25    82    77   ar
    26    79    83    1
    27    79    78   ar
    28    77    84    1
    29    77    78   ar
    30    84    87    1
    31    84    85    1
    32    78    71    1
    33    71    72   ar
    34    71    70   ar
    35    65    64    1
    36    72    68   ar
    37    64    63    1
    38    64    66    1
    39    70    75    1
    40    70    69   ar
    41    75    76    1
    42    63    55    1
    43    68    69   ar
    44    68    56    1
    45    55    56   ar
    46    55    54   ar
    47    69    73    1
    48    56    57   ar
    49    54    58    1
    50    54    53   ar
    51    57    53   ar
    52    73    74    1
    53    53    46    1
    54    47    46   ar
    55    47    43   ar
    56    46    45   ar
    57    20    19    1
    58    16    22    1
    59    16    15    2
    60    22    21    3
    61     5     4   ar
    62     5     1   ar
    63    15     4    1
    64    15    19    1
    65     4     3   ar
    66     9     8    1
    67     1     2   ar
    68     1     6    1
    69     2     3   ar
    70     2     7    1
    71     3    12    1
    72     8     7    1
    73     8    10    1
    74    19    18    2
    75    18    30    1
    76    18    17    1
    77    38    23    1
    78    35    33    1
    79    30    33   ar
    80    30    28   ar
    81    37    36    1
    82    37    39    1
    83    33    34   ar
    84    36    28    1
    85    28    29   ar
    86    24    25    1
    87    24    26    1
    88    34    42    1
    89    34    31   ar
    90    42    41    3
    91    29    31   ar
    92    29    32    1
    93    31    43    1
    94    43    44   ar
    95    45    44   ar
    96    45    50    1
    97    44    48    1
    98    50    61    1
    99    48    49    1
