@<TRIPOS>MOLECULE
mol_data/noopt/geoms/mol2/12lh4al(10)13hd(230)13ah(80).out
 50 49 0 0 0
SMALL
GASTEIGER

@<TRIPOS>ATOM
      1 C           0.1763    1.8460    0.0000 C.ar    1  LIG1        0.1360
      2 C           1.5558    1.8460    0.0000 C.ar    1  LIG1        0.1789
      3 C           1.9706    3.2334    0.0000 C.ar    1  LIG1        0.1133
      4 C           0.8165    3.9895   -0.0001 C.ar    1  LIG1        0.1592
      5 O          -0.3030    3.1567   -0.0002 O.2     1  LIG1       -0.4573
      6 H          -0.7504    0.9343    0.0000 H       1  LIG1        0.1068
      7 O           2.3515    0.8179    0.0001 O.3     1  LIG1       -0.4901
      8 C           1.5776   -0.3846    0.0001 C.3     1  LIG1        0.0790
      9 H           2.2328   -1.2305   -0.0000 H       1  LIG1        0.0660
     10 H           0.9604   -0.4116    0.8738 H       1  LIG1        0.0660
     11 H           0.9604   -0.4115   -0.8735 H       1  LIG1        0.0660
     12 N           3.1998    3.6567   -0.0000 N.pl3   1  LIG1       -0.3522
     13 H           3.7808    2.9932   -0.4714 H       1  LIG1        0.1425
     14 H           3.2491    4.5372   -0.4714 H       1  LIG1        0.1425
     15 C           1.5696    6.2012    0.2129 C.ar    1  LIG1       -0.0505
     16 C           1.2201    7.5654    0.2051 C.ar    1  LIG1       -0.0518
     17 C           0.5416    5.2600   -0.0001 C.ar    1  LIG1        0.0228
     18 C          -0.0940    7.9767   -0.0059 C.ar    1  LIG1        0.0299
     19 H           1.9978    8.3083    0.3676 H       1  LIG1        0.0622
     20 C          -0.7705    5.6701   -0.2108 C.ar    1  LIG1       -0.0039
     21 C          -1.0976    7.0301   -0.2153 C.ar    1  LIG1        0.1852
     22 H          -1.5453    4.9251   -0.3726 H       1  LIG1        0.0663
     23 H           2.8127    5.8789    0.4148 H       1  LIG1        0.0625
     24 O          -2.3259    7.4075   -0.4127 O.3     1  LIG1       -0.2875
     25 C          -2.3809    8.8346   -0.4852 C.3     2  LIG2       -0.0531
     26 H          -3.3920    9.1448   -0.6477 H       1  LIG1        0.0265
     27 H          -2.0228    9.2525    0.4325 H       1  LIG1        0.0265
     28 H          -1.7691    9.1745   -1.2945 H       2  LIG2        0.0309
     29 C          -0.3812    9.2446   -0.0068 C.3     1  LIG1        0.1272
     30 C          -1.2562    9.9501   -0.7714 C.3     3  LIG3       -0.0309
     31 C          -1.1776   11.3191   -0.3586 C.3     1  LIG1        0.1497
     32 C          -0.2592   11.3896    0.6412 C.2     1  LIG1        0.0607
     33 N           0.2311   10.1219    0.8595 N.2     1  LIG1       -0.3707
     34 H           0.9178    9.8785    1.5357 H       1  LIG1        0.1605
     35 N          -2.0209    9.4676   -1.7055 N.3     4  LIG4       -0.2731
     36 H          -2.3662   10.2152   -2.2728 H       3  LIG3        0.1366
     37 H          -1.4947    8.8342   -2.2729 H       3  LIG3        0.1366
     38 N          -2.4573   13.1907   -1.2779 N.1     1  LIG1       -0.1955
     39 C          -1.8575   12.3136   -0.8471 C.1     1  LIG1        0.0796
     40 C           0.1583   12.4082    1.3328 C.ar    1  LIG1        0.0619
     41 C           0.4172   12.5251    2.6622 C.ar    1  LIG1       -0.0146
     42 C           0.8525   13.8691    2.8965 C.ar    1  LIG1        0.0427
     43 C           0.8421   14.5138    1.6997 C.ar    1  LIG1        0.0230
     44 N           0.4173   13.6232    0.7398 N.ar    1  LIG1       -0.3581
     45 H           0.3145   13.8252   -0.2281 H       1  LIG1        0.1654
     46 H           1.1532   15.7398    1.3993 H       1  LIG1        0.0826
     47 H           0.2903   11.5876    3.5538 H       1  LIG1        0.0657
     48 N           1.1956   14.3816    4.0409 N.pl3   1  LIG1       -0.3568
     49 H           2.1929   14.4036    4.1107 H       1  LIG1        0.1424
     50 H           0.8360   15.3120    4.1107 H       1  LIG1        0.1424
@<TRIPOS>BOND
     1    37    35    1
     2    36    35    1
     3    28    30    1
     4    38    39    3
     5    11     8    1
     6    39    31    1
     7    26    25    1
     8    25    27    1
     9    14    12    1
    10    13    12    1
    11    24    21    1
    12    22    20    1
    13    31    32    1
    14    45    44    1
    15    21    20   ar
    16    21    18   ar
    17    20    17   ar
    18    29    18    1
    19    29    33    1
    20    18    16   ar
    21     5     4   ar
    22     5     1   ar
    23    17     4    1
    24    17    15   ar
    25     4     3   ar
    26     9     8    1
    27     1     2   ar
    28     1     6    1
    29     2     3   ar
    30     2     7    1
    31    12     3    1
    32     8     7    1
    33     8    10    1
    34    16    15   ar
    35    16    19    1
    36    15    23    1
    37    32    33    2
    38    32    40    1
    39    44    40   ar
    40    44    43   ar
    41    33    34    1
    42    40    41   ar
    43    46    43    1
    44    43    42   ar
    45    41    42   ar
    46    41    47    1
    47    42    48    1
    48    48    49    1
    49    48    50    1
