@<TRIPOS>MOLECULE
mol_data/noopt/geoms/mol2/12li12al(90)13fd(280)13ff(150).out
 47 50 0 0 0
SMALL
GASTEIGER

@<TRIPOS>ATOM
      1 C           0.1763    1.8460    0.0000 C.ar    1  LIG1        0.1345
      2 C           1.5558    1.8460    0.0000 C.ar    1  LIG1        0.1612
      3 C           1.9706    3.2334    0.0000 C.ar    1  LIG1        0.0400
      4 C           0.8165    3.9895   -0.0001 C.ar    1  LIG1        0.1763
      5 O          -0.3030    3.1567   -0.0002 O.2     1  LIG1       -0.4558
      6 H          -0.7504    0.9343    0.0000 H       1  LIG1        0.1068
      7 O           2.3515    0.8179    0.0001 O.3     1  LIG1       -0.4917
      8 C           1.5776   -0.3846    0.0001 C.3     1  LIG1        0.0789
      9 H           2.2328   -1.2305   -0.0000 H       1  LIG1        0.0660
     10 H           0.9604   -0.4116    0.8738 H       1  LIG1        0.0660
     11 H           0.9604   -0.4115   -0.8735 H       1  LIG1        0.0660
     12 C           3.2001    3.6568    0.0000 C.3     1  LIG1       -0.0325
     13 H           3.2528    4.5990    0.5044 H       1  LIG1        0.0280
     14 H           3.5373    3.7730   -1.0088 H       1  LIG1        0.0280
     15 H           3.8217    2.9468    0.5044 H       1  LIG1        0.0280
     16 C           0.5416    5.2601   -0.0001 C.ar    1  LIG1        0.1747
     17 C           0.3337    6.2212    0.9674 C.ar    1  LIG1        0.0298
     18 C           0.0654    7.4612    0.2693 C.ar    1  LIG1        0.1679
     19 C           0.1273    7.1754   -1.0791 C.ar    1  LIG1        0.1969
     20 O           0.4197    5.8246   -1.2706 O.2     1  LIG1       -0.4463
     21 H           0.3661    6.0709    2.2582 H       1  LIG1        0.0693
     22 O          -0.1827    8.6078    0.8296 O.3     1  LIG1       -0.4912
     23 C           1.0437    9.3138    1.0352 C.3     1  LIG1        0.0790
     24 H           0.8391   10.2575    1.4962 H       1  LIG1        0.0660
     25 H           1.6845    8.7382    1.6701 H       1  LIG1        0.0660
     26 H           1.5254    9.4740    0.0933 H       1  LIG1        0.0660
     27 C          -0.0197    7.8548   -2.1777 C.ar    1  LIG1        0.1295
     28 C           0.2520    7.5176   -3.4663 C.ar    1  LIG1        0.1633
     29 C          -0.0974    8.6396   -4.2847 C.ar    1  LIG1        0.1205
     30 C          -0.5689    9.6124   -3.4604 C.ar    1  LIG1        0.0884
     31 N          -0.5226    9.1363   -2.1695 N.ar    1  LIG1       -0.3464
     32 H          -0.8077    9.6380   -1.3601 H       1  LIG1        0.1662
     33 O           0.7406    6.3848   -3.8761 O.3     1  LIG1       -0.5034
     34 H           1.6919    6.4639   -3.9771 H       1  LIG1        0.2923
     35 N           0.1118    8.7855   -6.7179 N.1     1  LIG1       -0.1907
     36 C           0.0138    8.7171   -5.5776 C.1     1  LIG1        0.1050
     37 C          -1.0071   10.8065   -3.7291 C.ar    1  LIG1        0.1100
     38 C          -2.1964   11.3961   -3.4361 C.ar    1  LIG1        0.1856
     39 C          -2.1570   12.7254   -3.9672 C.ar    1  LIG1        0.1767
     40 C          -0.9446   12.8902   -4.5598 C.ar    1  LIG1        0.0480
     41 N          -0.2377   11.7176   -4.4167 N.ar    1  LIG1       -0.3535
     42 H           0.6825   11.5550   -4.7556 H       1  LIG1        0.1656
     43 H          -0.4399   13.9171   -5.1768 H       1  LIG1        0.0845
     44 O          -3.1857   10.8500   -2.7934 O.3     1  LIG1       -0.5019
     45 H          -2.9922    9.9231   -2.6350 H       1  LIG1        0.2924
     46 O          -3.1036   13.6138   -3.8971 O.3     1  LIG1       -0.5023
     47 H          -3.9561   13.1728   -3.8799 H       1  LIG1        0.2923
@<TRIPOS>BOND
     1    35    36    3
     2    36    29    1
     3    43    40    1
     4    42    41    1
     5    40    41   ar
     6    40    39   ar
     7    41    37   ar
     8    29    28   ar
     9    29    30   ar
    10    34    33    1
    11    39    46    1
    12    39    38   ar
    13    46    47    1
    14    33    28    1
    15    37    30    1
    16    37    38   ar
    17    28    27   ar
    18    30    31   ar
    19    38    44    1
    20    44    45    1
    21    27    31   ar
    22    27    19    1
    23    31    32    1
    24    20    19   ar
    25    20    16   ar
    26    19    18   ar
    27    14    12    1
    28    11     8    1
    29     5     4   ar
    30     5     1   ar
    31    16     4    1
    32    16    17   ar
    33     4     3   ar
    34     9     8    1
    35     1     2   ar
    36     1     6    1
    37     2     3   ar
    38     2     7    1
    39     3    12    1
    40    12    15    1
    41    12    13    1
    42     8     7    1
    43     8    10    1
    44    26    23    1
    45    18    22    1
    46    18    17   ar
    47    22    23    1
    48    17    21    1
    49    23    24    1
    50    23    25    1
