@<TRIPOS>MOLECULE
mol_data/noopt/geoms/mol2/12li12li12li-12li-.out
 58 59 0 0 0
SMALL
GASTEIGER

@<TRIPOS>ATOM
      1 C           0.1763    1.8460    0.0000 C.ar    1  LIG1        0.1345
      2 C           1.5558    1.8460    0.0000 C.ar    1  LIG1        0.1615
      3 C           1.9706    3.2334    0.0000 C.ar    1  LIG1        0.0436
      4 C           0.8165    3.9895   -0.0001 C.ar    1  LIG1        0.1803
      5 O          -0.3030    3.1567   -0.0002 O.2     1  LIG1       -0.4557
      6 H          -0.7504    0.9343    0.0000 H       1  LIG1        0.1068
      7 O           2.3515    0.8179    0.0001 O.3     1  LIG1       -0.4917
      8 C           1.5776   -0.3846    0.0001 C.3     1  LIG1        0.0789
      9 H           2.2328   -1.2305   -0.0000 H       1  LIG1        0.0660
     10 H           0.9604   -0.4116    0.8738 H       1  LIG1        0.0660
     11 H           0.9604   -0.4115   -0.8735 H       1  LIG1        0.0660
     12 C           3.2001    3.6568    0.0000 C.3     1  LIG1       -0.0163
     13 H           3.2528    4.5990    0.5044 H       1  LIG1        0.0227
     14 H           3.5373    3.7730   -1.0088 H       1  LIG1        0.0319
     15 H           3.8217    2.9468    0.5044 H       1  LIG1        0.0319
     16 C           0.5416    5.2601   -0.0001 C.ar    1  LIG1        0.2177
     17 C           1.2792    6.4258   -0.0001 C.ar    1  LIG1        0.2310
     18 C           0.3286    7.5182   -0.0001 C.ar    1  LIG1        0.0460
     19 C          -0.9274    6.9472   -0.0002 C.ar    1  LIG1        0.1811
     20 O          -0.8223    5.5559   -0.0003 O.2     1  LIG1       -0.4442
     21 O           2.5735    6.5485   -0.0000 O.3     1  LIG1       -0.2835
     22 C           3.1758    5.2515   -0.0000 C.3     2  LIG2       -0.0681
     23 H           4.2410    5.3529   -0.0001 H       1  LIG1        0.0227
     24 H           2.8686    4.7155    0.8737 H       3  UNK3        0.0000
     25 H           2.8685    4.7155   -0.8736 H       1  LIG1        0.0227
     26 C           0.6283    8.7835   -0.0001 C.3     1  LIG1       -0.0323
     27 H          -0.1397    9.3319    0.5043 H       1  LIG1        0.0280
     28 H           0.7104    9.1306   -1.0089 H       1  LIG1        0.0280
     29 H           1.5606    8.9292    0.5043 H       1  LIG1        0.0280
     30 C          -2.1481    7.3943   -0.0002 C.ar    1  LIG1        0.2127
     31 C          -3.4042    6.8241   -0.0002 C.ar    1  LIG1        0.1723
     32 C          -4.3554    7.9160   -0.0002 C.ar    1  LIG1        0.0410
     33 C          -3.6171    9.0815   -0.0003 C.ar    1  LIG1        0.1809
     34 O          -2.2534    8.7859   -0.0004 O.2     1  LIG1       -0.4444
     35 O          -3.7038    5.5591   -0.0001 O.3     1  LIG1       -0.4909
     36 C          -5.1255    5.4052   -0.0002 C.3     1  LIG1        0.0790
     37 H          -5.3716    4.3639   -0.0003 H       1  LIG1        0.0660
     38 H          -5.5344    5.8683    0.8735 H       1  LIG1        0.0660
     39 H          -5.5343    5.8684   -0.8738 H       1  LIG1        0.0660
     40 C          -5.6499    7.7933   -0.0002 C.3     1  LIG1       -0.0325
     41 H          -5.9226    6.8899    0.5042 H       1  LIG1        0.0280
     42 H          -6.0050    7.7596   -1.0091 H       1  LIG1        0.0280
     43 H          -6.0874    8.6294    0.5041 H       1  LIG1        0.0280
     44 C          -3.8920   10.3521   -0.0003 C.ar    1  LIG1        0.2116
     45 C          -5.0455   11.1087   -0.0003 C.ar    1  LIG1        0.1716
     46 C          -4.6315   12.4963   -0.0002 C.ar    1  LIG1        0.0297
     47 C          -3.2517   12.4956   -0.0003 C.ar    1  LIG1        0.0993
     48 O          -2.7723   11.1852   -0.0004 O.2     1  LIG1       -0.4557
     49 H          -2.3250   13.4073   -0.0003 H       1  LIG1        0.1033
     50 O          -6.2747   10.6854   -0.0002 O.3     1  LIG1       -0.4909
     51 C          -7.1649   11.8045   -0.0002 C.3     1  LIG1        0.0790
     52 H          -8.1764   11.4557   -0.0003 H       1  LIG1        0.0660
     53 H          -6.9923   12.3976    0.8735 H       1  LIG1        0.0660
     54 H          -6.9921   12.3977   -0.8738 H       1  LIG1        0.0660
     55 C          -5.4273   13.5246   -0.0002 C.3     1  LIG1       -0.0332
     56 H          -6.3365   13.2719    0.5042 H       1  LIG1        0.0280
     57 H          -5.6457   13.8066   -1.0091 H       1  LIG1        0.0280
     58 H          -4.9547   14.3414    0.5042 H       1  LIG1        0.0280
@<TRIPOS>BOND
     1    42    40    1
     2    57    55    1
     3    28    26    1
     4    14    12    1
     5    54    51    1
     6    39    36    1
     7    25    22    1
     8    11     8    1
     9    48    47   ar
    10    48    44   ar
    11    34    33   ar
    12    34    30   ar
    13    52    51    1
    14    20    19   ar
    15    20    16   ar
    16    37    36    1
    17    47    49    1
    18    47    46   ar
    19    33    44    1
    20    33    32   ar
    21    45    44   ar
    22    45    46   ar
    23    45    50    1
    24    51    50    1
    25    51    53    1
    26    31    32   ar
    27    31    30   ar
    28    31    35    1
    29    46    55    1
    30    40    32    1
    31    40    43    1
    32    40    41    1
    33    55    58    1
    34    55    56    1
    35    30    19    1
    36     5     4   ar
    37     5     1   ar
    38    19    18   ar
    39    36    35    1
    40    36    38    1
    41    23    22    1
    42    18    26    1
    43    18    17   ar
    44    26    29    1
    45    26    27    1
    46    17    16   ar
    47    17    21    1
    48    16     4    1
    49     4     3   ar
    50    22    13    1
    51     9     8    1
    52     1     2   ar
    53     1     6    1
    54     2     3   ar
    55     2     7    1
    56     3    12    1
    57    12    15    1
    58     8     7    1
    59     8    10    1
