@<TRIPOS>MOLECULE
mol_data/noopt/geoms/mol2/12li12li-12li.out
 44 46 0 0 0
SMALL
GASTEIGER

@<TRIPOS>ATOM
      1 C           0.1763    1.8460    0.0000 C.ar    1  LIG1        0.1345
      2 C           1.5558    1.8460    0.0000 C.ar    1  LIG1        0.1612
      3 C           1.9706    3.2334    0.0000 C.ar    1  LIG1        0.0402
      4 C           0.8165    3.9895   -0.0001 C.ar    1  LIG1        0.1799
      5 O          -0.3030    3.1567   -0.0002 O.2     1  LIG1       -0.4557
      6 H          -0.7504    0.9343    0.0000 H       1  LIG1        0.1068
      7 O           2.3515    0.8179    0.0001 O.3     1  LIG1       -0.4917
      8 C           1.5776   -0.3846    0.0001 C.3     1  LIG1        0.0789
      9 H           2.2328   -1.2305   -0.0000 H       1  LIG1        0.0660
     10 H           0.9604   -0.4116    0.8738 H       1  LIG1        0.0660
     11 H           0.9604   -0.4115   -0.8735 H       1  LIG1        0.0660
     12 C           3.2001    3.6568    0.0000 C.3     1  LIG1       -0.0325
     13 H           3.2528    4.5990    0.5044 H       1  LIG1        0.0280
     14 H           3.5373    3.7730   -1.0088 H       1  LIG1        0.0280
     15 H           3.8217    2.9468    0.5044 H       1  LIG1        0.0280
     16 C           0.5416    5.2601   -0.0001 C.ar    1  LIG1        0.2126
     17 C          -0.6119    6.0167   -0.0001 C.ar    1  LIG1        0.1723
     18 C          -0.1979    7.4043   -0.0001 C.ar    1  LIG1        0.0410
     19 C           1.1818    7.4036   -0.0002 C.ar    1  LIG1        0.1809
     20 O           1.6612    6.0932   -0.0003 O.2     1  LIG1       -0.4444
     21 O          -1.8411    5.5933   -0.0000 O.3     1  LIG1       -0.4909
     22 C          -2.7313    6.7125   -0.0001 C.3     1  LIG1        0.0790
     23 H          -3.7429    6.3637   -0.0002 H       1  LIG1        0.0660
     24 H          -2.5587    7.3056    0.8736 H       1  LIG1        0.0660
     25 H          -2.5585    7.3057   -0.8737 H       1  LIG1        0.0660
     26 C          -0.9938    8.4326   -0.0001 C.3     1  LIG1       -0.0325
     27 H          -1.9030    8.1799    0.5043 H       1  LIG1        0.0280
     28 H          -1.2121    8.7146   -1.0090 H       1  LIG1        0.0280
     29 H          -0.5211    9.2494    0.5042 H       1  LIG1        0.0280
     30 C           2.1085    8.3153   -0.0002 C.ar    1  LIG1        0.2116
     31 C           3.4880    8.3153   -0.0001 C.ar    1  LIG1        0.1716
     32 C           3.9028    9.7027   -0.0001 C.ar    1  LIG1        0.0297
     33 C           2.7487   10.4588   -0.0002 C.ar    1  LIG1        0.0993
     34 O           1.6292    9.6260   -0.0003 O.2     1  LIG1       -0.4557
     35 H           2.4738   11.7294   -0.0002 H       1  LIG1        0.1033
     36 O           4.2837    7.2872   -0.0000 O.3     1  LIG1       -0.4909
     37 C           3.5098    6.0847   -0.0001 C.3     1  LIG1        0.0790
     38 H           4.1651    5.2388   -0.0002 H       1  LIG1        0.0660
     39 H           2.8927    6.0577    0.8737 H       1  LIG1        0.0660
     40 H           2.8926    6.0578   -0.8736 H       1  LIG1        0.0660
     41 C           5.1323   10.1261   -0.0001 C.3     1  LIG1       -0.0332
     42 H           5.1851   11.0682    0.5043 H       1  LIG1        0.0280
     43 H           5.4695   10.2423   -1.0089 H       1  LIG1        0.0280
     44 H           5.7540    9.4161    0.5043 H       1  LIG1        0.0280
@<TRIPOS>BOND
     1    28    26    1
     2    43    41    1
     3    14    12    1
     4    25    22    1
     5    40    37    1
     6    11     8    1
     7    34    33   ar
     8    34    30   ar
     9    20    19   ar
    10    20    16   ar
    11    33    35    1
    12    33    32   ar
    13     5     4   ar
    14     5     1   ar
    15    23    22    1
    16    19    30    1
    17    19    18   ar
    18    38    37    1
    19    30    31   ar
    20    31    32   ar
    21    31    36    1
    22    17    18   ar
    23    17    16   ar
    24    17    21    1
    25    26    18    1
    26    26    29    1
    27    26    27    1
    28    32    41    1
    29    16     4    1
    30     4     3   ar
    31    22    21    1
    32    22    24    1
    33    41    44    1
    34    41    42    1
    35    37    36    1
    36    37    39    1
    37     9     8    1
    38     1     6    1
    39     1     2   ar
    40    12     3    1
    41    12    15    1
    42    12    13    1
    43     3     2   ar
    44     2     7    1
    45     8     7    1
    46     8    10    1
