@<TRIPOS>MOLECULE
mol_data/noopt/geoms/mol2/12li12li.out
 30 29 0 0 0
SMALL
GASTEIGER

@<TRIPOS>ATOM
      1 C           0.1763    1.8460    0.0000 C.ar    1  LIG1        0.1345
      2 C           1.5558    1.8460    0.0000 C.ar    1  LIG1        0.1615
      3 C           1.9706    3.2334    0.0000 C.ar    1  LIG1        0.0436
      4 C           0.8165    3.9895   -0.0001 C.ar    1  LIG1        0.1803
      5 O          -0.3030    3.1567   -0.0002 O.2     1  LIG1       -0.4557
      6 H          -0.7504    0.9343    0.0000 H       1  LIG1        0.1068
      7 O           2.3515    0.8179    0.0001 O.3     1  LIG1       -0.4917
      8 C           1.5776   -0.3846    0.0001 C.3     1  LIG1        0.0789
      9 H           2.2328   -1.2305   -0.0000 H       1  LIG1        0.0660
     10 H           0.9604   -0.4116    0.8738 H       1  LIG1        0.0660
     11 H           0.9604   -0.4115   -0.8735 H       1  LIG1        0.0660
     12 C           3.2001    3.6568    0.0000 C.3     1  LIG1       -0.0163
     13 H           3.2528    4.5990    0.5044 H       1  LIG1        0.0227
     14 H           3.5373    3.7730   -1.0088 H       1  LIG1        0.0319
     15 H           3.8217    2.9468    0.5044 H       1  LIG1        0.0319
     16 C           0.5416    5.2601   -0.0001 C.ar    1  LIG1        0.2166
     17 C           1.2792    6.4258   -0.0001 C.ar    1  LIG1        0.2303
     18 C           0.3286    7.5182   -0.0001 C.ar    1  LIG1        0.0348
     19 C          -0.9274    6.9472   -0.0002 C.ar    1  LIG1        0.0994
     20 O          -0.8223    5.5559   -0.0003 O.2     1  LIG1       -0.4556
     21 H          -2.1481    7.3943   -0.0002 H       1  LIG1        0.1033
     22 O           2.5735    6.5485   -0.0000 O.3     1  LIG1       -0.2835
     23 C           3.1758    5.2515   -0.0000 C.3     2  LIG2       -0.0681
     24 H           4.2410    5.3529   -0.0001 H       1  LIG1        0.0227
     25 H           2.8686    4.7155    0.8737 H       3  UNK3        0.0000
     26 H           2.8685    4.7155   -0.8736 H       1  LIG1        0.0227
     27 C           0.6283    8.7835   -0.0001 C.3     1  LIG1       -0.0330
     28 H          -0.1397    9.3319    0.5043 H       1  LIG1        0.0280
     29 H           0.7104    9.1306   -1.0089 H       1  LIG1        0.0280
     30 H           1.5606    8.9292    0.5043 H       1  LIG1        0.0280
@<TRIPOS>BOND
     1    29    27    1
     2    14    12    1
     3    26    23    1
     4    11     8    1
     5    20    19   ar
     6    20    16   ar
     7     5     4   ar
     8     5     1   ar
     9    21    19    1
    10    19    18   ar
    11    24    23    1
    12    27    18    1
    13    27    30    1
    14    27    28    1
    15     4    16    1
    16     4     3   ar
    17    17    18   ar
    18    17    16   ar
    19    17    22    1
    20    23    13    1
    21     9     8    1
    22     1     6    1
    23     1     2   ar
    24    12     3    1
    25    12    15    1
    26     3     2   ar
    27     2     7    1
    28     8     7    1
    29     8    10    1
