@<TRIPOS>MOLECULE
mol_data/noopt/geoms/mol2/12li12li-12li-12li.out
 58 61 0 0 0
SMALL
GASTEIGER

@<TRIPOS>ATOM
      1 C           0.1763    1.8460    0.0000 C.ar    1  LIG1        0.1345
      2 C           1.5558    1.8460    0.0000 C.ar    1  LIG1        0.1612
      3 C           1.9706    3.2334    0.0000 C.ar    1  LIG1        0.0402
      4 C           0.8165    3.9895   -0.0001 C.ar    1  LIG1        0.1799
      5 O          -0.3030    3.1567   -0.0002 O.2     1  LIG1       -0.4557
      6 H          -0.7504    0.9343    0.0000 H       1  LIG1        0.1068
      7 O           2.3515    0.8179    0.0001 O.3     1  LIG1       -0.4917
      8 C           1.5776   -0.3846    0.0001 C.3     1  LIG1        0.0789
      9 H           2.2328   -1.2305   -0.0000 H       1  LIG1        0.0660
     10 H           0.9604   -0.4116    0.8738 H       1  LIG1        0.0660
     11 H           0.9604   -0.4115   -0.8735 H       1  LIG1        0.0660
     12 C           3.2001    3.6568    0.0000 C.3     1  LIG1       -0.0325
     13 H           3.2528    4.5990    0.5044 H       1  LIG1        0.0280
     14 H           3.5373    3.7730   -1.0088 H       1  LIG1        0.0280
     15 H           3.8217    2.9468    0.5044 H       1  LIG1        0.0280
     16 C           0.5416    5.2601   -0.0001 C.ar    1  LIG1        0.2126
     17 C          -0.6119    6.0167   -0.0001 C.ar    1  LIG1        0.1723
     18 C          -0.1979    7.4043   -0.0001 C.ar    1  LIG1        0.0410
     19 C           1.1818    7.4036   -0.0002 C.ar    1  LIG1        0.1809
     20 O           1.6612    6.0932   -0.0003 O.2     1  LIG1       -0.4444
     21 O          -1.8411    5.5933   -0.0000 O.3     1  LIG1       -0.4909
     22 C          -2.7313    6.7125   -0.0001 C.3     1  LIG1        0.0790
     23 H          -3.7429    6.3637   -0.0002 H       1  LIG1        0.0660
     24 H          -2.5587    7.3056    0.8736 H       1  LIG1        0.0660
     25 H          -2.5585    7.3057   -0.8737 H       1  LIG1        0.0660
     26 C          -0.9938    8.4326   -0.0001 C.3     1  LIG1       -0.0325
     27 H          -1.9030    8.1799    0.5043 H       1  LIG1        0.0280
     28 H          -1.2121    8.7146   -1.0090 H       1  LIG1        0.0280
     29 H          -0.5211    9.2494    0.5042 H       1  LIG1        0.0280
     30 C           2.1085    8.3153   -0.0002 C.ar    1  LIG1        0.2127
     31 C           2.1310    9.6946   -0.0002 C.ar    1  LIG1        0.1723
     32 C           3.5250   10.0867   -0.0001 C.ar    1  LIG1        0.0410
     33 C           4.2622    8.9204   -0.0002 C.ar    1  LIG1        0.1809
     34 O           3.4112    7.8147   -0.0003 O.2     1  LIG1       -0.4444
     35 O           1.1161   10.5070   -0.0001 O.3     1  LIG1       -0.4909
     36 C           1.5858   11.8576   -0.0001 C.3     1  LIG1        0.0790
     37 H           0.7501   12.5259   -0.0002 H       1  LIG1        0.0660
     38 H           2.1793   12.0289    0.8736 H       1  LIG1        0.0660
     39 H           2.1794   12.0288   -0.8737 H       1  LIG1        0.0660
     40 C           3.9684   11.3091   -0.0001 C.3     1  LIG1       -0.0325
     41 H           3.2688   11.9423    0.5043 H       1  LIG1        0.0280
     42 H           4.0900   11.6444   -1.0090 H       1  LIG1        0.0280
     43 H           4.9114   11.3464    0.5043 H       1  LIG1        0.0280
     44 C           5.5281    8.6248   -0.0002 C.ar    1  LIG1        0.2116
     45 C           6.2658    7.4591   -0.0001 C.ar    1  LIG1        0.1716
     46 C           7.6600    7.8504   -0.0001 C.ar    1  LIG1        0.0297
     47 C           7.6818    9.2300   -0.0002 C.ar    1  LIG1        0.0993
     48 O           6.3794    9.7307   -0.0003 O.2     1  LIG1       -0.4557
     49 H           8.6085   10.1417   -0.0002 H       1  LIG1        0.1033
     50 O           5.8225    6.2370   -0.0000 O.3     1  LIG1       -0.4909
     51 C           4.3925    6.2480   -0.0001 C.3     1  LIG1        0.0790
     52 H           4.0281    5.2419   -0.0002 H       1  LIG1        0.0660
     53 H           4.0397    6.7550    0.8737 H       1  LIG1        0.0660
     54 H           4.0397    6.7552   -0.8736 H       1  LIG1        0.0660
     55 C           8.6751    7.0379   -0.0001 C.3     1  LIG1       -0.0332
     56 H           9.4995    7.4971    0.5044 H       1  LIG1        0.0280
     57 H           8.9537    6.8151   -1.0089 H       1  LIG1        0.0280
     58 H           8.4076    6.1330    0.5043 H       1  LIG1        0.0280
@<TRIPOS>BOND
     1    28    26    1
     2    42    40    1
     3    57    55    1
     4    14    12    1
     5    39    36    1
     6    25    22    1
     7    54    51    1
     8    11     8    1
     9    48    47   ar
    10    48    44   ar
    11    34    33   ar
    12    34    30   ar
    13    20    19   ar
    14    20    16   ar
    15    37    36    1
    16    47    49    1
    17    47    46   ar
    18     5     4   ar
    19     5     1   ar
    20    23    22    1
    21    33    44    1
    22    33    32   ar
    23    19    30    1
    24    19    18   ar
    25    52    51    1
    26    44    45   ar
    27    31    30   ar
    28    31    32   ar
    29    31    35    1
    30    36    35    1
    31    36    38    1
    32    45    46   ar
    33    45    50    1
    34    17    18   ar
    35    17    16   ar
    36    17    21    1
    37    32    40    1
    38    26    18    1
    39    26    29    1
    40    26    27    1
    41    40    43    1
    42    40    41    1
    43    16     4    1
    44     4     3   ar
    45    46    55    1
    46    22    21    1
    47    22    24    1
    48    51    50    1
    49    51    53    1
    50    55    58    1
    51    55    56    1
    52     9     8    1
    53     1     2   ar
    54     1     6    1
    55     2     3   ar
    56     2     7    1
    57     3    12    1
    58    12    15    1
    59    12    13    1
    60     8     7    1
    61     8    10    1
