@<TRIPOS>MOLECULE
mol_data/noopt/geoms/mol2/12li12li-.out
 30 31 0 0 0
SMALL
GASTEIGER

@<TRIPOS>ATOM
      1 C           0.1763    1.8460    0.0000 C.ar    1  LIG1        0.1345
      2 C           1.5558    1.8460    0.0000 C.ar    1  LIG1        0.1612
      3 C           1.9706    3.2334    0.0000 C.ar    1  LIG1        0.0402
      4 C           0.8165    3.9895   -0.0001 C.ar    1  LIG1        0.1799
      5 O          -0.3030    3.1567   -0.0002 O.2     1  LIG1       -0.4557
      6 H          -0.7504    0.9343    0.0000 H       1  LIG1        0.1068
      7 O           2.3515    0.8179    0.0001 O.3     1  LIG1       -0.4917
      8 C           1.5776   -0.3846    0.0001 C.3     1  LIG1        0.0789
      9 H           2.2328   -1.2305   -0.0000 H       1  LIG1        0.0660
     10 H           0.9604   -0.4116    0.8738 H       1  LIG1        0.0660
     11 H           0.9604   -0.4115   -0.8735 H       1  LIG1        0.0660
     12 C           3.2001    3.6568    0.0000 C.3     1  LIG1       -0.0325
     13 H           3.2528    4.5990    0.5044 H       1  LIG1        0.0280
     14 H           3.5373    3.7730   -1.0088 H       1  LIG1        0.0280
     15 H           3.8217    2.9468    0.5044 H       1  LIG1        0.0280
     16 C           0.5416    5.2601   -0.0001 C.ar    1  LIG1        0.2116
     17 C          -0.6119    6.0167   -0.0001 C.ar    1  LIG1        0.1716
     18 C          -0.1979    7.4043   -0.0001 C.ar    1  LIG1        0.0297
     19 C           1.1818    7.4036   -0.0002 C.ar    1  LIG1        0.0993
     20 O           1.6612    6.0932   -0.0003 O.2     1  LIG1       -0.4557
     21 H           2.1085    8.3153   -0.0002 H       1  LIG1        0.1033
     22 O          -1.8411    5.5933   -0.0000 O.3     1  LIG1       -0.4909
     23 C          -2.7313    6.7125   -0.0001 C.3     1  LIG1        0.0790
     24 H          -3.7429    6.3637   -0.0002 H       1  LIG1        0.0660
     25 H          -2.5587    7.3056    0.8736 H       1  LIG1        0.0660
     26 H          -2.5585    7.3057   -0.8737 H       1  LIG1        0.0660
     27 C          -0.9938    8.4326   -0.0001 C.3     1  LIG1       -0.0332
     28 H          -1.9030    8.1799    0.5043 H       1  LIG1        0.0280
     29 H          -1.2121    8.7146   -1.0090 H       1  LIG1        0.0280
     30 H          -0.5211    9.2494    0.5042 H       1  LIG1        0.0280
@<TRIPOS>BOND
     1    29    27    1
     2    14    12    1
     3    26    23    1
     4    11     8    1
     5    20    19   ar
     6    20    16   ar
     7     5     4   ar
     8     5     1   ar
     9    24    23    1
    10    19    21    1
    11    19    18   ar
    12    17    18   ar
    13    17    16   ar
    14    17    22    1
    15    27    18    1
    16    27    30    1
    17    27    28    1
    18     4    16    1
    19     4     3   ar
    20    23    22    1
    21    23    25    1
    22     9     8    1
    23     1     6    1
    24     1     2   ar
    25    12     3    1
    26    12    15    1
    27    12    13    1
    28     3     2   ar
    29     2     7    1
    30     8     7    1
    31     8    10    1
