@<TRIPOS>MOLECULE
mol_data/noopt/geoms/mol2/12li13ld(210)12ed(10)13lf(150).out
 52 55 0 0 0
SMALL
GASTEIGER

@<TRIPOS>ATOM
      1 C           0.1763    1.8460    0.0000 C.ar    1  LIG1        0.1344
      2 C           1.5558    1.8460    0.0000 C.ar    1  LIG1        0.1612
      3 C           1.9706    3.2334    0.0000 C.ar    1  LIG1        0.0385
      4 C           0.8165    3.9895   -0.0001 C.ar    1  LIG1        0.1610
      5 O          -0.3030    3.1567   -0.0002 O.2     1  LIG1       -0.4573
      6 H          -0.7504    0.9343    0.0000 H       1  LIG1        0.1068
      7 O           2.3515    0.8179    0.0001 O.3     1  LIG1       -0.4917
      8 C           1.5776   -0.3846    0.0001 C.3     1  LIG1        0.0789
      9 H           2.2328   -1.2305   -0.0000 H       1  LIG1        0.0660
     10 H           0.9604   -0.4116    0.8738 H       1  LIG1        0.0660
     11 H           0.9604   -0.4115   -0.8735 H       1  LIG1        0.0660
     12 C           3.2001    3.6568    0.0000 C.3     1  LIG1       -0.0326
     13 H           3.2528    4.5990    0.5044 H       1  LIG1        0.0280
     14 H           3.5373    3.7730   -1.0088 H       1  LIG1        0.0280
     15 H           3.8217    2.9468    0.5044 H       1  LIG1        0.0280
     16 C           0.5416    5.2601   -0.0001 C.ar    1  LIG1        0.1265
     17 C          -0.5381    5.9289   -0.4849 C.ar    1  LIG1        0.1663
     18 C          -0.3316    7.3215   -0.2229 C.ar    1  LIG1        0.1223
     19 C           0.8644    7.4423    0.4121 C.ar    1  LIG1        0.1051
     20 N           1.4025    6.1827    0.5501 N.ar    1  LIG1       -0.3453
     21 H           2.2741    5.9727    0.9794 H       1  LIG1        0.1662
     22 O          -1.5661    5.3985   -1.0781 O.3     1  LIG1       -0.4916
     23 C          -2.5616    6.4018   -1.2959 C.3     1  LIG1        0.0789
     24 H          -3.4075    5.9649   -1.7843 H       1  LIG1        0.0660
     25 H          -2.8655    6.8128   -0.3559 H       1  LIG1        0.0660
     26 H          -2.1567    7.1784   -1.9105 H       1  LIG1        0.0660
     27 N          -1.8474    9.1511   -0.8065 N.1     1  LIG1       -0.1907
     28 C          -1.1370    8.2937   -0.5330 C.1     1  LIG1        0.1051
     29 C           1.4834    8.4977    0.8512 C.ar    1  LIG1        0.1698
     30 C           2.7512    8.7693    1.3224 C.ar    1  LIG1        0.0899
     31 C           2.7785   10.1794    1.6507 C.ar    1  LIG1        0.1150
     32 C           1.5250   10.6762    1.3581 C.ar    1  LIG1        0.1741
     33 O           0.7086    9.6584    0.8636 O.2     1  LIG1       -0.4491
     34 C           3.7446    7.9415    1.4560 C.1     1  LIG1       -0.0645
     35 C           4.6626    7.1766    1.5795 C.1     1  LIG1       -0.1138
     36 H           5.4803    6.4953    1.6895 H       1  LIG1        0.1232
     37 N           4.7012   11.3976    2.5480 N.1     1  LIG1       -0.1907
     38 C           3.8001   10.8267    2.1275 C.1     1  LIG1        0.1043
     39 C           0.9482   11.8387    1.4351 C.ar    1  LIG1        0.1294
     40 C          -0.2485   12.1957    1.9722 C.ar    1  LIG1        0.1897
     41 C          -0.3965   13.6078    1.7862 C.ar    1  LIG1        0.1769
     42 C           0.7170   14.0519    1.1452 C.ar    1  LIG1        0.0480
     43 N           1.5427   12.9720    0.9279 N.ar    1  LIG1       -0.3522
     44 H           2.4279   13.0055    0.4769 H       1  LIG1        0.1656
     45 H           1.0472   15.2485    0.7589 H       1  LIG1        0.0845
     46 O          -1.0998   11.3986    2.5467 O.3     1  LIG1       -0.4894
     47 C          -2.3337   12.0901    2.7575 C.3     1  LIG1        0.0791
     48 H          -3.0341   11.4337    3.2302 H       1  LIG1        0.0660
     49 H          -2.1633   12.9407    3.3839 H       1  LIG1        0.0660
     50 H          -2.7268   12.4132    1.8164 H       1  LIG1        0.0660
     51 O          -1.4075   14.3345    2.1603 O.3     1  LIG1       -0.5023
     52 H          -2.1849   13.7788    2.2525 H       1  LIG1        0.2923
@<TRIPOS>BOND
     1    26    23    1
     2    24    23    1
     3    23    22    1
     4    23    25    1
     5    22    17    1
     6    14    12    1
     7    11     8    1
     8    27    28    3
     9    28    18    1
    10    17    18   ar
    11    17    16   ar
    12    18    19   ar
    13     5     4   ar
    14     5     1   ar
    15     4    16    1
    16     4     3   ar
    17    16    20   ar
    18     9     8    1
    19     1     6    1
    20     1     2   ar
    21    12     3    1
    22    12    15    1
    23    12    13    1
    24     3     2   ar
    25     2     7    1
    26     8     7    1
    27     8    10    1
    28    19    20   ar
    29    19    29    1
    30    44    43    1
    31    20    21    1
    32    45    42    1
    33    29    33   ar
    34    29    30   ar
    35    33    32   ar
    36    43    42   ar
    37    43    39   ar
    38    42    41   ar
    39    30    34    1
    40    30    31   ar
    41    32    39    1
    42    32    31   ar
    43    39    40   ar
    44    34    35    3
    45    35    36    1
    46    31    38    1
    47    41    40   ar
    48    41    51    1
    49    50    47    1
    50    40    46    1
    51    38    37    3
    52    51    52    1
    53    46    47    1
    54    47    48    1
    55    47    49    1
