@<TRIPOS>MOLECULE
mol_data/noopt/geoms/mol2/12li4ll(120)13hf(350)6if(290).out
 58 61 0 0 0
SMALL
GASTEIGER

@<TRIPOS>ATOM
      1 C           0.1763    1.8460    0.0000 C.ar    1  LIG1        0.1343
      2 C           1.5558    1.8460    0.0000 C.ar    1  LIG1        0.1611
      3 C           1.9706    3.2334    0.0000 C.ar    1  LIG1        0.0371
      4 C           0.8165    3.9895   -0.0001 C.ar    1  LIG1        0.1449
      5 O          -0.3030    3.1567   -0.0002 O.2     1  LIG1       -0.4588
      6 H          -0.7504    0.9343    0.0000 H       1  LIG1        0.1068
      7 O           2.3515    0.8179    0.0001 O.3     1  LIG1       -0.4917
      8 C           1.5776   -0.3846    0.0001 C.3     1  LIG1        0.0789
      9 H           2.2328   -1.2305   -0.0000 H       1  LIG1        0.0660
     10 H           0.9604   -0.4116    0.8738 H       1  LIG1        0.0660
     11 H           0.9604   -0.4115   -0.8735 H       1  LIG1        0.0660
     12 C           3.2001    3.6568    0.0000 C.3     1  LIG1       -0.0326
     13 H           3.2528    4.5990    0.5044 H       1  LIG1        0.0280
     14 H           3.5373    3.7730   -1.0088 H       1  LIG1        0.0280
     15 H           3.8217    2.9468    0.5044 H       1  LIG1        0.0280
     16 C          -0.2050    5.8172    1.0582 C.ar    1  LIG1        0.1316
     17 C          -0.4776    7.1981    1.0110 C.ar    1  LIG1       -0.0066
     18 C           0.5416    5.2600   -0.0001 C.ar    1  LIG1        0.0627
     19 C          -0.0273    7.9911   -0.0421 C.ar    1  LIG1        0.0453
     20 H          -1.0523    7.6484    1.8173 H       1  LIG1        0.0662
     21 C           0.9914    6.0513   -1.0516 C.ar    1  LIG1       -0.0051
     22 C           0.7106    7.4213   -1.0803 C.ar    1  LIG1        0.1301
     23 H           1.5652    5.5981   -1.8560 H       1  LIG1        0.0662
     24 O          -0.6517    5.1294    2.0669 O.3     1  LIG1       -0.4944
     25 C          -1.9462    5.6110    2.4371 C.3     1  LIG1        0.0788
     26 H          -2.3135    5.0445    3.2673 H       1  LIG1        0.0660
     27 H          -1.8778    6.6429    2.7119 H       1  LIG1        0.0660
     28 H          -2.6160    5.5060    1.6094 H       1  LIG1        0.0660
     29 O           1.1336    8.1560   -2.0659 O.3     1  LIG1       -0.4944
     30 C           2.4571    7.7531   -2.4278 C.3     1  LIG1        0.0788
     31 H           2.8048    8.3579   -3.2391 H       1  LIG1        0.0660
     32 H           3.1090    7.8741   -1.5879 H       1  LIG1        0.0660
     33 H           2.4480    6.7259   -2.7271 H       1  LIG1        0.0660
     34 C          -0.2972    9.2628   -0.0536 C.ar    1  LIG1        0.0752
     35 C           0.5189   10.3360   -0.2275 C.ar    1  LIG1        0.0930
     36 C          -0.2964   11.5105   -0.1480 C.ar    1  LIG1        0.1635
     37 C          -1.5751   11.1034    0.0691 C.ar    1  LIG1        0.0927
     38 N          -1.5800    9.7280    0.1281 N.ar    1  LIG1       -0.3496
     39 H          -2.3825    9.1608    0.2774 H       1  LIG1        0.1661
     40 N           1.8030   10.2989   -0.4272 N.pl3   1  LIG1       -0.3535
     41 H           2.0362    9.4753   -0.9442 H       1  LIG1        0.1425
     42 H           2.0833   11.1076   -0.9443 H       1  LIG1        0.1425
     43 O           0.1079   12.7408   -0.2625 O.3     1  LIG1       -0.5031
     44 H          -0.6522   13.3265   -0.2906 H       1  LIG1        0.2923
     45 C          -3.3811   11.7532    1.4236 C.ar    1  LIG1        0.0476
     46 C          -2.6675   11.7936    0.2118 C.ar    1  LIG1        0.0264
     47 C          -3.1591   12.5884   -0.8253 C.ar    1  LIG1       -0.0077
     48 C          -4.3365   13.3095   -0.6191 C.ar    1  LIG1        0.1355
     49 C          -4.9788   13.2040    0.6282 C.ar    1  LIG1        0.0693
     50 N          -4.5183   12.4422    1.6397 N.ar    1  LIG1       -0.2559
     51 H          -2.6293   12.6443   -1.7868 H       1  LIG1        0.0662
     52 H          -6.0775   13.8561    0.8683 H       1  LIG1        0.0867
     53 C          -2.9630   11.0278    2.4185 C.3     1  LIG1       -0.0217
     54 H          -2.2841   11.5994    3.0162 H       1  LIG1        0.0293
     55 H          -2.4629   10.1600    2.0418 H       1  LIG1        0.0293
     56 H          -3.7981   10.7269    3.0161 H       1  LIG1        0.0293
     57 O          -4.8351   14.0636   -1.5533 O.3     1  LIG1       -0.5052
     58 H          -5.7129   13.7504   -1.7836 H       1  LIG1        0.2922
@<TRIPOS>BOND
     1    31    30    1
     2    33    30    1
     3    30    29    1
     4    30    32    1
     5    29    22    1
     6    23    21    1
     7    51    47    1
     8    58    57    1
     9    57    48    1
    10    22    21   ar
    11    22    19   ar
    12    21    18   ar
    13    14    12    1
    14    42    40    1
    15    41    40    1
    16    11     8    1
    17    47    48   ar
    18    47    46   ar
    19    48    49   ar
    20    40    35    1
    21    44    43    1
    22    43    36    1
    23    35    36   ar
    24    35    34   ar
    25    36    37   ar
    26    34    19    1
    27    34    38   ar
    28    19    17   ar
    29     5     4   ar
    30     5     1   ar
    31     4    18    1
    32     4     3   ar
    33    18    16   ar
    34     9     8    1
    35     2     1   ar
    36     2     3   ar
    37     2     7    1
    38     1     6    1
    39     3    12    1
    40    12    15    1
    41    12    13    1
    42     8     7    1
    43     8    10    1
    44    37    38   ar
    45    37    46    1
    46    38    39    1
    47    46    45   ar
    48    49    52    1
    49    49    50   ar
    50    17    16   ar
    51    17    20    1
    52    16    24    1
    53    45    50   ar
    54    45    53    1
    55    28    25    1
    56    55    53    1
    57    24    25    1
    58    53    56    1
    59    53    54    1
    60    25    27    1
    61    25    26    1
