@<TRIPOS>MOLECULE
mol_data/noopt/geoms/mol2/12li12li12li12li-.out
 58 57 0 0 0
SMALL
GASTEIGER

@<TRIPOS>ATOM
      1 C           0.1763    1.8460    0.0000 C.ar    1  LIG1        0.1345
      2 C           1.5558    1.8460    0.0000 C.ar    1  LIG1        0.1615
      3 C           1.9706    3.2334    0.0000 C.ar    1  LIG1        0.0436
      4 C           0.8165    3.9895   -0.0001 C.ar    1  LIG1        0.1803
      5 O          -0.3030    3.1567   -0.0002 O.2     1  LIG1       -0.4557
      6 H          -0.7504    0.9343    0.0000 H       1  LIG1        0.1068
      7 O           2.3515    0.8179    0.0001 O.3     1  LIG1       -0.4917
      8 C           1.5776   -0.3846    0.0001 C.3     1  LIG1        0.0789
      9 H           2.2328   -1.2305   -0.0000 H       1  LIG1        0.0660
     10 H           0.9604   -0.4116    0.8738 H       1  LIG1        0.0660
     11 H           0.9604   -0.4115   -0.8735 H       1  LIG1        0.0660
     12 C           3.2001    3.6568    0.0000 C.3     1  LIG1       -0.0163
     13 H           3.2528    4.5990    0.5044 H       1  LIG1        0.0227
     14 H           3.5373    3.7730   -1.0088 H       1  LIG1        0.0319
     15 H           3.8217    2.9468    0.5044 H       1  LIG1        0.0319
     16 C           0.5416    5.2601   -0.0001 C.ar    1  LIG1        0.2177
     17 C           1.2792    6.4258   -0.0001 C.ar    1  LIG1        0.2313
     18 C           0.3286    7.5182   -0.0001 C.ar    1  LIG1        0.0494
     19 C          -0.9274    6.9472   -0.0002 C.ar    1  LIG1        0.1816
     20 O          -0.8223    5.5559   -0.0003 O.2     1  LIG1       -0.4442
     21 O           2.5735    6.5485   -0.0000 O.3     1  LIG1       -0.2834
     22 C           3.1758    5.2515   -0.0000 C.3     2  LIG2       -0.0681
     23 H           4.2410    5.3529   -0.0001 H       1  LIG1        0.0227
     24 H           2.8686    4.7155    0.8737 H       3  UNK3        0.0000
     25 H           2.8685    4.7155   -0.8736 H       1  LIG1        0.0227
     26 C           0.6283    8.7835   -0.0001 C.3     1  LIG1       -0.0161
     27 H          -0.1397    9.3319    0.5043 H       2  LIG2        0.0227
     28 H           0.7104    9.1306   -1.0089 H       1  LIG1        0.0319
     29 H           1.5606    8.9292    0.5043 H       1  LIG1        0.0319
     30 C          -2.1481    7.3943   -0.0002 C.ar    1  LIG1        0.2177
     31 C          -2.7387    8.6410   -0.0002 C.ar    1  LIG1        0.2310
     32 C          -4.1701    8.4218   -0.0002 C.ar    1  LIG1        0.0460
     33 C          -4.3593    7.0551   -0.0003 C.ar    1  LIG1        0.1811
     34 O          -3.1273    6.4000   -0.0004 O.2     1  LIG1       -0.4442
     35 O          -2.1503    9.8003   -0.0001 O.3     1  LIG1       -0.2835
     36 C          -0.7323    9.6157   -0.0001 C.3     4  LIG4       -0.0681
     37 H          -0.2484   10.5701   -0.0002 H       2  LIG2        0.0227
     38 H          -0.4436    9.0696    0.8736 H       5  UNK5        0.0000
     39 H          -0.4437    9.0695   -0.8737 H       2  LIG2        0.0227
     40 C          -5.0792    9.3516   -0.0002 C.3     1  LIG1       -0.0323
     41 H          -5.9532    8.9959    0.5042 H       1  LIG1        0.0280
     42 H          -5.3286    9.6066   -1.0090 H       1  LIG1        0.0280
     43 H          -4.7037   10.2174    0.5042 H       1  LIG1        0.0280
     44 C          -5.3898    6.2627   -0.0003 C.ar    1  LIG1        0.2116
     45 C          -5.5796    4.8963   -0.0003 C.ar    1  LIG1        0.1716
     46 C          -7.0109    4.6763   -0.0003 C.ar    1  LIG1        0.0297
     47 C          -7.6010    5.9235   -0.0004 C.ar    1  LIG1        0.0993
     48 O          -6.6221    6.9178   -0.0005 O.2     1  LIG1       -0.4557
     49 H          -8.8217    6.3706   -0.0004 H       1  LIG1        0.1033
     50 O          -4.6708    3.9667   -0.0002 O.3     1  LIG1       -0.4909
     51 C          -5.3010    2.6831   -0.0003 C.3     1  LIG1        0.0790
     52 H          -4.5527    1.9183   -0.0004 H       1  LIG1        0.0660
     53 H          -5.9109    2.5851    0.8734 H       1  LIG1        0.0660
     54 H          -5.9110    2.5852   -0.8739 H       1  LIG1        0.0660
     55 C          -7.5994    3.5168   -0.0003 C.3     1  LIG1       -0.0332
     56 H          -6.9818    2.8034    0.5041 H       1  LIG1        0.0280
     57 H          -7.7608    3.1987   -1.0092 H       1  LIG1        0.0280
     58 H          -8.5399    3.5942    0.5040 H       1  LIG1        0.0280
@<TRIPOS>BOND
     1    57    55    1
     2    42    40    1
     3    28    26    1
     4    14    12    1
     5    54    51    1
     6    39    36    1
     7    25    22    1
     8    11     8    1
     9    48    47   ar
    10    48    44   ar
    11    34    33   ar
    12    34    30   ar
    13    52    51    1
    14    47    49    1
    15    47    46   ar
    16    45    46   ar
    17    45    44   ar
    18    45    50    1
    19    55    46    1
    20    55    58    1
    21    55    56    1
    22    44    33    1
    23    33    32   ar
    24    20    19   ar
    25    20    16   ar
    26    51    50    1
    27    51    53    1
    28    37    36    1
    29    19    30    1
    30    19    18   ar
    31    40    32    1
    32    40    43    1
    33    40    41    1
    34     5     4   ar
    35     5     1   ar
    36    30    31   ar
    37    31    32   ar
    38    31    35    1
    39    36    27    1
    40    23    22    1
    41     4    16    1
    42     4     3   ar
    43    16    17   ar
    44    26    18    1
    45    26    29    1
    46    17    18   ar
    47    17    21    1
    48    22    13    1
    49     9     8    1
    50     1     2   ar
    51     1     6    1
    52     2     3   ar
    53     2     7    1
    54     3    12    1
    55    12    15    1
    56     8     7    1
    57     8    10    1
