@<TRIPOS>MOLECULE
mol_data/noopt/geoms/mol2/12li6dd(270)13eh(70)6id(170).out
 52 55 0 0 0
SMALL
GASTEIGER

@<TRIPOS>ATOM
      1 C           0.1763    1.8460    0.0000 C.ar    1  LIG1        0.1343
      2 C           1.5558    1.8460    0.0000 C.ar    1  LIG1        0.1611
      3 C           1.9706    3.2334    0.0000 C.ar    1  LIG1        0.0371
      4 C           0.8165    3.9895   -0.0001 C.ar    1  LIG1        0.1441
      5 O          -0.3030    3.1567   -0.0002 O.2     1  LIG1       -0.4588
      6 H          -0.7504    0.9343    0.0000 H       1  LIG1        0.1068
      7 O           2.3515    0.8179    0.0001 O.3     1  LIG1       -0.4917
      8 C           1.5776   -0.3846    0.0001 C.3     1  LIG1        0.0789
      9 H           2.2328   -1.2305   -0.0000 H       1  LIG1        0.0660
     10 H           0.9604   -0.4116    0.8738 H       1  LIG1        0.0660
     11 H           0.9604   -0.4115   -0.8735 H       1  LIG1        0.0660
     12 C           3.2001    3.6568    0.0000 C.3     1  LIG1       -0.0326
     13 H           3.2528    4.5990    0.5044 H       1  LIG1        0.0280
     14 H           3.5373    3.7730   -1.0088 H       1  LIG1        0.0280
     15 H           3.8217    2.9468    0.5044 H       1  LIG1        0.0280
     16 C           0.3914    5.9552    1.2138 C.ar    1  LIG1        0.1515
     17 C           0.5416    5.2601   -0.0001 C.ar    1  LIG1        0.0547
     18 C           0.3892    5.9652   -1.1954 C.ar    1  LIG1       -0.0288
     19 C           0.0944    7.3284   -1.1385 C.ar    1  LIG1        0.0799
     20 C          -0.0369    7.9350    0.1243 C.ar    1  LIG1        0.1072
     21 N           0.1071    7.2700    1.2872 N.ar    1  LIG1       -0.2328
     22 H           0.4983    5.4557   -2.1633 H       1  LIG1        0.0639
     23 N           0.6409    4.8017    3.3570 N.1     1  LIG1       -0.1893
     24 C           0.5240    5.3423    2.3526 C.1     1  LIG1        0.1198
     25 N          -0.1910    8.6470   -3.1795 N.1     1  LIG1       -0.1908
     26 C          -0.0572    8.0291   -2.2229 C.1     1  LIG1        0.1014
     27 C          -0.3107    9.2015    0.2290 C.ar    1  LIG1        0.0841
     28 C          -0.1077   10.0655    1.2586 C.ar    1  LIG1        0.0727
     29 C          -0.5971   11.3462    0.8451 C.ar    1  LIG1        0.0665
     30 C          -1.0761   11.2088   -0.4197 C.ar    1  LIG1        0.0709
     31 N          -0.9031    9.8972   -0.8006 N.ar    1  LIG1       -0.3504
     32 H          -1.1640    9.5137   -1.6798 H       1  LIG1        0.1660
     33 C           0.4305    9.7780    2.4065 C.1     1  LIG1       -0.0656
     34 C           0.9278    9.5124    3.4672 C.1     1  LIG1       -0.1138
     35 H           1.3708    9.2758    4.4120 H       1  LIG1        0.1232
     36 N          -0.5866   12.4406    1.5467 N.pl3   1  LIG1       -0.3554
     37 H           0.2350   12.9677    1.3297 H       1  LIG1        0.1424
     38 H          -1.3979   12.9834    1.3297 H       1  LIG1        0.1424
     39 C          -0.8312   13.0805   -1.8180 C.ar    1  LIG1        0.0474
     40 C          -1.6183   12.0819   -1.2158 C.ar    1  LIG1        0.0224
     41 C          -2.9861   12.0531   -1.4938 C.ar    1  LIG1       -0.0320
     42 C          -3.5170   13.0141   -2.3558 C.ar    1  LIG1        0.0705
     43 C          -2.6487   13.9730   -2.9090 C.ar    1  LIG1        0.0452
     44 N          -1.3268   14.0153   -2.6519 N.ar    1  LIG1       -0.2582
     45 H          -3.6330   11.2883   -1.0411 H       1  LIG1        0.0638
     46 H          -3.0956   14.8880   -3.7170 H       1  LIG1        0.0843
     47 C           0.4472   13.1483   -1.5900 C.3     1  LIG1       -0.0217
     48 H           0.6633   14.0347   -1.0309 H       1  LIG1        0.0293
     49 H           0.9744   13.1764   -2.5207 H       1  LIG1        0.0293
     50 H           0.7558   12.2898   -1.0310 H       1  LIG1        0.0293
     51 N          -5.9017   13.0439   -2.9020 N.1     1  LIG1       -0.1908
     52 C          -4.7841   13.0299   -2.6460 C.1     1  LIG1        0.1007
@<TRIPOS>BOND
     1    46    43    1
     2    25    26    3
     3    43    44   ar
     4    43    42   ar
     5    51    52    3
     6    44    39   ar
     7    52    42    1
     8    49    47    1
     9    42    41   ar
    10    26    19    1
    11    22    18    1
    12    39    47    1
    13    39    40   ar
    14    32    31    1
    15    47    50    1
    16    47    48    1
    17    41    40   ar
    18    41    45    1
    19    40    30    1
    20    18    19   ar
    21    18    17   ar
    22    19    20   ar
    23    14    12    1
    24    11     8    1
    25    31    30   ar
    26    31    27   ar
    27    30    29   ar
    28     5     4   ar
    29     5     1   ar
    30    17     4    1
    31    17    16   ar
    32     4     3   ar
    33     9     8    1
    34     1     2   ar
    35     1     6    1
    36     2     3   ar
    37     2     7    1
    38     3    12    1
    39    12    15    1
    40    12    13    1
    41     8     7    1
    42     8    10    1
    43    20    27    1
    44    20    21   ar
    45    27    28   ar
    46    29    28   ar
    47    29    36    1
    48    16    21   ar
    49    16    24    1
    50    28    33    1
    51    38    36    1
    52    37    36    1
    53    24    23    3
    54    33    34    3
    55    34    35    1
