@<TRIPOS>MOLECULE
mol_data/noopt/geoms/mol2/12li12li-12li12li.out
 58 59 0 0 0
SMALL
GASTEIGER

@<TRIPOS>ATOM
      1 C           0.1763    1.8460    0.0000 C.ar    1  LIG1        0.1345
      2 C           1.5558    1.8460    0.0000 C.ar    1  LIG1        0.1612
      3 C           1.9706    3.2334    0.0000 C.ar    1  LIG1        0.0402
      4 C           0.8165    3.9895   -0.0001 C.ar    1  LIG1        0.1799
      5 O          -0.3030    3.1567   -0.0002 O.2     1  LIG1       -0.4557
      6 H          -0.7504    0.9343    0.0000 H       1  LIG1        0.1068
      7 O           2.3515    0.8179    0.0001 O.3     1  LIG1       -0.4917
      8 C           1.5776   -0.3846    0.0001 C.3     1  LIG1        0.0789
      9 H           2.2328   -1.2305   -0.0000 H       1  LIG1        0.0660
     10 H           0.9604   -0.4116    0.8738 H       1  LIG1        0.0660
     11 H           0.9604   -0.4115   -0.8735 H       1  LIG1        0.0660
     12 C           3.2001    3.6568    0.0000 C.3     1  LIG1       -0.0325
     13 H           3.2528    4.5990    0.5044 H       1  LIG1        0.0280
     14 H           3.5373    3.7730   -1.0088 H       1  LIG1        0.0280
     15 H           3.8217    2.9468    0.5044 H       1  LIG1        0.0280
     16 C           0.5416    5.2601   -0.0001 C.ar    1  LIG1        0.2126
     17 C          -0.6119    6.0167   -0.0001 C.ar    1  LIG1        0.1723
     18 C          -0.1979    7.4043   -0.0001 C.ar    1  LIG1        0.0410
     19 C           1.1818    7.4036   -0.0002 C.ar    1  LIG1        0.1809
     20 O           1.6612    6.0932   -0.0003 O.2     1  LIG1       -0.4444
     21 O          -1.8411    5.5933   -0.0000 O.3     1  LIG1       -0.4909
     22 C          -2.7313    6.7125   -0.0001 C.3     1  LIG1        0.0790
     23 H          -3.7429    6.3637   -0.0002 H       1  LIG1        0.0660
     24 H          -2.5587    7.3056    0.8736 H       1  LIG1        0.0660
     25 H          -2.5585    7.3057   -0.8737 H       1  LIG1        0.0660
     26 C          -0.9938    8.4326   -0.0001 C.3     1  LIG1       -0.0325
     27 H          -1.9030    8.1799    0.5043 H       1  LIG1        0.0280
     28 H          -1.2121    8.7146   -1.0090 H       1  LIG1        0.0280
     29 H          -0.5211    9.2494    0.5042 H       1  LIG1        0.0280
     30 C           2.1085    8.3153   -0.0002 C.ar    1  LIG1        0.2127
     31 C           3.4880    8.3153   -0.0001 C.ar    1  LIG1        0.1726
     32 C           3.9028    9.7027   -0.0001 C.ar    1  LIG1        0.0443
     33 C           2.7487   10.4588   -0.0002 C.ar    1  LIG1        0.1814
     34 O           1.6292    9.6260   -0.0003 O.2     1  LIG1       -0.4444
     35 O           4.2837    7.2872   -0.0000 O.3     1  LIG1       -0.4909
     36 C           3.5098    6.0847   -0.0001 C.3     1  LIG1        0.0790
     37 H           4.1651    5.2388   -0.0002 H       1  LIG1        0.0660
     38 H           2.8927    6.0577    0.8737 H       1  LIG1        0.0660
     39 H           2.8926    6.0578   -0.8736 H       1  LIG1        0.0660
     40 C           5.1323   10.1261   -0.0001 C.3     1  LIG1       -0.0162
     41 H           5.1851   11.0682    0.5043 H       1  LIG1        0.0227
     42 H           5.4695   10.2423   -1.0089 H       1  LIG1        0.0319
     43 H           5.7540    9.4161    0.5043 H       1  LIG1        0.0319
     44 C           2.4738   11.7294   -0.0002 C.ar    1  LIG1        0.2167
     45 C           3.2115   12.8951   -0.0002 C.ar    1  LIG1        0.2303
     46 C           2.2609   13.9875   -0.0002 C.ar    1  LIG1        0.0348
     47 C           1.0048   13.4165   -0.0003 C.ar    1  LIG1        0.0994
     48 O           1.1100   12.0252   -0.0004 O.2     1  LIG1       -0.4556
     49 H          -0.2159   13.8636   -0.0003 H       1  LIG1        0.1033
     50 O           4.5057   13.0177   -0.0001 O.3     1  LIG1       -0.2835
     51 C           5.1080   11.7208   -0.0001 C.3     2  LIG2       -0.0681
     52 H           6.1732   11.8222   -0.0002 H       1  LIG1        0.0227
     53 H           4.8009   11.1848    0.8736 H       3  UNK3        0.0000
     54 H           4.8007   11.1848   -0.8737 H       1  LIG1        0.0227
     55 C           2.5605   15.2528   -0.0002 C.3     1  LIG1       -0.0330
     56 H           1.7926   15.8012    0.5043 H       1  LIG1        0.0280
     57 H           2.6426   15.5999   -1.0090 H       1  LIG1        0.0280
     58 H           3.4929   15.3985    0.5042 H       1  LIG1        0.0280
@<TRIPOS>BOND
     1    57    55    1
     2    28    26    1
     3    42    40    1
     4    14    12    1
     5    54    51    1
     6    25    22    1
     7    39    36    1
     8    11     8    1
     9    48    47   ar
    10    48    44   ar
    11    34    33   ar
    12    34    30   ar
    13    47    49    1
    14    47    46   ar
    15    20    19   ar
    16    20    16   ar
    17    33    44    1
    18    33    32   ar
    19    52    51    1
    20    44    45   ar
    21    23    22    1
    22     5     4   ar
    23     5     1   ar
    24    45    46   ar
    25    45    50    1
    26    46    55    1
    27    19    30    1
    28    19    18   ar
    29    55    58    1
    30    55    56    1
    31    37    36    1
    32    30    31   ar
    33    31    32   ar
    34    31    35    1
    35    51    41    1
    36    17    18   ar
    37    17    16   ar
    38    17    21    1
    39    26    18    1
    40    26    29    1
    41    26    27    1
    42    32    40    1
    43    16     4    1
    44     4     3   ar
    45    22    21    1
    46    22    24    1
    47    40    43    1
    48    36    35    1
    49    36    38    1
    50     9     8    1
    51     1     2   ar
    52     1     6    1
    53     2     3   ar
    54     2     7    1
    55     3    12    1
    56    12    15    1
    57    12    13    1
    58     8     7    1
    59     8    10    1
