@<TRIPOS>MOLECULE
mol_data/noopt/geoms/mol2/12li12li12li.out
 44 42 0 0 0
SMALL
GASTEIGER

@<TRIPOS>ATOM
      1 C           0.1763    1.8460    0.0000 C.ar    1  LIG1        0.1345
      2 C           1.5558    1.8460    0.0000 C.ar    1  LIG1        0.1615
      3 C           1.9706    3.2334    0.0000 C.ar    1  LIG1        0.0436
      4 C           0.8165    3.9895   -0.0001 C.ar    1  LIG1        0.1803
      5 O          -0.3030    3.1567   -0.0002 O.2     1  LIG1       -0.4557
      6 H          -0.7504    0.9343    0.0000 H       1  LIG1        0.1068
      7 O           2.3515    0.8179    0.0001 O.3     1  LIG1       -0.4917
      8 C           1.5776   -0.3846    0.0001 C.3     1  LIG1        0.0789
      9 H           2.2328   -1.2305   -0.0000 H       1  LIG1        0.0660
     10 H           0.9604   -0.4116    0.8738 H       1  LIG1        0.0660
     11 H           0.9604   -0.4115   -0.8735 H       1  LIG1        0.0660
     12 C           3.2001    3.6568    0.0000 C.3     1  LIG1       -0.0163
     13 H           3.2528    4.5990    0.5044 H       1  LIG1        0.0227
     14 H           3.5373    3.7730   -1.0088 H       1  LIG1        0.0319
     15 H           3.8217    2.9468    0.5044 H       1  LIG1        0.0319
     16 C           0.5416    5.2601   -0.0001 C.ar    1  LIG1        0.2177
     17 C           1.2792    6.4258   -0.0001 C.ar    1  LIG1        0.2313
     18 C           0.3286    7.5182   -0.0001 C.ar    1  LIG1        0.0494
     19 C          -0.9274    6.9472   -0.0002 C.ar    1  LIG1        0.1815
     20 O          -0.8223    5.5559   -0.0003 O.2     1  LIG1       -0.4442
     21 O           2.5735    6.5485   -0.0000 O.3     1  LIG1       -0.2834
     22 C           3.1758    5.2515   -0.0000 C.3     2  LIG2       -0.0681
     23 H           4.2410    5.3529   -0.0001 H       1  LIG1        0.0227
     24 H           2.8686    4.7155    0.8737 H       3  UNK3        0.0000
     25 H           2.8685    4.7155   -0.8736 H       1  LIG1        0.0227
     26 C           0.6283    8.7835   -0.0001 C.3     1  LIG1       -0.0161
     27 H          -0.1397    9.3319    0.5043 H       2  LIG2        0.0227
     28 H           0.7104    9.1306   -1.0089 H       1  LIG1        0.0319
     29 H           1.5606    8.9292    0.5043 H       1  LIG1        0.0319
     30 C          -2.1481    7.3943   -0.0002 C.ar    1  LIG1        0.2167
     31 C          -2.7387    8.6410   -0.0002 C.ar    1  LIG1        0.2303
     32 C          -4.1701    8.4218   -0.0002 C.ar    1  LIG1        0.0348
     33 C          -4.3593    7.0551   -0.0003 C.ar    1  LIG1        0.0994
     34 O          -3.1273    6.4000   -0.0004 O.2     1  LIG1       -0.4556
     35 H          -5.3898    6.2627   -0.0003 H       1  LIG1        0.1033
     36 O          -2.1503    9.8003   -0.0001 O.3     1  LIG1       -0.2835
     37 C          -0.7323    9.6157   -0.0001 C.3     4  LIG4       -0.0681
     38 H          -0.2484   10.5701   -0.0002 H       2  LIG2        0.0227
     39 H          -0.4436    9.0696    0.8736 H       5  UNK5        0.0000
     40 H          -0.4437    9.0695   -0.8737 H       2  LIG2        0.0227
     41 C          -5.0792    9.3516   -0.0002 C.3     1  LIG1       -0.0330
     42 H          -5.9532    8.9959    0.5042 H       1  LIG1        0.0280
     43 H          -5.3286    9.6066   -1.0090 H       1  LIG1        0.0280
     44 H          -4.7037   10.2174    0.5042 H       1  LIG1        0.0280
@<TRIPOS>BOND
     1    43    41    1
     2    28    26    1
     3    14    12    1
     4    40    37    1
     5    25    22    1
     6    11     8    1
     7    34    33   ar
     8    34    30   ar
     9    33    35    1
    10    33    32   ar
    11    20    19   ar
    12    20    16   ar
    13    38    37    1
    14     5     4   ar
    15     5     1   ar
    16    41    32    1
    17    41    44    1
    18    41    42    1
    19    30    31   ar
    20    30    19    1
    21    31    32   ar
    22    31    36    1
    23    19    18   ar
    24    37    27    1
    25    23    22    1
    26    18    17   ar
    27    18    26    1
    28    17    16   ar
    29    17    21    1
    30    16     4    1
    31     4     3   ar
    32    26    29    1
    33    22    13    1
    34     9     8    1
    35     1     6    1
    36     1     2   ar
    37    12     3    1
    38    12    15    1
    39     3     2   ar
    40     2     7    1
    41     8     7    1
    42     8    10    1
