@<TRIPOS>MOLECULE
mol_data/noopt/geoms/mol2/12li.out
 16 16 0 0 0
SMALL
GASTEIGER

@<TRIPOS>ATOM
      1 C           0.1763    1.8460    0.0000 C.ar    1  LIG1        0.1334
      2 C           1.5558    1.8460    0.0000 C.ar    1  LIG1        0.1605
      3 C           1.9706    3.2334    0.0000 C.ar    1  LIG1        0.0290
      4 C           0.8165    3.9895   -0.0001 C.ar    1  LIG1        0.0982
      5 O          -0.3030    3.1567   -0.0002 O.2     1  LIG1       -0.4670
      6 H          -0.7504    0.9343    0.0000 H       1  LIG1        0.1067
      7 H           0.5416    5.2601   -0.0001 H       1  LIG1        0.1033
      8 O           2.3515    0.8179    0.0001 O.3     1  LIG1       -0.4917
      9 C           1.5776   -0.3846    0.0001 C.3     1  LIG1        0.0789
     10 H           2.2328   -1.2305   -0.0000 H       1  LIG1        0.0660
     11 H           0.9604   -0.4116    0.8738 H       1  LIG1        0.0660
     12 H           0.9604   -0.4115   -0.8735 H       1  LIG1        0.0660
     13 C           3.2001    3.6568    0.0000 C.3     1  LIG1       -0.0332
     14 H           3.2528    4.5990    0.5044 H       1  LIG1        0.0280
     15 H           3.5373    3.7730   -1.0088 H       1  LIG1        0.0280
     16 H           3.8217    2.9468    0.5044 H       1  LIG1        0.0280
@<TRIPOS>BOND
     1    15    13    1
     2    12     9    1
     3     5     4   ar
     4     5     1   ar
     5     4     7    1
     6     4     3   ar
     7    10     9    1
     8     1     2   ar
     9     1     6    1
    10     2     3   ar
    11     2     8    1
    12     3    13    1
    13    13    16    1
    14    13    14    1
    15     9     8    1
    16     9    11    1
