@<TRIPOS>MOLECULE
mol_data/noopt/geoms/mol2/12ll12ll.out
 32 32 0 0 0
SMALL
GASTEIGER

@<TRIPOS>ATOM
      1 C           0.1763    1.8460    0.0000 C.ar    1  LIG1        0.1383
      2 C           1.5558    1.8460    0.0000 C.ar    1  LIG1        0.2055
      3 C           1.9706    3.2334    0.0000 C.ar    1  LIG1        0.2689
      4 C           0.8165    3.9895   -0.0001 C.ar    1  LIG1        0.2236
      5 O          -0.3030    3.1567   -0.0002 O.2     1  LIG1       -0.4519
      6 H          -0.7504    0.9343    0.0000 H       1  LIG1        0.1069
      7 O           2.3515    0.8179    0.0001 O.3     1  LIG1       -0.4887
      8 C           1.5776   -0.3846    0.0001 C.3     1  LIG1        0.0791
      9 H           2.2328   -1.2305   -0.0000 H       1  LIG1        0.0660
     10 H           0.9604   -0.4116    0.8738 H       1  LIG1        0.0660
     11 H           0.9604   -0.4115   -0.8735 H       1  LIG1        0.0660
     12 O           3.1998    3.6567   -0.0000 O.3     1  LIG1       -0.2798
     13 C           4.0900    2.5376   -0.0001 C.3     2  LIG2       -0.0681
     14 H           5.1015    2.8864   -0.0002 H       1  LIG1        0.0227
     15 H           3.9174    1.9445    0.8737 H       1  LIG1        0.0227
     16 H           3.9171    1.9444   -0.8736 H       1  LIG1        0.0227
     17 C           0.5416    5.2601   -0.0001 C.ar    1  LIG1        0.2188
     18 C           1.2792    6.4258   -0.0001 C.ar    1  LIG1        0.2111
     19 C           0.3286    7.5182   -0.0001 C.ar    1  LIG1        0.2004
     20 C          -0.9274    6.9472   -0.0002 C.ar    1  LIG1        0.1381
     21 O          -0.8223    5.5559   -0.0003 O.2     1  LIG1       -0.4521
     22 H          -2.1481    7.3943   -0.0002 H       1  LIG1        0.1069
     23 O           2.5735    6.5485   -0.0000 O.3     1  LIG1       -0.4883
     24 C           3.1758    5.2515   -0.0000 C.3     1  LIG1        0.0791
     25 H           4.2410    5.3529   -0.0001 H       1  LIG1        0.0660
     26 H           2.8686    4.7155    0.8737 H       1  LIG1        0.0660
     27 H           2.8685    4.7155   -0.8736 H       1  LIG1        0.0660
     28 O           0.6282    8.7833   -0.0001 O.3     1  LIG1       -0.4888
     29 C           2.0499    8.9371   -0.0002 C.3     1  LIG1        0.0791
     30 H           2.2960    9.9784   -0.0003 H       1  LIG1        0.0660
     31 H           2.4588    8.4741    0.8736 H       1  LIG1        0.0660
     32 H           2.4588    8.4738   -0.8737 H       1  LIG1        0.0660
@<TRIPOS>BOND
     1    32    29    1
     2    16    13    1
     3    27    24    1
     4    11     8    1
     5    30    29    1
     6    21    20   ar
     7    21    17   ar
     8    14    13    1
     9     5     4   ar
    10     5     1   ar
    11    22    20    1
    12    20    19   ar
    13    29    28    1
    14    29    31    1
    15    25    24    1
    16    17    18   ar
    17    17     4    1
    18    28    19    1
    19    19    18   ar
    20    18    23    1
    21     4     3   ar
    22    13    15    1
    23    24    23    1
    24    24    26    1
    25     9     8    1
    26     1     6    1
    27     1     2   ar
    28    12     3    1
    29     3     2   ar
    30     2     7    1
    31     8     7    1
    32     8    10    1
