@<TRIPOS>MOLECULE
mol_data/noopt/geoms/mol2/12ll12ll-12ll-12ll-.out
 62 65 0 0 0
SMALL
GASTEIGER

@<TRIPOS>ATOM
      1 C           0.1763    1.8460    0.0000 C.ar    1  LIG1        0.1381
      2 C           1.5558    1.8460    0.0000 C.ar    1  LIG1        0.2004
      3 C           1.9706    3.2334    0.0000 C.ar    1  LIG1        0.2111
      4 C           0.8165    3.9895   -0.0001 C.ar    1  LIG1        0.2186
      5 O          -0.3030    3.1567   -0.0002 O.2     1  LIG1       -0.4521
      6 H          -0.7504    0.9343    0.0000 H       1  LIG1        0.1069
      7 O           2.3515    0.8179    0.0001 O.3     1  LIG1       -0.4888
      8 C           1.5776   -0.3846    0.0001 C.3     1  LIG1        0.0791
      9 H           2.2328   -1.2305   -0.0000 H       1  LIG1        0.0660
     10 H           0.9604   -0.4116    0.8738 H       1  LIG1        0.0660
     11 H           0.9604   -0.4115   -0.8735 H       1  LIG1        0.0660
     12 O           3.1998    3.6567   -0.0000 O.3     1  LIG1       -0.4883
     13 C           4.0900    2.5376   -0.0001 C.3     1  LIG1        0.0791
     14 H           5.1015    2.8864   -0.0002 H       1  LIG1        0.0660
     15 H           3.9174    1.9445    0.8737 H       1  LIG1        0.0660
     16 H           3.9171    1.9444   -0.8736 H       1  LIG1        0.0660
     17 C           0.5416    5.2601   -0.0001 C.ar    1  LIG1        0.2196
     18 C          -0.6119    6.0167   -0.0001 C.ar    1  LIG1        0.2119
     19 C          -0.1979    7.4043   -0.0001 C.ar    1  LIG1        0.2119
     20 C           1.1818    7.4036   -0.0002 C.ar    1  LIG1        0.2197
     21 O           1.6612    6.0932   -0.0003 O.2     1  LIG1       -0.4407
     22 O          -1.8411    5.5933   -0.0000 O.3     1  LIG1       -0.4883
     23 C          -2.7313    6.7125   -0.0001 C.3     1  LIG1        0.0791
     24 H          -3.7429    6.3637   -0.0002 H       1  LIG1        0.0660
     25 H          -2.5587    7.3056    0.8736 H       1  LIG1        0.0660
     26 H          -2.5585    7.3057   -0.8737 H       1  LIG1        0.0660
     27 O          -0.9936    8.4324   -0.0001 O.3     1  LIG1       -0.4883
     28 C          -0.2197    9.6349   -0.0002 C.3     1  LIG1        0.0791
     29 H          -0.8750   10.4808   -0.0004 H       1  LIG1        0.0660
     30 H           0.3974    9.6619    0.8736 H       1  LIG1        0.0660
     31 H           0.3976    9.6617   -0.8737 H       1  LIG1        0.0660
     32 C           2.1085    8.3153   -0.0002 C.ar    1  LIG1        0.2197
     33 C           2.1310    9.6946   -0.0002 C.ar    1  LIG1        0.2119
     34 C           3.5250   10.0867   -0.0001 C.ar    1  LIG1        0.2119
     35 C           4.2622    8.9204   -0.0002 C.ar    1  LIG1        0.2196
     36 O           3.4112    7.8147   -0.0003 O.2     1  LIG1       -0.4407
     37 O           1.1161   10.5070   -0.0001 O.3     1  LIG1       -0.4883
     38 C           1.5858   11.8576   -0.0001 C.3     1  LIG1        0.0791
     39 H           0.7501   12.5259   -0.0002 H       1  LIG1        0.0660
     40 H           2.1793   12.0289    0.8736 H       1  LIG1        0.0660
     41 H           2.1794   12.0288   -0.8737 H       1  LIG1        0.0660
     42 O           3.9683   11.3088   -0.0001 O.3     1  LIG1       -0.4883
     43 C           5.3983   11.2978   -0.0002 C.3     1  LIG1        0.0791
     44 H           5.7627   12.3039   -0.0003 H       1  LIG1        0.0660
     45 H           5.7511   10.7908    0.8736 H       1  LIG1        0.0660
     46 H           5.7511   10.7906   -0.8737 H       1  LIG1        0.0660
     47 C           5.5281    8.6248   -0.0002 C.ar    1  LIG1        0.2186
     48 C           6.7057    9.3433   -0.0002 C.ar    1  LIG1        0.2111
     49 C           7.7825    8.3750   -0.0001 C.ar    1  LIG1        0.2004
     50 C           7.1911    7.1285   -0.0002 C.ar    1  LIG1        0.1381
     51 O           5.8017    7.2563   -0.0003 O.2     1  LIG1       -0.4521
     52 H           7.6182    5.9007   -0.0001 H       1  LIG1        0.1069
     53 O           6.8495   10.6354   -0.0001 O.3     1  LIG1       -0.4883
     54 C           8.2420   10.9607   -0.0001 C.3     1  LIG1        0.0791
     55 H           8.3599   12.0242   -0.0002 H       1  LIG1        0.0660
     56 H           8.7041   10.5508    0.8736 H       1  LIG1        0.0660
     57 H           8.7041   10.5506   -0.8737 H       1  LIG1        0.0660
     58 O           9.0522    8.6539   -0.0001 O.3     1  LIG1       -0.4888
     59 C           9.8076    7.4397   -0.0001 C.3     1  LIG1        0.0791
     60 H          10.8526    7.6697   -0.0003 H       1  LIG1        0.0660
     61 H           9.5678    6.8704    0.8736 H       1  LIG1        0.0660
     62 H           9.5676    6.8704   -0.8737 H       1  LIG1        0.0660
@<TRIPOS>BOND
     1    31    28    1
     2    46    43    1
     3    41    38    1
     4    62    59    1
     5    57    54    1
     6    26    23    1
     7    16    13    1
     8    11     8    1
     9    29    28    1
    10    44    43    1
    11    36    35   ar
    12    36    32   ar
    13    51    50   ar
    14    51    47   ar
    15    60    59    1
    16    21    20   ar
    17    21    17   ar
    18    39    38    1
    19    55    54    1
    20    14    13    1
    21    24    23    1
    22     5     4   ar
    23     5     1   ar
    24    28    27    1
    25    28    30    1
    26    35    47    1
    27    35    34   ar
    28    50    52    1
    29    50    49   ar
    30    43    42    1
    31    43    45    1
    32    20    32    1
    33    20    19   ar
    34    47    48   ar
    35    33    32   ar
    36    33    34   ar
    37    33    37    1
    38    48    49   ar
    39    48    53    1
    40    59    58    1
    41    59    61    1
    42    38    37    1
    43    38    40    1
    44    54    53    1
    45    54    56    1
    46    18    19   ar
    47    18    17   ar
    48    18    22    1
    49    34    42    1
    50    27    19    1
    51    49    58    1
    52    17     4    1
    53     4     3   ar
    54    23    22    1
    55    23    25    1
    56    13    12    1
    57    13    15    1
    58     9     8    1
    59     2     3   ar
    60     2     1   ar
    61     2     7    1
    62     6     1    1
    63     3    12    1
    64     8     7    1
    65     8    10    1
