@<TRIPOS>MOLECULE
mol_data/noopt/geoms/mol2/12ll13aa(200)12ii(150)12lh(40).out
 51 54 0 0 0
SMALL
GASTEIGER

@<TRIPOS>ATOM
      1 C           0.1763    1.8460    0.0000 C.ar    1  LIG1        0.1380
      2 C           1.5558    1.8460    0.0000 C.ar    1  LIG1        0.2004
      3 C           1.9706    3.2334    0.0000 C.ar    1  LIG1        0.2093
      4 C           0.8165    3.9895   -0.0001 C.ar    1  LIG1        0.1960
      5 O          -0.3030    3.1567   -0.0002 O.2     1  LIG1       -0.4539
      6 H          -0.7504    0.9343    0.0000 H       1  LIG1        0.1069
      7 O           2.3515    0.8179    0.0001 O.3     1  LIG1       -0.4888
      8 C           1.5776   -0.3846    0.0001 C.3     1  LIG1        0.0791
      9 H           2.2328   -1.2305   -0.0000 H       1  LIG1        0.0660
     10 H           0.9604   -0.4116    0.8738 H       1  LIG1        0.0660
     11 H           0.9604   -0.4115   -0.8735 H       1  LIG1        0.0660
     12 O           3.1998    3.6567   -0.0000 O.3     1  LIG1       -0.4884
     13 C           4.0900    2.5376   -0.0001 C.3     1  LIG1        0.0791
     14 H           5.1015    2.8864   -0.0002 H       1  LIG1        0.0660
     15 H           3.9174    1.9445    0.8737 H       1  LIG1        0.0660
     16 H           3.9171    1.9444   -0.8736 H       1  LIG1        0.0660
     17 C           0.5416    5.2601   -0.0001 C.ar    1  LIG1        0.0864
     18 C          -0.6038    5.9147   -0.3281 C.ar    1  LIG1       -0.0326
     19 C          -0.3618    7.3149   -0.1512 C.ar    1  LIG1       -0.0327
     20 C           0.9202    7.4544    0.2788 C.ar    1  LIG1        0.0829
     21 N           1.4771    6.1989    0.3722 N.ar    1  LIG1       -0.3493
     22 H           2.4069    6.0015    0.6630 H       1  LIG1        0.1661
     23 H          -1.7123    5.3669   -0.7296 H       1  LIG1        0.0640
     24 H          -1.2093    8.2780   -0.3615 H       1  LIG1        0.0640
     25 C           1.5989    8.5227    0.5758 C.ar    1  LIG1        0.1550
     26 C           1.3300    9.7095    1.2256 C.ar    1  LIG1        0.0004
     27 C           2.5567   10.4788    1.2087 C.ar    1  LIG1        0.0021
     28 C           3.4943    9.7106    0.5495 C.ar    1  LIG1        0.1775
     29 O           2.9276    8.4999    0.1497 O.2     1  LIG1       -0.4496
     30 C           0.2057   10.0885    1.7577 C.3     1  LIG1       -0.0358
     31 H          -0.1862    9.2987    2.3639 H       1  LIG1        0.0279
     32 H          -0.4939   10.3243    0.9831 H       1  LIG1        0.0279
     33 H           0.3720   10.9545    2.3638 H       1  LIG1        0.0279
     34 C           2.7161   11.6624    1.7230 C.3     1  LIG1       -0.0357
     35 H           1.8674   11.9059    2.3274 H       1  LIG1        0.0279
     36 H           2.8130   12.3825    0.9375 H       1  LIG1        0.0279
     37 H           3.5991   11.6727    2.3273 H       1  LIG1        0.0279
     38 C           4.7453    9.8518    0.2256 C.ar    1  LIG1        0.2132
     39 C           5.9210    9.2001    0.5356 C.ar    1  LIG1        0.1895
     40 C           6.9765    9.8853   -0.1809 C.ar    1  LIG1        0.1059
     41 C           6.3755   10.9107   -0.8816 C.ar    1  LIG1        0.1171
     42 O           5.0000   10.9107   -0.6471 O.2     1  LIG1       -0.4541
     43 H           6.7841   11.8476   -1.6848 H       1  LIG1        0.1050
     44 O           6.0789    8.1712    1.3144 O.3     1  LIG1       -0.4896
     45 C           4.8045    7.5889    1.6003 C.3     1  LIG1        0.0791
     46 H           4.9350    6.7421    2.2412 H       1  LIG1        0.0660
     47 H           4.1830    8.3117    2.0864 H       1  LIG1        0.0660
     48 H           4.3418    7.2772    0.6872 H       1  LIG1        0.0660
     49 N           8.2382    9.5734   -0.1518 N.pl3   1  LIG1       -0.3527
     50 H           8.3760    8.6982   -0.6156 H       1  LIG1        0.1425
     51 H           8.7679   10.2835   -0.6156 H       1  LIG1        0.1425
@<TRIPOS>BOND
     1    43    41    1
     2    41    42   ar
     3    41    40   ar
     4    16    13    1
     5    11     8    1
     6    23    18    1
     7    42    38   ar
     8    51    49    1
     9    50    49    1
    10    24    19    1
    11    18    19   ar
    12    18    17   ar
    13    40    49    1
    14    40    39   ar
    15    19    20   ar
    16    14    13    1
    17     5     4   ar
    18     5     1   ar
    19     4    17    1
    20     4     3   ar
    21    17    21   ar
    22    13    12    1
    23    13    15    1
    24     9     8    1
    25     1     2   ar
    26     1     6    1
    27     2     3   ar
    28     2     7    1
    29     3    12    1
    30     8     7    1
    31     8    10    1
    32    29    28   ar
    33    29    25   ar
    34    38    39   ar
    35    38    28    1
    36    20    21   ar
    37    20    25    1
    38    21    22    1
    39    39    44    1
    40    28    27   ar
    41    25    26   ar
    42    48    45    1
    43    36    34    1
    44    32    30    1
    45    27    26   ar
    46    27    34    1
    47    26    30    1
    48    44    45    1
    49    45    47    1
    50    45    46    1
    51    34    37    1
    52    34    35    1
    53    30    33    1
    54    30    31    1
