@<TRIPOS>MOLECULE
mol_data/noopt/geoms/mol2/12ll12ll-12ll12ll.out
 62 64 0 0 0
SMALL
GASTEIGER

@<TRIPOS>ATOM
      1 C           0.1763    1.8460    0.0000 C.ar    1  LIG1        0.1381
      2 C           1.5558    1.8460    0.0000 C.ar    1  LIG1        0.2004
      3 C           1.9706    3.2334    0.0000 C.ar    1  LIG1        0.2111
      4 C           0.8165    3.9895   -0.0001 C.ar    1  LIG1        0.2186
      5 O          -0.3030    3.1567   -0.0002 O.2     1  LIG1       -0.4521
      6 H          -0.7504    0.9343    0.0000 H       1  LIG1        0.1069
      7 O           2.3515    0.8179    0.0001 O.3     1  LIG1       -0.4888
      8 C           1.5776   -0.3846    0.0001 C.3     1  LIG1        0.0791
      9 H           2.2328   -1.2305   -0.0000 H       1  LIG1        0.0660
     10 H           0.9604   -0.4116    0.8738 H       1  LIG1        0.0660
     11 H           0.9604   -0.4115   -0.8735 H       1  LIG1        0.0660
     12 O           3.1998    3.6567   -0.0000 O.3     1  LIG1       -0.4883
     13 C           4.0900    2.5376   -0.0001 C.3     1  LIG1        0.0791
     14 H           5.1015    2.8864   -0.0002 H       1  LIG1        0.0660
     15 H           3.9174    1.9445    0.8737 H       1  LIG1        0.0660
     16 H           3.9171    1.9444   -0.8736 H       1  LIG1        0.0660
     17 C           0.5416    5.2601   -0.0001 C.ar    1  LIG1        0.2196
     18 C          -0.6119    6.0167   -0.0001 C.ar    1  LIG1        0.2119
     19 C          -0.1979    7.4043   -0.0001 C.ar    1  LIG1        0.2119
     20 C           1.1818    7.4036   -0.0002 C.ar    1  LIG1        0.2197
     21 O           1.6612    6.0932   -0.0003 O.2     1  LIG1       -0.4407
     22 O          -1.8411    5.5933   -0.0000 O.3     1  LIG1       -0.4883
     23 C          -2.7313    6.7125   -0.0001 C.3     1  LIG1        0.0791
     24 H          -3.7429    6.3637   -0.0002 H       1  LIG1        0.0660
     25 H          -2.5587    7.3056    0.8736 H       1  LIG1        0.0660
     26 H          -2.5585    7.3057   -0.8737 H       1  LIG1        0.0660
     27 O          -0.9936    8.4324   -0.0001 O.3     1  LIG1       -0.4883
     28 C          -0.2197    9.6349   -0.0002 C.3     1  LIG1        0.0791
     29 H          -0.8750   10.4808   -0.0004 H       1  LIG1        0.0660
     30 H           0.3974    9.6619    0.8736 H       1  LIG1        0.0660
     31 H           0.3976    9.6617   -0.8737 H       1  LIG1        0.0660
     32 C           2.1085    8.3153   -0.0002 C.ar    1  LIG1        0.2199
     33 C           3.4880    8.3153   -0.0001 C.ar    1  LIG1        0.2170
     34 C           3.9028    9.7027   -0.0001 C.ar    1  LIG1        0.2697
     35 C           2.7487   10.4588   -0.0002 C.ar    1  LIG1        0.2247
     36 O           1.6292    9.6260   -0.0003 O.2     1  LIG1       -0.4405
     37 O           4.2837    7.2872   -0.0000 O.3     1  LIG1       -0.4882
     38 C           3.5098    6.0847   -0.0001 C.3     1  LIG1        0.0791
     39 H           4.1651    5.2388   -0.0002 H       1  LIG1        0.0660
     40 H           2.8927    6.0577    0.8737 H       1  LIG1        0.0660
     41 H           2.8926    6.0578   -0.8736 H       1  LIG1        0.0660
     42 O           5.1320   10.1260   -0.0001 O.3     1  LIG1       -0.2798
     43 C           6.0222    9.0068   -0.0002 C.3     2  LIG2       -0.0681
     44 H           7.0338    9.3557   -0.0003 H       1  LIG1        0.0227
     45 H           5.8496    8.4137    0.8736 H       1  LIG1        0.0227
     46 H           5.8494    8.4137   -0.8737 H       1  LIG1        0.0227
     47 C           2.4738   11.7294   -0.0002 C.ar    1  LIG1        0.2188
     48 C           3.2115   12.8951   -0.0002 C.ar    1  LIG1        0.2111
     49 C           2.2609   13.9875   -0.0002 C.ar    1  LIG1        0.2004
     50 C           1.0048   13.4165   -0.0003 C.ar    1  LIG1        0.1381
     51 O           1.1100   12.0252   -0.0004 O.2     1  LIG1       -0.4521
     52 H          -0.2159   13.8636   -0.0003 H       1  LIG1        0.1069
     53 O           4.5057   13.0177   -0.0001 O.3     1  LIG1       -0.4883
     54 C           5.1080   11.7208   -0.0001 C.3     1  LIG1        0.0791
     55 H           6.1732   11.8222   -0.0002 H       1  LIG1        0.0660
     56 H           4.8009   11.1848    0.8736 H       1  LIG1        0.0660
     57 H           4.8007   11.1848   -0.8737 H       1  LIG1        0.0660
     58 O           2.5604   15.2525   -0.0002 O.3     1  LIG1       -0.4888
     59 C           3.9821   15.4063   -0.0002 C.3     1  LIG1        0.0791
     60 H           4.2283   16.4477   -0.0004 H       1  LIG1        0.0660
     61 H           4.3911   14.9434    0.8735 H       1  LIG1        0.0660
     62 H           4.3910   14.9431   -0.8738 H       1  LIG1        0.0660
@<TRIPOS>BOND
     1    62    59    1
     2    31    28    1
     3    46    43    1
     4    57    54    1
     5    26    23    1
     6    41    38    1
     7    16    13    1
     8    11     8    1
     9    51    50   ar
    10    51    47   ar
    11    60    59    1
    12    29    28    1
    13    36    35   ar
    14    36    32   ar
    15    44    43    1
    16    50    52    1
    17    50    49   ar
    18    21    20   ar
    19    21    17   ar
    20    59    58    1
    21    59    61    1
    22    14    13    1
    23    55    54    1
    24    35    47    1
    25    35    34   ar
    26    47    48   ar
    27     5     4   ar
    28     5     1   ar
    29    24    23    1
    30    28    27    1
    31    28    30    1
    32    48    49   ar
    33    48    53    1
    34    49    58    1
    35    20    32    1
    36    20    19   ar
    37    39    38    1
    38    43    45    1
    39    32    33   ar
    40    33    34   ar
    41    33    37    1
    42    54    53    1
    43    54    56    1
    44    18    19   ar
    45    18    17   ar
    46    18    22    1
    47    27    19    1
    48    34    42    1
    49     4    17    1
    50     4     3   ar
    51    23    22    1
    52    23    25    1
    53    38    37    1
    54    38    40    1
    55    13    12    1
    56    13    15    1
    57     9     8    1
    58     6     1    1
    59     3     2   ar
    60     3    12    1
    61     1     2   ar
    62     2     7    1
    63     8     7    1
    64     8    10    1
