@<TRIPOS>MOLECULE
mol_data/noopt/geoms/mol2/12ll12ll12ll-12ll.out
 62 64 0 0 0
SMALL
GASTEIGER

@<TRIPOS>ATOM
      1 C           0.1763    1.8460    0.0000 C.ar    1  LIG1        0.1383
      2 C           1.5558    1.8460    0.0000 C.ar    1  LIG1        0.2055
      3 C           1.9706    3.2334    0.0000 C.ar    1  LIG1        0.2689
      4 C           0.8165    3.9895   -0.0001 C.ar    1  LIG1        0.2237
      5 O          -0.3030    3.1567   -0.0002 O.2     1  LIG1       -0.4519
      6 H          -0.7504    0.9343    0.0000 H       1  LIG1        0.1069
      7 O           2.3515    0.8179    0.0001 O.3     1  LIG1       -0.4887
      8 C           1.5776   -0.3846    0.0001 C.3     1  LIG1        0.0791
      9 H           2.2328   -1.2305   -0.0000 H       1  LIG1        0.0660
     10 H           0.9604   -0.4116    0.8738 H       1  LIG1        0.0660
     11 H           0.9604   -0.4115   -0.8735 H       1  LIG1        0.0660
     12 O           3.1998    3.6567   -0.0000 O.3     1  LIG1       -0.2798
     13 C           4.0900    2.5376   -0.0001 C.3     2  LIG2       -0.0681
     14 H           5.1015    2.8864   -0.0002 H       1  LIG1        0.0227
     15 H           3.9174    1.9445    0.8737 H       1  LIG1        0.0227
     16 H           3.9171    1.9444   -0.8736 H       1  LIG1        0.0227
     17 C           0.5416    5.2601   -0.0001 C.ar    1  LIG1        0.2198
     18 C           1.2792    6.4258   -0.0001 C.ar    1  LIG1        0.2119
     19 C           0.3286    7.5182   -0.0001 C.ar    1  LIG1        0.2119
     20 C          -0.9274    6.9472   -0.0002 C.ar    1  LIG1        0.2197
     21 O          -0.8223    5.5559   -0.0003 O.2     1  LIG1       -0.4407
     22 O           2.5735    6.5485   -0.0000 O.3     1  LIG1       -0.4883
     23 C           3.1758    5.2515   -0.0000 C.3     1  LIG1        0.0791
     24 H           4.2410    5.3529   -0.0001 H       1  LIG1        0.0660
     25 H           2.8686    4.7155    0.8737 H       1  LIG1        0.0660
     26 H           2.8685    4.7155   -0.8736 H       1  LIG1        0.0660
     27 O           0.6282    8.7833   -0.0001 O.3     1  LIG1       -0.4883
     28 C           2.0499    8.9371   -0.0002 C.3     1  LIG1        0.0791
     29 H           2.2960    9.9784   -0.0003 H       1  LIG1        0.0660
     30 H           2.4588    8.4741    0.8736 H       1  LIG1        0.0660
     31 H           2.4588    8.4738   -0.8737 H       1  LIG1        0.0660
     32 C          -2.1481    7.3943   -0.0002 C.ar    1  LIG1        0.2197
     33 C          -3.4042    6.8241   -0.0002 C.ar    1  LIG1        0.2119
     34 C          -4.3554    7.9160   -0.0002 C.ar    1  LIG1        0.2119
     35 C          -3.6171    9.0815   -0.0003 C.ar    1  LIG1        0.2196
     36 O          -2.2534    8.7859   -0.0004 O.2     1  LIG1       -0.4407
     37 O          -3.7038    5.5591   -0.0001 O.3     1  LIG1       -0.4883
     38 C          -5.1255    5.4052   -0.0002 C.3     1  LIG1        0.0791
     39 H          -5.3716    4.3639   -0.0003 H       1  LIG1        0.0660
     40 H          -5.5344    5.8683    0.8735 H       1  LIG1        0.0660
     41 H          -5.5343    5.8684   -0.8738 H       1  LIG1        0.0660
     42 O          -5.6497    7.7933   -0.0002 O.3     1  LIG1       -0.4883
     43 C          -6.2520    9.0903   -0.0003 C.3     1  LIG1        0.0791
     44 H          -7.3172    8.9889   -0.0005 H       1  LIG1        0.0660
     45 H          -5.9449    9.6262    0.8735 H       1  LIG1        0.0660
     46 H          -5.9446    9.6263   -0.8738 H       1  LIG1        0.0660
     47 C          -3.8920   10.3521   -0.0003 C.ar    1  LIG1        0.2186
     48 C          -3.1543   11.5178   -0.0002 C.ar    1  LIG1        0.2111
     49 C          -4.1049   12.6102   -0.0002 C.ar    1  LIG1        0.2004
     50 C          -5.3610   12.0393   -0.0003 C.ar    1  LIG1        0.1381
     51 O          -5.2558   10.6479   -0.0004 O.2     1  LIG1       -0.4521
     52 H          -6.5817   12.4864   -0.0003 H       1  LIG1        0.1069
     53 O          -1.8601   11.6405   -0.0001 O.3     1  LIG1       -0.4883
     54 C          -1.2578   10.3435   -0.0002 C.3     1  LIG1        0.0791
     55 H          -0.1926   10.4449   -0.0003 H       1  LIG1        0.0660
     56 H          -1.5649    9.8076    0.8736 H       1  LIG1        0.0660
     57 H          -1.5651    9.8075   -0.8737 H       1  LIG1        0.0660
     58 O          -3.8054   13.8753   -0.0002 O.3     1  LIG1       -0.4888
     59 C          -2.3837   14.0291   -0.0003 C.3     1  LIG1        0.0791
     60 H          -2.1375   15.0704   -0.0004 H       1  LIG1        0.0660
     61 H          -1.9747   13.5661    0.8735 H       1  LIG1        0.0660
     62 H          -1.9748   13.5659   -0.8738 H       1  LIG1        0.0660
@<TRIPOS>BOND
     1    46    43    1
     2    62    59    1
     3    41    38    1
     4    57    54    1
     5    31    28    1
     6    16    13    1
     7    26    23    1
     8    11     8    1
     9    44    43    1
    10    51    50   ar
    11    51    47   ar
    12    60    59    1
    13    36    35   ar
    14    36    32   ar
    15    29    28    1
    16    50    52    1
    17    50    49   ar
    18    21    20   ar
    19    21    17   ar
    20    39    38    1
    21    43    42    1
    22    43    45    1
    23    35    47    1
    24    35    34   ar
    25    55    54    1
    26    59    58    1
    27    59    61    1
    28    47    48   ar
    29    14    13    1
    30    48    49   ar
    31    48    53    1
    32    33    34   ar
    33    33    32   ar
    34    33    37    1
    35    42    34    1
    36    49    58    1
    37    32    20    1
    38     5     4   ar
    39     5     1   ar
    40    20    19   ar
    41    38    37    1
    42    38    40    1
    43    54    53    1
    44    54    56    1
    45    28    27    1
    46    28    30    1
    47    24    23    1
    48    27    19    1
    49     4    17    1
    50     4     3   ar
    51    19    18   ar
    52    18    17   ar
    53    18    22    1
    54    13    15    1
    55    23    22    1
    56    23    25    1
    57     9     8    1
    58     3    12    1
    59     3     2   ar
    60     6     1    1
    61     2     1   ar
    62     2     7    1
    63     8     7    1
    64     8    10    1
