@<TRIPOS>MOLECULE
mol_data/noopt/geoms/mol2/12ll12ll-.out
 32 33 0 0 0
SMALL
GASTEIGER

@<TRIPOS>ATOM
      1 C           0.1763    1.8460    0.0000 C.ar    1  LIG1        0.1381
      2 C           1.5558    1.8460    0.0000 C.ar    1  LIG1        0.2004
      3 C           1.9706    3.2334    0.0000 C.ar    1  LIG1        0.2111
      4 C           0.8165    3.9895   -0.0001 C.ar    1  LIG1        0.2186
      5 O          -0.3030    3.1567   -0.0002 O.2     1  LIG1       -0.4521
      6 H          -0.7504    0.9343    0.0000 H       1  LIG1        0.1069
      7 O           2.3515    0.8179    0.0001 O.3     1  LIG1       -0.4888
      8 C           1.5776   -0.3846    0.0001 C.3     1  LIG1        0.0791
      9 H           2.2328   -1.2305   -0.0000 H       1  LIG1        0.0660
     10 H           0.9604   -0.4116    0.8738 H       1  LIG1        0.0660
     11 H           0.9604   -0.4115   -0.8735 H       1  LIG1        0.0660
     12 O           3.1998    3.6567   -0.0000 O.3     1  LIG1       -0.4883
     13 C           4.0900    2.5376   -0.0001 C.3     1  LIG1        0.0791
     14 H           5.1015    2.8864   -0.0002 H       1  LIG1        0.0660
     15 H           3.9174    1.9445    0.8737 H       1  LIG1        0.0660
     16 H           3.9171    1.9444   -0.8736 H       1  LIG1        0.0660
     17 C           0.5416    5.2601   -0.0001 C.ar    1  LIG1        0.2186
     18 C          -0.6119    6.0167   -0.0001 C.ar    1  LIG1        0.2111
     19 C          -0.1979    7.4043   -0.0001 C.ar    1  LIG1        0.2004
     20 C           1.1818    7.4036   -0.0002 C.ar    1  LIG1        0.1381
     21 O           1.6612    6.0932   -0.0003 O.2     1  LIG1       -0.4521
     22 H           2.1085    8.3153   -0.0002 H       1  LIG1        0.1069
     23 O          -1.8411    5.5933   -0.0000 O.3     1  LIG1       -0.4883
     24 C          -2.7313    6.7125   -0.0001 C.3     1  LIG1        0.0791
     25 H          -3.7429    6.3637   -0.0002 H       1  LIG1        0.0660
     26 H          -2.5587    7.3056    0.8736 H       1  LIG1        0.0660
     27 H          -2.5585    7.3057   -0.8737 H       1  LIG1        0.0660
     28 O          -0.9936    8.4324   -0.0001 O.3     1  LIG1       -0.4888
     29 C          -0.2197    9.6349   -0.0002 C.3     1  LIG1        0.0791
     30 H          -0.8750   10.4808   -0.0004 H       1  LIG1        0.0660
     31 H           0.3974    9.6619    0.8736 H       1  LIG1        0.0660
     32 H           0.3976    9.6617   -0.8737 H       1  LIG1        0.0660
@<TRIPOS>BOND
     1    32    29    1
     2    27    24    1
     3    16    13    1
     4    11     8    1
     5    30    29    1
     6    21    20   ar
     7    21    17   ar
     8    14    13    1
     9     5     4   ar
    10     5     1   ar
    11    25    24    1
    12    29    28    1
    13    29    31    1
    14    20    22    1
    15    20    19   ar
    16    18    19   ar
    17    18    17   ar
    18    18    23    1
    19    28    19    1
    20    17     4    1
    21     4     3   ar
    22    24    23    1
    23    24    26    1
    24    13    12    1
    25    13    15    1
    26     9     8    1
    27     1     6    1
    28     1     2   ar
    29    12     3    1
    30     3     2   ar
    31     2     7    1
    32     8     7    1
    33     8    10    1
