@<TRIPOS>MOLECULE
mol_data/noopt/geoms/mol2/12ll4ae(160)13ea(330)12fi(200).out
 50 55 0 0 0
SMALL
GASTEIGER

@<TRIPOS>ATOM
      1 C           0.1763    1.8460    0.0000 C.ar    1  LIG1        0.1379
      2 C           1.5558    1.8460    0.0000 C.ar    1  LIG1        0.2003
      3 C           1.9706    3.2334    0.0000 C.ar    1  LIG1        0.2078
      4 C           0.8165    3.9895   -0.0001 C.ar    1  LIG1        0.1800
      5 O          -0.3030    3.1567   -0.0002 O.2     1  LIG1       -0.4554
      6 H          -0.7504    0.9343    0.0000 H       1  LIG1        0.1069
      7 O           2.3515    0.8179    0.0001 O.3     1  LIG1       -0.4888
      8 C           1.5776   -0.3846    0.0001 C.3     1  LIG1        0.0791
      9 H           2.2328   -1.2305   -0.0000 H       1  LIG1        0.0660
     10 H           0.9604   -0.4116    0.8738 H       1  LIG1        0.0660
     11 H           0.9604   -0.4115   -0.8735 H       1  LIG1        0.0660
     12 O           3.1998    3.6567   -0.0000 O.3     1  LIG1       -0.4884
     13 C           4.0900    2.5376   -0.0001 C.3     1  LIG1        0.0791
     14 H           5.1015    2.8864   -0.0002 H       1  LIG1        0.0660
     15 H           3.9174    1.9445    0.8737 H       1  LIG1        0.0660
     16 H           3.9171    1.9444   -0.8736 H       1  LIG1        0.0660
     17 C          -0.7299    5.7037    0.4173 C.ar    1  LIG1       -0.0503
     18 C          -0.9788    7.0897    0.3975 C.ar    1  LIG1       -0.0514
     19 C           0.5416    5.2600   -0.0001 C.ar    1  LIG1        0.0216
     20 C          -0.0059    7.9958   -0.0185 C.ar    1  LIG1        0.0063
     21 H          -1.9533    7.4535    0.7153 H       1  LIG1        0.0624
     22 C           1.5132    6.1642   -0.4155 C.ar    1  LIG1       -0.0429
     23 C           1.2470    7.5373   -0.4276 C.ar    1  LIG1       -0.0115
     24 H           2.4860    5.7973   -0.7327 H       1  LIG1        0.0631
     25 H          -1.6772    4.9075    0.8159 H       1  LIG1        0.0625
     26 C           2.1591    8.3778   -0.8170 C.ar    1  LIG1       -0.0312
     27 C           3.0019    9.1544   -1.1769 C.3     1  LIG1       -0.0002
     28 H           3.7526    9.8462   -1.4974 H       1  LIG1        0.0361
     29 C          -0.2696    9.2687   -0.0240 C.ar    1  LIG1        0.0551
     30 C           0.4463   10.3156   -0.5133 C.ar    1  LIG1        0.0047
     31 C          -0.3059   11.5063   -0.2545 C.ar    1  LIG1       -0.0252
     32 C          -1.4492   11.1345    0.3801 C.ar    1  LIG1        0.0868
     33 N          -1.4308    9.7655    0.5236 N.ar    1  LIG1       -0.3512
     34 H          -2.1433    9.2219    0.9538 H       1  LIG1        0.1660
     35 C           1.6016   10.2450   -1.1053 C.ar    1  LIG1       -0.0299
     36 C           2.6690   10.1798   -1.6522 C.3     1  LIG1       -0.0001
     37 H           3.6199   10.1217   -2.1394 H       1  LIG1        0.0361
     38 H           0.0375   12.7205   -0.5675 H       1  LIG1        0.0646
     39 C          -2.4428   11.8504    0.8165 C.ar    1  LIG1        0.1923
     40 C          -3.8132   11.7016    0.8698 C.ar    1  LIG1        0.1670
     41 C          -4.3363   12.8982    1.4955 C.ar    1  LIG1        0.0295
     42 C          -3.2502   13.6991    1.7832 C.ar    1  LIG1        0.0992
     43 O          -2.0715   13.0746    1.3741 O.2     1  LIG1       -0.4574
     44 H          -3.0788   14.8656    2.3309 H       1  LIG1        0.1033
     45 O          -4.5214   10.6960    0.4487 O.3     1  LIG1       -0.5030
     46 H          -3.9561    9.9271    0.3450 H       1  LIG1        0.2923
     47 C          -5.5915   13.1445    1.7290 C.3     1  LIG1       -0.0332
     48 H          -6.0151   12.3373    2.2893 H       1  LIG1        0.0280
     49 H          -6.1137   13.2469    0.8007 H       1  LIG1        0.0280
     50 H          -5.6787   14.0520    2.2893 H       1  LIG1        0.0280
@<TRIPOS>BOND
     1    37    36    1
     2    36    27    1
     3    36    35    1
     4    28    27    1
     5    27    26    1
     6    35    26   ar
     7    35    30   ar
     8    16    13    1
     9    11     8    1
    10    26    23   ar
    11    24    22    1
    12    38    31    1
    13    30    31   ar
    14    30    29   ar
    15    23    22   ar
    16    23    20   ar
    17    22    19   ar
    18    31    32   ar
    19    29    20   ar
    20    29    33   ar
    21    20    18   ar
    22    14    13    1
    23     5     4   ar
    24     5     1   ar
    25    19     4    1
    26    19    17   ar
    27     4     3   ar
    28    13    12    1
    29    13    15    1
    30     9     8    1
    31     1     2   ar
    32     1     6    1
    33    12     3    1
    34     2     3   ar
    35     2     7    1
    36     8     7    1
    37     8    10    1
    38    46    45    1
    39    32    33   ar
    40    32    39    1
    41    18    17   ar
    42    18    21    1
    43    17    25    1
    44    45    40    1
    45    33    34    1
    46    49    47    1
    47    39    40   ar
    48    39    43   ar
    49    40    41   ar
    50    43    42   ar
    51    41    47    1
    52    41    42   ar
    53    47    50    1
    54    47    48    1
    55    42    44    1
