@<TRIPOS>MOLECULE
mol_data/noopt/geoms/mol2/12ll4df-13dl6el.out
 57 60 0 0 0
SMALL
GASTEIGER

@<TRIPOS>ATOM
      1 C           0.1763    1.8460    0.0000 C.ar    1  LIG1        0.1379
      2 C           1.5558    1.8460    0.0000 C.ar    1  LIG1        0.2003
      3 C           1.9706    3.2334    0.0000 C.ar    1  LIG1        0.2079
      4 C           0.8165    3.9895   -0.0001 C.ar    1  LIG1        0.1814
      5 O          -0.3030    3.1567   -0.0002 O.2     1  LIG1       -0.4553
      6 H          -0.7504    0.9343    0.0000 H       1  LIG1        0.1069
      7 O           2.3515    0.8179    0.0001 O.3     1  LIG1       -0.4888
      8 C           1.5776   -0.3846    0.0001 C.3     1  LIG1        0.0791
      9 H           2.2328   -1.2305   -0.0000 H       1  LIG1        0.0660
     10 H           0.9604   -0.4116    0.8738 H       1  LIG1        0.0660
     11 H           0.9604   -0.4115   -0.8735 H       1  LIG1        0.0660
     12 O           3.1998    3.6567   -0.0000 O.3     1  LIG1       -0.4884
     13 C           4.0900    2.5376   -0.0001 C.3     1  LIG1        0.0791
     14 H           5.1015    2.8864   -0.0002 H       1  LIG1        0.0660
     15 H           3.9174    1.9445    0.8737 H       1  LIG1        0.0660
     16 H           3.9171    1.9444   -0.8736 H       1  LIG1        0.0660
     17 C           1.5877    6.2051    0.0220 C.ar    1  LIG1        0.0634
     18 C           1.2377    7.5692    0.0226 C.ar    1  LIG1       -0.0310
     19 C           0.5416    5.2600   -0.0001 C.ar    1  LIG1        0.0418
     20 C          -0.0943    7.9766    0.0015 C.ar    1  LIG1        0.0423
     21 H           2.0291    8.3151    0.0396 H       1  LIG1        0.0638
     22 C          -0.7883    5.6663   -0.0212 C.ar    1  LIG1       -0.0075
     23 C          -1.1157    7.0262   -0.0206 C.ar    1  LIG1        0.1267
     24 H          -1.5769    4.9183   -0.0379 H       1  LIG1        0.0662
     25 N           3.9594    5.6056    0.0596 N.1     1  LIG1       -0.1908
     26 C           2.8479    5.8865    0.0420 C.1     1  LIG1        0.0999
     27 O          -2.3607    7.4000   -0.0402 O.3     1  LIG1       -0.5061
     28 H          -2.9278    6.6254   -0.0450 H       1  LIG1        0.2922
     29 C          -0.3816    9.2445    0.0026 C.ar    1  LIG1        0.0717
     30 C           0.4324   10.3332    0.0195 C.ar    1  LIG1        0.1192
     31 C          -0.4060   11.4941    0.0129 C.ar    1  LIG1        0.1632
     32 C          -1.6954   11.0638   -0.0095 C.ar    1  LIG1        0.0933
     33 N          -1.6849    9.6872   -0.0155 N.ar    1  LIG1       -0.3500
     34 H          -2.4906    9.1052   -0.0311 H       1  LIG1        0.1661
     35 N           2.8785   10.3065    0.0574 N.1     1  LIG1       -0.1907
     36 C           1.7321   10.3190    0.0397 C.1     1  LIG1        0.1050
     37 O          -0.0108   12.7326    0.0256 O.3     1  LIG1       -0.4917
     38 C           1.4185   12.7774    0.0301 C.3     1  LIG1        0.0789
     39 H           1.7433   13.7969    0.0404 H       1  LIG1        0.0660
     40 H           1.7883   12.2765    0.9004 H       1  LIG1        0.0660
     41 H           1.7934   12.2925   -0.8468 H       1  LIG1        0.0660
     42 C          -4.0444   11.0627   -0.0307 C.ar    1  LIG1        0.1226
     43 C          -2.8085   11.7351   -0.0233 C.ar    1  LIG1        0.0392
     44 C          -2.8090   13.1311   -0.0308 C.ar    1  LIG1       -0.0065
     45 C          -4.0328   13.8026   -0.0454 C.ar    1  LIG1        0.1388
     46 C          -5.2162   13.0417   -0.0520 C.ar    1  LIG1        0.0706
     47 N          -5.2341   11.6945   -0.0448 N.ar    1  LIG1       -0.2424
     48 H          -1.8631   13.6910   -0.0264 H       1  LIG1        0.0662
     49 H          -6.3798   13.6211   -0.0656 H       1  LIG1        0.0867
     50 C          -4.0954    9.7637   -0.0241 C.1     1  LIG1       -0.0491
     51 C          -4.1426    8.5635   -0.0180 C.1     1  LIG1       -0.1124
     52 H          -4.1846    7.4943   -0.0126 H       1  LIG1        0.1232
     53 O          -4.0866   15.1015   -0.0530 O.3     1  LIG1       -0.4936
     54 C          -2.7595   15.6342   -0.0559 C.3     1  LIG1        0.0789
     55 H          -2.8042   16.7032   -0.0623 H       1  LIG1        0.0660
     56 H          -2.2408   15.3042    0.8199 H       1  LIG1        0.0660
     57 H          -2.2404   15.2937   -0.9273 H       1  LIG1        0.0660
@<TRIPOS>BOND
     1    57    54    1
     2    16    13    1
     3    11     8    1
     4    41    38    1
     5    49    46    1
     6    55    54    1
     7    54    53    1
     8    54    56    1
     9    53    45    1
    10    46    45   ar
    11    46    47   ar
    12    45    44   ar
    13    28    27    1
    14    47    42   ar
    15    27    23    1
    16    24    22    1
    17    34    33    1
    18    44    48    1
    19    44    43   ar
    20    42    50    1
    21    42    43   ar
    22    50    51    3
    23    43    32    1
    24    22    23   ar
    25    22    19   ar
    26    23    20   ar
    27    51    52    1
    28    33    32   ar
    29    33    29   ar
    30    32    31   ar
    31    14    13    1
    32     5     4   ar
    33     5     1   ar
    34    19     4    1
    35    19    17   ar
    36     4     3   ar
    37    13    12    1
    38    13    15    1
    39     9     8    1
    40     1     2   ar
    41     1     6    1
    42     2     3   ar
    43     2     7    1
    44     3    12    1
    45     8     7    1
    46     8    10    1
    47    20    29    1
    48    20    18   ar
    49    29    30   ar
    50    31    30   ar
    51    31    37    1
    52    30    36    1
    53    17    18   ar
    54    17    26    1
    55    18    21    1
    56    37    38    1
    57    38    39    1
    58    38    40    1
    59    36    35    3
    60    26    25    3
