@<TRIPOS>MOLECULE
mol_data/noopt/geoms/mol2/12ll4al(70)12fi(260)13ah(50).out
 52 55 0 0 0
SMALL
GASTEIGER

@<TRIPOS>ATOM
      1 C           0.1763    1.8460    0.0000 C.ar    1  LIG1        0.1379
      2 C           1.5558    1.8460    0.0000 C.ar    1  LIG1        0.2003
      3 C           1.9706    3.2334    0.0000 C.ar    1  LIG1        0.2078
      4 C           0.8165    3.9895   -0.0001 C.ar    1  LIG1        0.1801
      5 O          -0.3030    3.1567   -0.0002 O.2     1  LIG1       -0.4554
      6 H          -0.7504    0.9343    0.0000 H       1  LIG1        0.1069
      7 O           2.3515    0.8179    0.0001 O.3     1  LIG1       -0.4888
      8 C           1.5776   -0.3846    0.0001 C.3     1  LIG1        0.0791
      9 H           2.2328   -1.2305   -0.0000 H       1  LIG1        0.0660
     10 H           0.9604   -0.4116    0.8738 H       1  LIG1        0.0660
     11 H           0.9604   -0.4115   -0.8735 H       1  LIG1        0.0660
     12 O           3.1998    3.6567   -0.0000 O.3     1  LIG1       -0.4884
     13 C           4.0900    2.5376   -0.0001 C.3     1  LIG1        0.0791
     14 H           5.1015    2.8864   -0.0002 H       1  LIG1        0.0660
     15 H           3.9174    1.9445    0.8737 H       1  LIG1        0.0660
     16 H           3.9171    1.9444   -0.8736 H       1  LIG1        0.0660
     17 C           0.8011    6.0349    1.1489 C.ar    1  LIG1       -0.0501
     18 C           0.4841    7.4062    1.0990 C.ar    1  LIG1       -0.0468
     19 C           0.5416    5.2600   -0.0001 C.ar    1  LIG1        0.0245
     20 C          -0.0662    7.9827   -0.0435 C.ar    1  LIG1        0.0626
     21 H           0.6760    8.0224    1.9746 H       1  LIG1        0.0626
     22 C          -0.0078    5.8351   -1.1409 C.ar    1  LIG1       -0.0085
     23 C          -0.3154    7.1993   -1.1711 C.ar    1  LIG1        0.1315
     24 H          -0.1986    5.2165   -2.0142 H       1  LIG1        0.0661
     25 H           1.3128    5.5544    2.2430 H       1  LIG1        0.0625
     26 O          -0.8290    7.7314   -2.2403 O.3     1  LIG1       -0.4944
     27 C          -0.0477    8.8629   -2.6329 C.3     1  LIG1        0.0788
     28 H          -0.4707    9.3004   -3.5130 H       1  LIG1        0.0660
     29 H          -0.0430    9.5845   -1.8428 H       1  LIG1        0.0660
     30 H           0.9552    8.5505   -2.8365 H       1  LIG1        0.0660
     31 C          -0.3465    9.2521   -0.0549 C.ar    1  LIG1        0.1807
     32 C          -0.7432   10.1630   -1.0119 C.ar    1  LIG1        0.1664
     33 C          -0.8835   11.4374   -0.3387 C.ar    1  LIG1        0.0389
     34 C          -0.5632   11.2205    0.9857 C.ar    1  LIG1        0.1583
     35 O          -0.2288    9.8807    1.1855 O.2     1  LIG1       -0.4492
     36 O          -0.9563    9.9471   -2.2761 O.3     1  LIG1       -0.5030
     37 H          -0.3647    9.2582   -2.5876 H       1  LIG1        0.2923
     38 C          -1.2434   12.5545   -0.8984 C.3     1  LIG1       -0.0325
     39 H          -2.2403   12.7997   -0.5966 H       1  LIG1        0.0280
     40 H          -1.2091   12.4476   -1.9625 H       1  LIG1        0.0280
     41 H          -0.5771   13.3355   -0.5966 H       1  LIG1        0.0280
     42 C          -0.5035   11.9552    2.0565 C.ar    1  LIG1        0.0843
     43 C           0.1812   11.7699    3.2162 C.ar    1  LIG1       -0.0127
     44 C          -0.1085   12.8849    4.0667 C.ar    1  LIG1        0.0428
     45 C          -0.9561   13.7034    3.3888 C.ar    1  LIG1        0.0231
     46 N          -1.2009   13.1378    2.1577 N.ar    1  LIG1       -0.3566
     47 H          -1.7875   13.5225    1.4536 H       1  LIG1        0.1655
     48 H          -1.4986   14.8320    3.7381 H       1  LIG1        0.0826
     49 H           0.9544   10.7635    3.4981 H       1  LIG1        0.0658
     50 N           0.3523   13.0818    5.2663 N.pl3   1  LIG1       -0.3568
     51 H           1.1913   12.5523    5.3921 H       1  LIG1        0.1424
     52 H           0.5497   14.0540    5.3921 H       1  LIG1        0.1424
@<TRIPOS>BOND
     1    28    27    1
     2    30    27    1
     3    27    26    1
     4    27    29    1
     5    37    36    1
     6    36    32    1
     7    26    23    1
     8    24    22    1
     9    40    38    1
    10    23    22   ar
    11    23    20   ar
    12    22    19   ar
    13    32    33   ar
    14    32    31   ar
    15    38    41    1
    16    38    39    1
    17    38    33    1
    18    16    13    1
    19    11     8    1
    20    33    34   ar
    21    31    20    1
    22    31    35   ar
    23    20    18   ar
    24    14    13    1
    25     5     4   ar
    26     5     1   ar
    27    19     4    1
    28    19    17   ar
    29     4     3   ar
    30    13    12    1
    31    13    15    1
    32     9     8    1
    33     1     6    1
    34     1     2   ar
    35    12     3    1
    36     3     2   ar
    37     2     7    1
    38     8     7    1
    39     8    10    1
    40    34    35   ar
    41    34    42    1
    42    18    17   ar
    43    18    21    1
    44    17    25    1
    45    47    46    1
    46    42    46   ar
    47    42    43   ar
    48    46    45   ar
    49    43    49    1
    50    43    44   ar
    51    45    48    1
    52    45    44   ar
    53    44    50    1
    54    50    51    1
    55    50    52    1
