@<TRIPOS>MOLECULE
mol_data/noopt/geoms/mol2/12ll12ll-12ll12ll-.out
 62 65 0 0 0
SMALL
GASTEIGER

@<TRIPOS>ATOM
      1 C           0.1763    1.8460    0.0000 C.ar    1  LIG1        0.1381
      2 C           1.5558    1.8460    0.0000 C.ar    1  LIG1        0.2004
      3 C           1.9706    3.2334    0.0000 C.ar    1  LIG1        0.2111
      4 C           0.8165    3.9895   -0.0001 C.ar    1  LIG1        0.2186
      5 O          -0.3030    3.1567   -0.0002 O.2     1  LIG1       -0.4521
      6 H          -0.7504    0.9343    0.0000 H       1  LIG1        0.1069
      7 O           2.3515    0.8179    0.0001 O.3     1  LIG1       -0.4888
      8 C           1.5776   -0.3846    0.0001 C.3     1  LIG1        0.0791
      9 H           2.2328   -1.2305   -0.0000 H       1  LIG1        0.0660
     10 H           0.9604   -0.4116    0.8738 H       1  LIG1        0.0660
     11 H           0.9604   -0.4115   -0.8735 H       1  LIG1        0.0660
     12 O           3.1998    3.6567   -0.0000 O.3     1  LIG1       -0.4883
     13 C           4.0900    2.5376   -0.0001 C.3     1  LIG1        0.0791
     14 H           5.1015    2.8864   -0.0002 H       1  LIG1        0.0660
     15 H           3.9174    1.9445    0.8737 H       1  LIG1        0.0660
     16 H           3.9171    1.9444   -0.8736 H       1  LIG1        0.0660
     17 C           0.5416    5.2601   -0.0001 C.ar    1  LIG1        0.2196
     18 C          -0.6119    6.0167   -0.0001 C.ar    1  LIG1        0.2119
     19 C          -0.1979    7.4043   -0.0001 C.ar    1  LIG1        0.2119
     20 C           1.1818    7.4036   -0.0002 C.ar    1  LIG1        0.2197
     21 O           1.6612    6.0932   -0.0003 O.2     1  LIG1       -0.4407
     22 O          -1.8411    5.5933   -0.0000 O.3     1  LIG1       -0.4883
     23 C          -2.7313    6.7125   -0.0001 C.3     1  LIG1        0.0791
     24 H          -3.7429    6.3637   -0.0002 H       1  LIG1        0.0660
     25 H          -2.5587    7.3056    0.8736 H       1  LIG1        0.0660
     26 H          -2.5585    7.3057   -0.8737 H       1  LIG1        0.0660
     27 O          -0.9936    8.4324   -0.0001 O.3     1  LIG1       -0.4883
     28 C          -0.2197    9.6349   -0.0002 C.3     1  LIG1        0.0791
     29 H          -0.8750   10.4808   -0.0004 H       1  LIG1        0.0660
     30 H           0.3974    9.6619    0.8736 H       1  LIG1        0.0660
     31 H           0.3976    9.6617   -0.8737 H       1  LIG1        0.0660
     32 C           2.1085    8.3153   -0.0002 C.ar    1  LIG1        0.2197
     33 C           3.4880    8.3153   -0.0001 C.ar    1  LIG1        0.2119
     34 C           3.9028    9.7027   -0.0001 C.ar    1  LIG1        0.2119
     35 C           2.7487   10.4588   -0.0002 C.ar    1  LIG1        0.2196
     36 O           1.6292    9.6260   -0.0003 O.2     1  LIG1       -0.4407
     37 O           4.2837    7.2872   -0.0000 O.3     1  LIG1       -0.4883
     38 C           3.5098    6.0847   -0.0001 C.3     1  LIG1        0.0791
     39 H           4.1651    5.2388   -0.0002 H       1  LIG1        0.0660
     40 H           2.8927    6.0577    0.8737 H       1  LIG1        0.0660
     41 H           2.8926    6.0578   -0.8736 H       1  LIG1        0.0660
     42 O           5.1320   10.1260   -0.0001 O.3     1  LIG1       -0.4883
     43 C           6.0222    9.0068   -0.0002 C.3     1  LIG1        0.0791
     44 H           7.0338    9.3557   -0.0003 H       1  LIG1        0.0660
     45 H           5.8496    8.4137    0.8736 H       1  LIG1        0.0660
     46 H           5.8494    8.4137   -0.8737 H       1  LIG1        0.0660
     47 C           2.4738   11.7294   -0.0002 C.ar    1  LIG1        0.2186
     48 C           1.3203   12.4859   -0.0002 C.ar    1  LIG1        0.2111
     49 C           1.7343   13.8736   -0.0002 C.ar    1  LIG1        0.2004
     50 C           3.1141   13.8729   -0.0003 C.ar    1  LIG1        0.1381
     51 O           3.5935   12.5625   -0.0004 O.2     1  LIG1       -0.4521
     52 H           4.0408   14.7846   -0.0002 H       1  LIG1        0.1069
     53 O           0.0911   12.0626   -0.0001 O.3     1  LIG1       -0.4883
     54 C          -0.7991   13.1818   -0.0002 C.3     1  LIG1        0.0791
     55 H          -1.8106   12.8329   -0.0003 H       1  LIG1        0.0660
     56 H          -0.6265   13.7749    0.8735 H       1  LIG1        0.0660
     57 H          -0.6263   13.7749   -0.8738 H       1  LIG1        0.0660
     58 O           0.9386   14.9017   -0.0002 O.3     1  LIG1       -0.4888
     59 C           1.7125   16.1041   -0.0003 C.3     1  LIG1        0.0791
     60 H           1.0573   16.9500   -0.0004 H       1  LIG1        0.0660
     61 H           2.3296   16.1312    0.8735 H       1  LIG1        0.0660
     62 H           2.3298   16.1310   -0.8738 H       1  LIG1        0.0660
@<TRIPOS>BOND
     1    62    59    1
     2    57    54    1
     3    31    28    1
     4    46    43    1
     5    26    23    1
     6    41    38    1
     7    16    13    1
     8    11     8    1
     9    60    59    1
    10    51    50   ar
    11    51    47   ar
    12    29    28    1
    13    36    35   ar
    14    36    32   ar
    15    44    43    1
    16    55    54    1
    17    21    20   ar
    18    21    17   ar
    19    50    52    1
    20    50    49   ar
    21    59    58    1
    22    59    61    1
    23    14    13    1
    24    35    47    1
    25    35    34   ar
    26    48    47   ar
    27    48    49   ar
    28    48    53    1
    29    24    23    1
    30     5     4   ar
    31     5     1   ar
    32    28    27    1
    33    28    30    1
    34    54    53    1
    35    54    56    1
    36    49    58    1
    37    20    32    1
    38    20    19   ar
    39    39    38    1
    40    43    42    1
    41    43    45    1
    42    32    33   ar
    43    33    34   ar
    44    33    37    1
    45    18    19   ar
    46    18    17   ar
    47    18    22    1
    48    27    19    1
    49    34    42    1
    50    17     4    1
    51     4     3   ar
    52    23    22    1
    53    23    25    1
    54    38    37    1
    55    38    40    1
    56    13    12    1
    57    13    15    1
    58     9     8    1
    59     1     6    1
    60     1     2   ar
    61     3    12    1
    62     3     2   ar
    63     2     7    1
    64     8     7    1
    65     8    10    1
