@<TRIPOS>MOLECULE
mol_data/noopt/geoms/mol2/12ll.out
 17 17 0 0 0
SMALL
GASTEIGER

@<TRIPOS>ATOM
      1 C           0.1763    1.8460    0.0000 C.ar    1  LIG1        0.1370
      2 C           1.5558    1.8460    0.0000 C.ar    1  LIG1        0.1996
      3 C           1.9706    3.2334    0.0000 C.ar    1  LIG1        0.1996
      4 C           0.8165    3.9895   -0.0001 C.ar    1  LIG1        0.1370
      5 O          -0.3030    3.1567   -0.0002 O.2     1  LIG1       -0.4635
      6 H          -0.7504    0.9343    0.0000 H       1  LIG1        0.1069
      7 H           0.5416    5.2601   -0.0001 H       1  LIG1        0.1069
      8 O           2.3515    0.8179    0.0001 O.3     1  LIG1       -0.4888
      9 C           1.5776   -0.3846    0.0001 C.3     1  LIG1        0.0791
     10 H           2.2328   -1.2305   -0.0000 H       1  LIG1        0.0660
     11 H           0.9604   -0.4116    0.8738 H       1  LIG1        0.0660
     12 H           0.9604   -0.4115   -0.8735 H       1  LIG1        0.0660
     13 O           3.1998    3.6567   -0.0000 O.3     1  LIG1       -0.4888
     14 C           4.0900    2.5376   -0.0001 C.3     1  LIG1        0.0791
     15 H           5.1015    2.8864   -0.0002 H       1  LIG1        0.0660
     16 H           3.9174    1.9445    0.8737 H       1  LIG1        0.0660
     17 H           3.9171    1.9444   -0.8736 H       1  LIG1        0.0660
@<TRIPOS>BOND
     1    17    14    1
     2    12     9    1
     3    15    14    1
     4     5     4   ar
     5     5     1   ar
     6     4     7    1
     7     4     3   ar
     8    14    13    1
     9    14    16    1
    10    10     9    1
    11     1     6    1
    12     1     2   ar
    13    13     3    1
    14     3     2   ar
    15     2     8    1
    16     9     8    1
    17     9    11    1
