@<TRIPOS>MOLECULE
mol_data/noopt/geoms/mol2/12ll12ll12ll.out
 47 47 0 0 0
SMALL
GASTEIGER

@<TRIPOS>ATOM
      1 C           0.1763    1.8460    0.0000 C.ar    1  LIG1        0.1383
      2 C           1.5558    1.8460    0.0000 C.ar    1  LIG1        0.2055
      3 C           1.9706    3.2334    0.0000 C.ar    1  LIG1        0.2689
      4 C           0.8165    3.9895   -0.0001 C.ar    1  LIG1        0.2237
      5 O          -0.3030    3.1567   -0.0002 O.2     1  LIG1       -0.4519
      6 H          -0.7504    0.9343    0.0000 H       1  LIG1        0.1069
      7 O           2.3515    0.8179    0.0001 O.3     1  LIG1       -0.4887
      8 C           1.5776   -0.3846    0.0001 C.3     1  LIG1        0.0791
      9 H           2.2328   -1.2305   -0.0000 H       1  LIG1        0.0660
     10 H           0.9604   -0.4116    0.8738 H       1  LIG1        0.0660
     11 H           0.9604   -0.4115   -0.8735 H       1  LIG1        0.0660
     12 O           3.1998    3.6567   -0.0000 O.3     1  LIG1       -0.2798
     13 C           4.0900    2.5376   -0.0001 C.3     2  LIG2       -0.0681
     14 H           5.1015    2.8864   -0.0002 H       1  LIG1        0.0227
     15 H           3.9174    1.9445    0.8737 H       1  LIG1        0.0227
     16 H           3.9171    1.9444   -0.8736 H       1  LIG1        0.0227
     17 C           0.5416    5.2601   -0.0001 C.ar    1  LIG1        0.2200
     18 C           1.2792    6.4258   -0.0001 C.ar    1  LIG1        0.2170
     19 C           0.3286    7.5182   -0.0001 C.ar    1  LIG1        0.2697
     20 C          -0.9274    6.9472   -0.0002 C.ar    1  LIG1        0.2247
     21 O          -0.8223    5.5559   -0.0003 O.2     1  LIG1       -0.4405
     22 O           2.5735    6.5485   -0.0000 O.3     1  LIG1       -0.4882
     23 C           3.1758    5.2515   -0.0000 C.3     1  LIG1        0.0791
     24 H           4.2410    5.3529   -0.0001 H       1  LIG1        0.0660
     25 H           2.8686    4.7155    0.8737 H       1  LIG1        0.0660
     26 H           2.8685    4.7155   -0.8736 H       1  LIG1        0.0660
     27 O           0.6282    8.7833   -0.0001 O.3     1  LIG1       -0.2798
     28 C           2.0499    8.9371   -0.0002 C.3     3  LIG3       -0.0681
     29 H           2.2960    9.9784   -0.0003 H       2  LIG2        0.0227
     30 H           2.4588    8.4741    0.8736 H       2  LIG2        0.0227
     31 H           2.4588    8.4738   -0.8737 H       2  LIG2        0.0227
     32 C          -2.1481    7.3943   -0.0002 C.ar    1  LIG1        0.2188
     33 C          -2.7387    8.6410   -0.0002 C.ar    1  LIG1        0.2111
     34 C          -4.1701    8.4218   -0.0002 C.ar    1  LIG1        0.2004
     35 C          -4.3593    7.0551   -0.0003 C.ar    1  LIG1        0.1381
     36 O          -3.1273    6.4000   -0.0004 O.2     1  LIG1       -0.4521
     37 H          -5.3898    6.2627   -0.0003 H       1  LIG1        0.1069
     38 O          -2.1503    9.8003   -0.0001 O.3     1  LIG1       -0.4883
     39 C          -0.7323    9.6157   -0.0001 C.3     1  LIG1        0.0791
     40 H          -0.2484   10.5701   -0.0002 H       1  LIG1        0.0660
     41 H          -0.4436    9.0696    0.8736 H       1  LIG1        0.0660
     42 H          -0.4437    9.0695   -0.8737 H       1  LIG1        0.0660
     43 O          -5.0790    9.3514   -0.0002 O.3     1  LIG1       -0.4888
     44 C          -4.4487   10.6350   -0.0003 C.3     1  LIG1        0.0791
     45 H          -5.1971   11.3998   -0.0004 H       1  LIG1        0.0660
     46 H          -3.8389   10.7330    0.8735 H       1  LIG1        0.0660
     47 H          -3.8387   10.7328   -0.8738 H       1  LIG1        0.0660
@<TRIPOS>BOND
     1    47    44    1
     2    31    28    1
     3    42    39    1
     4    16    13    1
     5    26    23    1
     6    11     8    1
     7    45    44    1
     8    36    35   ar
     9    36    32   ar
    10    29    28    1
    11    35    37    1
    12    35    34   ar
    13    21    20   ar
    14    21    17   ar
    15    44    43    1
    16    44    46    1
    17    14    13    1
    18    40    39    1
    19    34    33   ar
    20    34    43    1
    21    33    32   ar
    22    33    38    1
    23    32    20    1
    24    20    19   ar
    25     5     4   ar
    26     5     1   ar
    27    28    30    1
    28    39    38    1
    29    39    41    1
    30    24    23    1
    31    27    19    1
    32     4    17    1
    33     4     3   ar
    34    19    18   ar
    35    18    17   ar
    36    18    22    1
    37    13    15    1
    38    23    22    1
    39    23    25    1
    40     9     8    1
    41    12     3    1
    42     2     3   ar
    43     2     1   ar
    44     2     7    1
    45     6     1    1
    46     8     7    1
    47     8    10    1
