@<TRIPOS>MOLECULE
mol_data/noopt/geoms/mol2/12ll12ll12ll12ll-.out
 62 63 0 0 0
SMALL
GASTEIGER

@<TRIPOS>ATOM
      1 C           0.1763    1.8460    0.0000 C.ar    1  LIG1        0.1383
      2 C           1.5558    1.8460    0.0000 C.ar    1  LIG1        0.2055
      3 C           1.9706    3.2334    0.0000 C.ar    1  LIG1        0.2689
      4 C           0.8165    3.9895   -0.0001 C.ar    1  LIG1        0.2237
      5 O          -0.3030    3.1567   -0.0002 O.2     1  LIG1       -0.4519
      6 H          -0.7504    0.9343    0.0000 H       1  LIG1        0.1069
      7 O           2.3515    0.8179    0.0001 O.3     1  LIG1       -0.4887
      8 C           1.5776   -0.3846    0.0001 C.3     1  LIG1        0.0791
      9 H           2.2328   -1.2305   -0.0000 H       1  LIG1        0.0660
     10 H           0.9604   -0.4116    0.8738 H       1  LIG1        0.0660
     11 H           0.9604   -0.4115   -0.8735 H       1  LIG1        0.0660
     12 O           3.1998    3.6567   -0.0000 O.3     1  LIG1       -0.2798
     13 C           4.0900    2.5376   -0.0001 C.3     2  LIG2       -0.0681
     14 H           5.1015    2.8864   -0.0002 H       1  LIG1        0.0227
     15 H           3.9174    1.9445    0.8737 H       1  LIG1        0.0227
     16 H           3.9171    1.9444   -0.8736 H       1  LIG1        0.0227
     17 C           0.5416    5.2601   -0.0001 C.ar    1  LIG1        0.2200
     18 C           1.2792    6.4258   -0.0001 C.ar    1  LIG1        0.2170
     19 C           0.3286    7.5182   -0.0001 C.ar    1  LIG1        0.2697
     20 C          -0.9274    6.9472   -0.0002 C.ar    1  LIG1        0.2247
     21 O          -0.8223    5.5559   -0.0003 O.2     1  LIG1       -0.4405
     22 O           2.5735    6.5485   -0.0000 O.3     1  LIG1       -0.4882
     23 C           3.1758    5.2515   -0.0000 C.3     1  LIG1        0.0791
     24 H           4.2410    5.3529   -0.0001 H       1  LIG1        0.0660
     25 H           2.8686    4.7155    0.8737 H       1  LIG1        0.0660
     26 H           2.8685    4.7155   -0.8736 H       1  LIG1        0.0660
     27 O           0.6282    8.7833   -0.0001 O.3     1  LIG1       -0.2798
     28 C           2.0499    8.9371   -0.0002 C.3     3  LIG3       -0.0681
     29 H           2.2960    9.9784   -0.0003 H       2  LIG2        0.0227
     30 H           2.4588    8.4741    0.8736 H       2  LIG2        0.0227
     31 H           2.4588    8.4738   -0.8737 H       2  LIG2        0.0227
     32 C          -2.1481    7.3943   -0.0002 C.ar    1  LIG1        0.2199
     33 C          -2.7387    8.6410   -0.0002 C.ar    1  LIG1        0.2119
     34 C          -4.1701    8.4218   -0.0002 C.ar    1  LIG1        0.2119
     35 C          -4.3593    7.0551   -0.0003 C.ar    1  LIG1        0.2196
     36 O          -3.1273    6.4000   -0.0004 O.2     1  LIG1       -0.4407
     37 O          -2.1503    9.8003   -0.0001 O.3     1  LIG1       -0.4883
     38 C          -0.7323    9.6157   -0.0001 C.3     1  LIG1        0.0791
     39 H          -0.2484   10.5701   -0.0002 H       1  LIG1        0.0660
     40 H          -0.4436    9.0696    0.8736 H       1  LIG1        0.0660
     41 H          -0.4437    9.0695   -0.8737 H       1  LIG1        0.0660
     42 O          -5.0790    9.3514   -0.0002 O.3     1  LIG1       -0.4883
     43 C          -4.4487   10.6350   -0.0003 C.3     1  LIG1        0.0791
     44 H          -5.1971   11.3998   -0.0004 H       1  LIG1        0.0660
     45 H          -3.8389   10.7330    0.8735 H       1  LIG1        0.0660
     46 H          -3.8387   10.7328   -0.8738 H       1  LIG1        0.0660
     47 C          -5.3898    6.2627   -0.0003 C.ar    1  LIG1        0.2186
     48 C          -5.5796    4.8963   -0.0003 C.ar    1  LIG1        0.2111
     49 C          -7.0109    4.6763   -0.0003 C.ar    1  LIG1        0.2004
     50 C          -7.6010    5.9235   -0.0004 C.ar    1  LIG1        0.1381
     51 O          -6.6221    6.9178   -0.0005 O.2     1  LIG1       -0.4521
     52 H          -8.8217    6.3706   -0.0004 H       1  LIG1        0.1069
     53 O          -4.6708    3.9667   -0.0002 O.3     1  LIG1       -0.4883
     54 C          -5.3010    2.6831   -0.0003 C.3     1  LIG1        0.0791
     55 H          -4.5527    1.9183   -0.0004 H       1  LIG1        0.0660
     56 H          -5.9109    2.5851    0.8734 H       1  LIG1        0.0660
     57 H          -5.9110    2.5852   -0.8739 H       1  LIG1        0.0660
     58 O          -7.5993    3.5171   -0.0003 O.3     1  LIG1       -0.4888
     59 C          -9.0173    3.7016   -0.0004 C.3     1  LIG1        0.0791
     60 H          -9.5012    2.7472   -0.0006 H       1  LIG1        0.0660
     61 H          -9.3060    4.2477    0.8734 H       1  LIG1        0.0660
     62 H          -9.3059    4.2479   -0.8739 H       1  LIG1        0.0660
@<TRIPOS>BOND
     1    62    59    1
     2    57    54    1
     3    46    43    1
     4    31    28    1
     5    41    38    1
     6    16    13    1
     7    26    23    1
     8    11     8    1
     9    60    59    1
    10    51    50   ar
    11    51    47   ar
    12    44    43    1
    13    55    54    1
    14    36    35   ar
    15    36    32   ar
    16    59    58    1
    17    59    61    1
    18    50    52    1
    19    50    49   ar
    20    29    28    1
    21    48    49   ar
    22    48    47   ar
    23    48    53    1
    24    58    49    1
    25    47    35    1
    26    21    20   ar
    27    21    17   ar
    28    35    34   ar
    29    54    53    1
    30    54    56    1
    31    43    42    1
    32    43    45    1
    33    14    13    1
    34    39    38    1
    35    32    33   ar
    36    32    20    1
    37    33    34   ar
    38    33    37    1
    39    34    42    1
    40     5     4   ar
    41     5     1   ar
    42    20    19   ar
    43    28    30    1
    44    38    37    1
    45    38    40    1
    46    24    23    1
    47    27    19    1
    48    17     4    1
    49    17    18   ar
    50     4     3   ar
    51    18    19   ar
    52    18    22    1
    53    13    15    1
    54    23    22    1
    55    23    25    1
    56     9     8    1
    57     6     1    1
    58     2     3   ar
    59     2     1   ar
    60     2     7    1
    61     3    12    1
    62     8     7    1
    63     8    10    1
