@<TRIPOS>MOLECULE
mol_data/noopt/geoms/mol2/12ll6ia(170)13ed(300)13fh(350).out
 51 53 0 0 0
SMALL
GASTEIGER

@<TRIPOS>ATOM
      1 C           0.1763    1.8460    0.0000 C.ar    1  LIG1        0.1381
      2 C           1.5558    1.8460    0.0000 C.ar    1  LIG1        0.2054
      3 C           1.9706    3.2334    0.0000 C.ar    1  LIG1        0.2657
      4 C           0.8165    3.9895   -0.0001 C.ar    1  LIG1        0.1868
      5 O          -0.3030    3.1567   -0.0002 O.2     1  LIG1       -0.4551
      6 H          -0.7504    0.9343    0.0000 H       1  LIG1        0.1069
      7 O           2.3515    0.8179    0.0001 O.3     1  LIG1       -0.4887
      8 C           1.5776   -0.3846    0.0001 C.3     1  LIG1        0.0791
      9 H           2.2328   -1.2305   -0.0000 H       1  LIG1        0.0660
     10 H           0.9604   -0.4116    0.8738 H       1  LIG1        0.0660
     11 H           0.9604   -0.4115   -0.8735 H       1  LIG1        0.0660
     12 O           3.1998    3.6567   -0.0000 O.3     1  LIG1       -0.2799
     13 C           4.0900    2.5376   -0.0001 C.3     2  LIG2       -0.0681
     14 H           5.1015    2.8864   -0.0002 H       1  LIG1        0.0227
     15 H           3.9174    1.9445    0.8737 H       1  LIG1        0.0227
     16 H           3.9171    1.9444   -0.8736 H       1  LIG1        0.0227
     17 C           1.5597    6.2080   -0.2109 C.ar    1  LIG1        0.0497
     18 C           0.5416    5.2601   -0.0001 C.ar    1  LIG1        0.0422
     19 C          -0.7615    5.7162    0.2071 C.ar    1  LIG1       -0.0472
     20 C          -1.0017    7.0913    0.1971 C.ar    1  LIG1       -0.0335
     21 C           0.0826    7.9608   -0.0219 C.ar    1  LIG1        0.0887
     22 N           1.3458    7.5380   -0.2237 N.ar    1  LIG1       -0.2497
     23 H          -1.5828    5.0055    0.3762 H       1  LIG1        0.0626
     24 C           2.7887    5.8321   -0.4085 C.3     1  LIG1       -0.0216
     25 H           3.4546    6.5420    0.0359 H       1  LIG1        0.0293
     26 H           2.9793    5.7739   -1.4598 H       1  LIG1        0.0293
     27 H           2.9436    4.8711    0.0358 H       1  LIG1        0.0293
     28 H          -2.1971    7.5661    0.3853 H       1  LIG1        0.0640
     29 C          -0.0907    9.2491   -0.0403 C.ar    1  LIG1        0.0823
     30 C           0.3380   10.1840   -0.9291 C.ar    1  LIG1        0.0694
     31 C          -0.1330   11.4567   -0.4717 C.ar    1  LIG1        0.0945
     32 C          -0.8302   11.2432    0.6756 C.ar    1  LIG1        0.0858
     33 N          -0.8065    9.8931    0.9436 N.ar    1  LIG1       -0.3497
     34 H          -1.2381    9.4531    1.7234 H       1  LIG1        0.1661
     35 C           1.0463    9.9604   -1.9960 C.1     1  LIG1       -0.0662
     36 C           1.7008    9.7537   -2.9818 C.1     1  LIG1       -0.1138
     37 H           2.2839    9.5696   -3.8599 H       1  LIG1        0.1232
     38 N           0.2432   13.6199   -1.5510 N.1     1  LIG1       -0.1908
     39 C           0.0669   12.6061   -1.0452 C.1     1  LIG1        0.1026
     40 C          -1.4451   12.0805    1.4572 C.ar    1  LIG1        0.1081
     41 C          -1.0983   13.3333    1.8548 C.ar    1  LIG1        0.1643
     42 C          -2.1353   13.8099    2.7198 C.ar    1  LIG1        0.0849
     43 C          -3.0710   12.8280    2.8113 C.ar    1  LIG1        0.0267
     44 N          -2.6522   11.7673    2.0402 N.ar    1  LIG1       -0.3549
     45 H          -3.1437   10.9113    1.9226 H       1  LIG1        0.1655
     46 H          -4.1892   12.7874    3.4732 H       1  LIG1        0.0827
     47 O          -0.0218   13.9765    1.5121 O.3     1  LIG1       -0.5031
     48 H          -0.2206   14.9119    1.4277 H       1  LIG1        0.2923
     49 N          -2.1779   14.9675    3.3100 N.pl3   1  LIG1       -0.3540
     50 H          -1.3807   15.5081    3.0413 H       1  LIG1        0.1425
     51 H          -3.0126   15.4481    3.0413 H       1  LIG1        0.1425
@<TRIPOS>BOND
     1    37    36    1
     2    36    35    3
     3    35    30    1
     4    38    39    3
     5    26    24    1
     6    39    31    1
     7    30    31   ar
     8    30    29   ar
     9    16    13    1
    10    11     8    1
    11    31    32   ar
    12    24    17    1
    13    24    27    1
    14    24    25    1
    15    22    17   ar
    16    22    21   ar
    17    17    18   ar
    18    29    21    1
    19    29    33   ar
    20    21    20   ar
    21    14    13    1
    22     5     4   ar
    23     5     1   ar
    24    18     4    1
    25    18    19   ar
    26     4     3   ar
    27    13    15    1
    28     9     8    1
    29     1     2   ar
    30     1     6    1
    31     2     3   ar
    32     2     7    1
    33     3    12    1
    34     8     7    1
    35     8    10    1
    36    20    19   ar
    37    20    28    1
    38    19    23    1
    39    32    33   ar
    40    32    40    1
    41    33    34    1
    42    48    47    1
    43    40    41   ar
    44    40    44   ar
    45    47    41    1
    46    41    42   ar
    47    45    44    1
    48    44    43   ar
    49    42    43   ar
    50    42    49    1
    51    43    46    1
    52    51    49    1
    53    50    49    1
