@<TRIPOS>MOLECULE
mol_data/noopt/geoms/mol2/12ll6ea13ii-13dh-.out
 53 56 0 0 0
SMALL
GASTEIGER

@<TRIPOS>ATOM
      1 C           0.1763    1.8460    0.0000 C.ar    1  LIG1        0.1379
      2 C           1.5558    1.8460    0.0000 C.ar    1  LIG1        0.2003
      3 C           1.9706    3.2334    0.0000 C.ar    1  LIG1        0.2079
      4 C           0.8165    3.9895   -0.0001 C.ar    1  LIG1        0.1827
      5 O          -0.3030    3.1567   -0.0002 O.2     1  LIG1       -0.4553
      6 H          -0.7504    0.9343    0.0000 H       1  LIG1        0.1069
      7 O           2.3515    0.8179    0.0001 O.3     1  LIG1       -0.4888
      8 C           1.5776   -0.3846    0.0001 C.3     1  LIG1        0.0791
      9 H           2.2328   -1.2305   -0.0000 H       1  LIG1        0.0660
     10 H           0.9604   -0.4116    0.8738 H       1  LIG1        0.0660
     11 H           0.9604   -0.4115   -0.8735 H       1  LIG1        0.0660
     12 O           3.1998    3.6567   -0.0000 O.3     1  LIG1       -0.4884
     13 C           4.0900    2.5376   -0.0001 C.3     1  LIG1        0.0791
     14 H           5.1015    2.8864   -0.0002 H       1  LIG1        0.0660
     15 H           3.9174    1.9445    0.8737 H       1  LIG1        0.0660
     16 H           3.9171    1.9444   -0.8736 H       1  LIG1        0.0660
     17 C          -0.7953    5.6985    0.0001 C.ar    1  LIG1        0.1246
     18 C           0.5416    5.2601   -0.0001 C.ar    1  LIG1        0.0549
     19 C           1.5573    6.2179    0.0001 C.ar    1  LIG1       -0.0462
     20 C           1.2067    7.5691    0.0002 C.ar    1  LIG1       -0.0335
     21 C          -0.1587    7.9086    0.0001 C.ar    1  LIG1        0.0888
     22 N          -1.1514    6.9977    0.0002 N.ar    1  LIG1       -0.2362
     23 H           2.6135    5.9134   -0.0011 H       1  LIG1        0.0626
     24 C          -1.7757    4.8447    0.0000 C.1     1  LIG1       -0.0491
     25 C          -2.6815    4.0559   -0.0000 C.1     1  LIG1       -0.1124
     26 H          -3.4885    3.3532   -0.0001 H       1  LIG1        0.1232
     27 H           2.1151    8.4991    0.0002 H       1  LIG1        0.0640
     28 C          -0.5350    9.1530    0.0003 C.ar    1  LIG1        0.0687
     29 C           0.1998   10.2966    0.0001 C.ar    1  LIG1       -0.0201
     30 C          -0.7188   11.3952    0.0016 C.ar    1  LIG1       -0.0202
     31 C          -1.9745   10.8745    0.0009 C.ar    1  LIG1        0.0679
     32 N          -1.8666    9.5021    0.0006 N.ar    1  LIG1       -0.3514
     33 H          -2.6292    8.8645    0.0000 H       1  LIG1        0.1660
     34 C           1.4978   10.3747    0.0001 C.3     1  LIG1       -0.0374
     35 H           1.8014   11.2681    0.5046 H       1  LIG1        0.0278
     36 H           1.8539   10.3962   -1.0087 H       1  LIG1        0.0278
     37 H           1.9062    9.5240    0.5045 H       1  LIG1        0.0278
     38 C          -0.4122   12.6588    0.0029 C.3     1  LIG1       -0.0374
     39 H          -1.1772   13.2110    0.5077 H       1  LIG1        0.0278
     40 H          -0.3279   13.0065   -1.0056 H       1  LIG1        0.0278
     41 H           0.5209   12.7989    0.5076 H       1  LIG1        0.0278
     42 C          -3.1326   11.4652    0.0016 C.ar    1  LIG1        0.0826
     43 C          -3.4483   12.7873    0.0183 C.ar    1  LIG1        0.0990
     44 C          -4.8769   12.8860    0.0113 C.ar    1  LIG1        0.0604
     45 C          -5.3713   11.6199   -0.0111 C.ar    1  LIG1        0.0243
     46 N          -4.3069   10.7469   -0.0167 N.ar    1  LIG1       -0.3568
     47 H          -4.3753    9.7554   -0.0321 H       1  LIG1        0.1655
     48 H          -6.5995   11.1941   -0.0251 H       1  LIG1        0.0826
     49 N          -1.8624   14.6499    0.0564 N.1     1  LIG1       -0.1907
     50 C          -2.6056   13.7770    0.0386 C.1     1  LIG1        0.1032
     51 N          -5.5756   13.9822    0.0236 N.pl3   1  LIG1       -0.3558
     52 H          -5.0686   14.7059   -0.4446 H       1  LIG1        0.1424
     53 H          -6.4457   13.8282   -0.4446 H       1  LIG1        0.1424
@<TRIPOS>BOND
     1    36    34    1
     2    40    38    1
     3    16    13    1
     4    11     8    1
     5    53    51    1
     6    52    51    1
     7    47    46    1
     8    48    45    1
     9    46    45   ar
    10    46    42   ar
    11    45    44   ar
    12    23    19    1
    13    14    13    1
    14     5     4   ar
    15     5     1   ar
    16     4    18    1
    17     4     3   ar
    18    18    17   ar
    19    18    19   ar
    20    13    12    1
    21    13    15    1
    22    26    25    1
    23    25    24    3
    24     9     8    1
    25     1     2   ar
    26     1     6    1
    27     2     3   ar
    28     2     7    1
    29     3    12    1
    30    33    32    1
    31    24    17    1
    32     8     7    1
    33     8    10    1
    34    17    22   ar
    35    19    20   ar
    36    29    34    1
    37    29    28   ar
    38    29    30   ar
    39    21    22   ar
    40    21    20   ar
    41    21    28    1
    42    34    37    1
    43    34    35    1
    44    27    20    1
    45    28    32   ar
    46    32    31   ar
    47    31    30   ar
    48    31    42    1
    49    30    38    1
    50    42    43   ar
    51    38    41    1
    52    38    39    1
    53    44    43   ar
    54    44    51    1
    55    43    50    1
    56    50    49    3
