@<TRIPOS>MOLECULE
mol_data/noopt/geoms/mol2/12ll12ll-12ll.out
 47 49 0 0 0
SMALL
GASTEIGER

@<TRIPOS>ATOM
      1 C           0.1763    1.8460    0.0000 C.ar    1  LIG1        0.1381
      2 C           1.5558    1.8460    0.0000 C.ar    1  LIG1        0.2004
      3 C           1.9706    3.2334    0.0000 C.ar    1  LIG1        0.2111
      4 C           0.8165    3.9895   -0.0001 C.ar    1  LIG1        0.2186
      5 O          -0.3030    3.1567   -0.0002 O.2     1  LIG1       -0.4521
      6 H          -0.7504    0.9343    0.0000 H       1  LIG1        0.1069
      7 O           2.3515    0.8179    0.0001 O.3     1  LIG1       -0.4888
      8 C           1.5776   -0.3846    0.0001 C.3     1  LIG1        0.0791
      9 H           2.2328   -1.2305   -0.0000 H       1  LIG1        0.0660
     10 H           0.9604   -0.4116    0.8738 H       1  LIG1        0.0660
     11 H           0.9604   -0.4115   -0.8735 H       1  LIG1        0.0660
     12 O           3.1998    3.6567   -0.0000 O.3     1  LIG1       -0.4883
     13 C           4.0900    2.5376   -0.0001 C.3     1  LIG1        0.0791
     14 H           5.1015    2.8864   -0.0002 H       1  LIG1        0.0660
     15 H           3.9174    1.9445    0.8737 H       1  LIG1        0.0660
     16 H           3.9171    1.9444   -0.8736 H       1  LIG1        0.0660
     17 C           0.5416    5.2601   -0.0001 C.ar    1  LIG1        0.2196
     18 C          -0.6119    6.0167   -0.0001 C.ar    1  LIG1        0.2119
     19 C          -0.1979    7.4043   -0.0001 C.ar    1  LIG1        0.2119
     20 C           1.1818    7.4036   -0.0002 C.ar    1  LIG1        0.2196
     21 O           1.6612    6.0932   -0.0003 O.2     1  LIG1       -0.4407
     22 O          -1.8411    5.5933   -0.0000 O.3     1  LIG1       -0.4883
     23 C          -2.7313    6.7125   -0.0001 C.3     1  LIG1        0.0791
     24 H          -3.7429    6.3637   -0.0002 H       1  LIG1        0.0660
     25 H          -2.5587    7.3056    0.8736 H       1  LIG1        0.0660
     26 H          -2.5585    7.3057   -0.8737 H       1  LIG1        0.0660
     27 O          -0.9936    8.4324   -0.0001 O.3     1  LIG1       -0.4883
     28 C          -0.2197    9.6349   -0.0002 C.3     1  LIG1        0.0791
     29 H          -0.8750   10.4808   -0.0004 H       1  LIG1        0.0660
     30 H           0.3974    9.6619    0.8736 H       1  LIG1        0.0660
     31 H           0.3976    9.6617   -0.8737 H       1  LIG1        0.0660
     32 C           2.1085    8.3153   -0.0002 C.ar    1  LIG1        0.2186
     33 C           3.4880    8.3153   -0.0001 C.ar    1  LIG1        0.2111
     34 C           3.9028    9.7027   -0.0001 C.ar    1  LIG1        0.2004
     35 C           2.7487   10.4588   -0.0002 C.ar    1  LIG1        0.1381
     36 O           1.6292    9.6260   -0.0003 O.2     1  LIG1       -0.4521
     37 H           2.4738   11.7294   -0.0002 H       1  LIG1        0.1069
     38 O           4.2837    7.2872   -0.0000 O.3     1  LIG1       -0.4883
     39 C           3.5098    6.0847   -0.0001 C.3     1  LIG1        0.0791
     40 H           4.1651    5.2388   -0.0002 H       1  LIG1        0.0660
     41 H           2.8927    6.0577    0.8737 H       1  LIG1        0.0660
     42 H           2.8926    6.0578   -0.8736 H       1  LIG1        0.0660
     43 O           5.1320   10.1260   -0.0001 O.3     1  LIG1       -0.4888
     44 C           6.0222    9.0068   -0.0002 C.3     1  LIG1        0.0791
     45 H           7.0338    9.3557   -0.0003 H       1  LIG1        0.0660
     46 H           5.8496    8.4137    0.8736 H       1  LIG1        0.0660
     47 H           5.8494    8.4137   -0.8737 H       1  LIG1        0.0660
@<TRIPOS>BOND
     1    31    28    1
     2    47    44    1
     3    26    23    1
     4    42    39    1
     5    16    13    1
     6    11     8    1
     7    29    28    1
     8    36    35   ar
     9    36    32   ar
    10    45    44    1
    11    21    20   ar
    12    21    17   ar
    13    14    13    1
    14    35    37    1
    15    35    34   ar
    16    24    23    1
    17     5     4   ar
    18     5     1   ar
    19    28    27    1
    20    28    30    1
    21    20    32    1
    22    20    19   ar
    23    40    39    1
    24    44    43    1
    25    44    46    1
    26    32    33   ar
    27    33    34   ar
    28    33    38    1
    29    18    19   ar
    30    18    17   ar
    31    18    22    1
    32    27    19    1
    33    34    43    1
    34    17     4    1
    35     4     3   ar
    36    23    22    1
    37    23    25    1
    38    39    38    1
    39    39    41    1
    40    13    12    1
    41    13    15    1
    42     9     8    1
    43     3     2   ar
    44     3    12    1
    45     2     1   ar
    46     2     7    1
    47     1     6    1
    48     8     7    1
    49     8    10    1
