@<TRIPOS>MOLECULE
mol_data/noopt/geoms/mol2/1312-8.out
 23 25 0 0 0
SMALL
GASTEIGER

@<TRIPOS>ATOM
      1 C           1.1215   -0.3259    0.0002 C.ar    1  LIG1        0.0023
      2 C           0.7176    0.9721   -0.0005 C.ar    1  LIG1       -0.0437
      3 C          -0.7144    0.9744    0.0003 C.ar    1  LIG1       -0.0334
      4 C          -1.1226   -0.3223   -0.0003 C.ar    1  LIG1        0.0821
      5 N          -0.0018   -1.1217    0.0001 N.ar    1  LIG1       -0.3583
      6 H          -0.0034   -2.1157   -0.0003 H       1  LIG1        0.1654
      7 H           2.3167   -0.8373    0.0007 H       1  LIG1        0.0807
      8 H           1.4918    2.0164   -0.0003 H       1  LIG1        0.0633
      9 H          -1.4853    2.0212    0.0010 H       1  LIG1        0.0640
     10 C          -2.3194   -0.8299   -0.0001 C.ar    1  LIG1        0.1519
     11 C          -2.8470   -2.1045    0.0001 C.ar    1  LIG1       -0.0137
     12 C          -4.2875   -1.9572    0.0003 C.ar    1  LIG1       -0.0120
     13 C          -4.5448   -0.6017    0.0003 C.ar    1  LIG1        0.1760
     14 O          -3.3472    0.1142    0.0002 O.2     1  LIG1       -0.4501
     15 H          -2.2013   -3.2329   -0.0000 H       1  LIG1        0.0656
     16 H          -5.1487   -2.9311    0.0004 H       1  LIG1        0.0657
     17 C          -5.6137    0.1382    0.0004 C.ar    1  LIG1        0.2381
     18 N          -5.4214    1.4857    0.0004 N.ar    1  LIG1       -0.1226
     19 C          -7.8302    1.6724    0.0005 C.ar    1  LIG1        0.1605
     20 N          -6.8072   -0.5162    0.0004 N.ar    1  LIG1       -0.1226
     21 N          -6.5409    2.2393    0.0005 N.ar    1  LIG1       -0.1338
     22 N          -7.9067    0.2662    0.0004 N.ar    1  LIG1       -0.1338
     23 H          -8.8991    2.4124    0.0006 H       1  LIG1        0.1085
@<TRIPOS>BOND
     1     2     8    1
     2     2     1   ar
     3     2     3   ar
     4     4    10    1
     5     4     5   ar
     6     4     3   ar
     7     6     5    1
     8    10    11   ar
     9    10    14   ar
    10    15    11    1
    11    11    12   ar
    12     5     1   ar
    13    14    13   ar
    14     1     7    1
    15    12    13   ar
    16    12    16    1
    17    13    17    1
    18     3     9    1
    19    17    18   ar
    20    17    20   ar
    21    22    20   ar
    22    22    19   ar
    23    18    21   ar
    24    21    19   ar
    25    19    23    1
