@<TRIPOS>MOLECULE
mol_data/noopt/geoms/mol2/1312-8-4.out
 33 36 0 0 0
SMALL
GASTEIGER

@<TRIPOS>ATOM
      1 C           1.1215   -0.3259    0.0002 C.ar    1  LIG1        0.0023
      2 C           0.7176    0.9721   -0.0005 C.ar    1  LIG1       -0.0437
      3 C          -0.7144    0.9744    0.0003 C.ar    1  LIG1       -0.0334
      4 C          -1.1226   -0.3223   -0.0003 C.ar    1  LIG1        0.0821
      5 N          -0.0018   -1.1217    0.0001 N.ar    1  LIG1       -0.3583
      6 H          -0.0034   -2.1157   -0.0003 H       1  LIG1        0.1654
      7 H           2.3167   -0.8373    0.0007 H       1  LIG1        0.0807
      8 H           1.4918    2.0164   -0.0003 H       1  LIG1        0.0633
      9 H          -1.4853    2.0212    0.0010 H       1  LIG1        0.0640
     10 C          -2.3194   -0.8299   -0.0001 C.ar    1  LIG1        0.1519
     11 C          -2.8470   -2.1045    0.0001 C.ar    1  LIG1       -0.0137
     12 C          -4.2875   -1.9572    0.0003 C.ar    1  LIG1       -0.0120
     13 C          -4.5448   -0.6017    0.0003 C.ar    1  LIG1        0.1760
     14 O          -3.3472    0.1142    0.0002 O.2     1  LIG1       -0.4501
     15 H          -2.2013   -3.2329   -0.0000 H       1  LIG1        0.0656
     16 H          -5.1487   -2.9311    0.0004 H       1  LIG1        0.0657
     17 C          -5.6137    0.1382    0.0004 C.ar    1  LIG1        0.2381
     18 N          -6.8071   -0.5162    0.0004 N.ar    1  LIG1       -0.1220
     19 C          -7.8301    1.6726    0.0005 C.ar    1  LIG1        0.2034
     20 N          -5.4214    1.4857    0.0004 N.ar    1  LIG1       -0.1220
     21 N          -7.9066    0.2663    0.0005 N.ar    1  LIG1       -0.1251
     22 N          -6.5409    2.2393    0.0006 N.ar    1  LIG1       -0.1251
     23 C          -8.7807    3.8174    0.0014 C.ar    1  LIG1       -0.0509
     24 C          -9.9683    4.5743    0.0030 C.ar    1  LIG1       -0.0611
     25 C          -8.8989    2.4125    0.0006 C.ar    1  LIG1        0.0226
     26 C         -11.2194    3.9616    0.0032 C.ar    1  LIG1       -0.0617
     27 H          -9.9000    5.6599    0.0039 H       1  LIG1        0.0618
     28 C         -10.1476    1.8003    0.0008 C.ar    1  LIG1       -0.0509
     29 C         -11.3159    2.5695    0.0020 C.ar    1  LIG1       -0.0611
     30 H         -10.2124    0.7152    0.0002 H       1  LIG1        0.0625
     31 H         -12.2954    4.6911    0.0046 H       1  LIG1        0.0618
     32 H          -7.6428    4.4460    0.0011 H       1  LIG1        0.0625
     33 H         -12.4804    1.9916    0.0023 H       1  LIG1        0.0618
@<TRIPOS>BOND
     1     2     8    1
     2     2     1   ar
     3     2     3   ar
     4     4    10    1
     5     4     5   ar
     6     4     3   ar
     7     6     5    1
     8    10    11   ar
     9    10    14   ar
    10    15    11    1
    11    11    12   ar
    12     5     1   ar
    13    14    13   ar
    14     1     7    1
    15    30    28    1
    16    12    13   ar
    17    12    16    1
    18    13    17    1
    19     3     9    1
    20    17    18   ar
    21    17    20   ar
    22    18    21   ar
    23    20    22   ar
    24    21    19   ar
    25    19    22   ar
    26    19    25    1
    27    25    28   ar
    28    25    23   ar
    29    28    29   ar
    30    32    23    1
    31    23    24   ar
    32    29    33    1
    33    29    26   ar
    34    24    26   ar
    35    24    27    1
    36    26    31    1
