@<TRIPOS>MOLECULE
mol_data/noopt/geoms/mol2/1312-.out
 17 18 0 0 0
SMALL
GASTEIGER

@<TRIPOS>ATOM
      1 C           1.1215   -0.3259    0.0002 C.ar    1  LIG1        0.0023
      2 C           0.7176    0.9721   -0.0005 C.ar    1  LIG1       -0.0437
      3 C          -0.7144    0.9744    0.0003 C.ar    1  LIG1       -0.0334
      4 C          -1.1226   -0.3223   -0.0003 C.ar    1  LIG1        0.0821
      5 N          -0.0018   -1.1217    0.0001 N.ar    1  LIG1       -0.3583
      6 H          -0.0034   -2.1157   -0.0003 H       1  LIG1        0.1654
      7 H           2.3167   -0.8373    0.0007 H       1  LIG1        0.0807
      8 H           1.4918    2.0164   -0.0003 H       1  LIG1        0.0633
      9 H          -1.4853    2.0212    0.0010 H       1  LIG1        0.0640
     10 C          -2.3194   -0.8299   -0.0001 C.ar    1  LIG1        0.1508
     11 C          -2.8470   -2.1045    0.0001 C.ar    1  LIG1       -0.0144
     12 C          -4.2875   -1.9572    0.0003 C.ar    1  LIG1       -0.0233
     13 C          -4.5448   -0.6017    0.0003 C.ar    1  LIG1        0.0926
     14 O          -3.3472    0.1142    0.0002 O.2     1  LIG1       -0.4615
     15 H          -5.6137    0.1382    0.0004 H       1  LIG1        0.1029
     16 H          -2.2013   -3.2329   -0.0000 H       1  LIG1        0.0656
     17 H          -5.1487   -2.9311    0.0004 H       1  LIG1        0.0649
@<TRIPOS>BOND
     1     2     8    1
     2     2     1   ar
     3     2     3   ar
     4     4    10    1
     5     4     5   ar
     6     4     3   ar
     7     6     5    1
     8    10    11   ar
     9    10    14   ar
    10    16    11    1
    11    11    12   ar
    12     5     1   ar
    13    14    13   ar
    14     1     7    1
    15    12    13   ar
    16    12    17    1
    17    13    15    1
    18     3     9    1
