@<TRIPOS>MOLECULE
mol_data/noopt/geoms/mol2/1312-4.out
 27 29 0 0 0
SMALL
GASTEIGER

@<TRIPOS>ATOM
      1 C           1.1215   -0.3259    0.0002 C.ar    1  LIG1        0.0023
      2 C           0.7176    0.9721   -0.0005 C.ar    1  LIG1       -0.0437
      3 C          -0.7144    0.9744    0.0003 C.ar    1  LIG1       -0.0334
      4 C          -1.1226   -0.3223   -0.0003 C.ar    1  LIG1        0.0821
      5 N          -0.0018   -1.1217    0.0001 N.ar    1  LIG1       -0.3583
      6 H          -0.0034   -2.1157   -0.0003 H       1  LIG1        0.1654
      7 H           2.3167   -0.8373    0.0007 H       1  LIG1        0.0807
      8 H           1.4918    2.0164   -0.0003 H       1  LIG1        0.0633
      9 H          -1.4853    2.0212    0.0010 H       1  LIG1        0.0640
     10 C          -2.3194   -0.8299   -0.0001 C.ar    1  LIG1        0.1517
     11 C          -2.8470   -2.1045    0.0001 C.ar    1  LIG1       -0.0138
     12 C          -4.2875   -1.9572    0.0003 C.ar    1  LIG1       -0.0152
     13 C          -4.5448   -0.6017    0.0003 C.ar    1  LIG1        0.1358
     14 O          -3.3472    0.1142    0.0002 O.2     1  LIG1       -0.4534
     15 H          -2.2013   -3.2329   -0.0000 H       1  LIG1        0.0656
     16 H          -5.1487   -2.9311    0.0004 H       1  LIG1        0.0656
     17 C          -5.4954    1.5431    0.0012 C.ar    1  LIG1       -0.0511
     18 C          -6.6830    2.3000    0.0028 C.ar    1  LIG1       -0.0611
     19 C          -5.6136    0.1382    0.0004 C.ar    1  LIG1        0.0173
     20 C          -7.9341    1.6873    0.0029 C.ar    1  LIG1       -0.0617
     21 H          -6.6147    3.3856    0.0036 H       1  LIG1        0.0618
     22 C          -6.8623   -0.4740    0.0005 C.ar    1  LIG1       -0.0511
     23 C          -8.0306    0.2952    0.0017 C.ar    1  LIG1       -0.0611
     24 H          -6.9272   -1.5591   -0.0000 H       1  LIG1        0.0625
     25 H          -9.0101    2.4168    0.0043 H       1  LIG1        0.0618
     26 H          -4.3575    2.1717    0.0008 H       1  LIG1        0.0625
     27 H          -9.1951   -0.2827    0.0020 H       1  LIG1        0.0618
@<TRIPOS>BOND
     1     2     8    1
     2     2     1   ar
     3     2     3   ar
     4     4    10    1
     5     4     5   ar
     6     4     3   ar
     7     6     5    1
     8    10    11   ar
     9    10    14   ar
    10    15    11    1
    11    24    22    1
    12    11    12   ar
    13     5     1   ar
    14    14    13   ar
    15     1     7    1
    16    12    13   ar
    17    12    16    1
    18    13    19    1
    19     3     9    1
    20    19    22   ar
    21    19    17   ar
    22    22    23   ar
    23    26    17    1
    24    17    18   ar
    25    23    27    1
    26    23    20   ar
    27    18    20   ar
    28    18    21    1
    29    20    25    1
