@<TRIPOS>MOLECULE
mol_data/noopt/geoms/mol2/13125.out
 24 26 0 0 0
SMALL
GASTEIGER

@<TRIPOS>ATOM
      1 C           1.1215   -0.3259    0.0002 C.ar    1  LIG1        0.0023
      2 C           0.7176    0.9721   -0.0005 C.ar    1  LIG1       -0.0437
      3 C          -0.7144    0.9744    0.0003 C.ar    1  LIG1       -0.0334
      4 C          -1.1226   -0.3223   -0.0003 C.ar    1  LIG1        0.0821
      5 N          -0.0018   -1.1217    0.0001 N.ar    1  LIG1       -0.3583
      6 H          -0.0034   -2.1157   -0.0003 H       1  LIG1        0.1654
      7 H           2.3167   -0.8373    0.0007 H       1  LIG1        0.0807
      8 H           1.4918    2.0164   -0.0003 H       1  LIG1        0.0633
      9 H          -1.4853    2.0212    0.0010 H       1  LIG1        0.0640
     10 C          -2.3194   -0.8299   -0.0001 C.ar    1  LIG1        0.1518
     11 C          -3.6025   -0.3232    0.0001 C.ar    1  LIG1       -0.0138
     12 C          -4.4979   -1.4613    0.0002 C.ar    1  LIG1       -0.0147
     13 C          -3.7022   -2.5884    0.0001 C.ar    1  LIG1        0.1423
     14 O          -2.3550   -2.2250   -0.0002 O.2     1  LIG1       -0.4528
     15 H          -3.9649    0.9252    0.0001 H       1  LIG1        0.0656
     16 H          -5.7966   -1.4035    0.0004 H       1  LIG1        0.0656
     17 C          -3.9132   -3.8712    0.0002 C.ar    1  LIG1        0.0544
     18 C          -5.1474   -4.4822   -0.0001 C.ar    1  LIG1       -0.0440
     19 C          -5.0272   -5.9093   -0.0006 C.ar    1  LIG1       -0.0540
     20 C          -3.7081   -6.3052    0.0001 C.ar    1  LIG1       -0.0236
     21 S          -2.6725   -4.9923    0.0007 S.2     1  LIG1       -0.0936
     22 H          -3.2854   -7.5345    0.0005 H       1  LIG1        0.0693
     23 H          -6.2920   -3.8658   -0.0001 H       1  LIG1        0.0630
     24 H          -6.0525   -6.7085   -0.0017 H       1  LIG1        0.0623
@<TRIPOS>BOND
     1    24    19    1
     2    19    18   ar
     3    19    20   ar
     4     2     8    1
     5     2     1   ar
     6     2     3   ar
     7     4    10    1
     8     4     5   ar
     9     4     3   ar
    10     6     5    1
    11    14    10   ar
    12    14    13   ar
    13    23    18    1
    14    10    11   ar
    15    18    17   ar
    16    11    15    1
    17    11    12   ar
    18     5     1   ar
    19    13    17    1
    20    13    12   ar
    21    20    22    1
    22    20    21   ar
    23     1     7    1
    24    17    21   ar
    25    12    16    1
    26     3     9    1
