@<TRIPOS>MOLECULE
mol_data/noopt/geoms/mol2/1312-55.out
 31 34 0 0 0
SMALL
GASTEIGER

@<TRIPOS>ATOM
      1 C           1.1215   -0.3259    0.0002 C.ar    1  LIG1        0.0023
      2 C           0.7176    0.9721   -0.0005 C.ar    1  LIG1       -0.0437
      3 C          -0.7144    0.9744    0.0003 C.ar    1  LIG1       -0.0334
      4 C          -1.1226   -0.3223   -0.0003 C.ar    1  LIG1        0.0821
      5 N          -0.0018   -1.1217    0.0001 N.ar    1  LIG1       -0.3583
      6 H          -0.0034   -2.1157   -0.0003 H       1  LIG1        0.1654
      7 H           2.3167   -0.8373    0.0007 H       1  LIG1        0.0807
      8 H           1.4918    2.0164   -0.0003 H       1  LIG1        0.0633
      9 H          -1.4853    2.0212    0.0010 H       1  LIG1        0.0640
     10 C          -2.3194   -0.8299   -0.0001 C.ar    1  LIG1        0.1518
     11 C          -2.8470   -2.1045    0.0001 C.ar    1  LIG1       -0.0138
     12 C          -4.2875   -1.9572    0.0003 C.ar    1  LIG1       -0.0147
     13 C          -4.5448   -0.6017    0.0003 C.ar    1  LIG1        0.1423
     14 O          -3.3472    0.1142    0.0002 O.2     1  LIG1       -0.4528
     15 H          -2.2013   -3.2329   -0.0000 H       1  LIG1        0.0656
     16 H          -5.1487   -2.9311    0.0004 H       1  LIG1        0.0656
     17 C          -5.6137    0.1382    0.0004 C.ar    1  LIG1        0.0550
     18 C          -5.6374    1.5152    0.0000 C.ar    1  LIG1       -0.0434
     19 C          -6.9785    2.0176   -0.0005 C.ar    1  LIG1       -0.0457
     20 C          -7.9011    0.9951    0.0002 C.ar    1  LIG1        0.0266
     21 S          -7.1581   -0.5029    0.0008 S.2     1  LIG1       -0.0847
     22 H          -4.5903    2.2857    0.0000 H       1  LIG1        0.0630
     23 H          -7.2618    3.2864   -0.0016 H       1  LIG1        0.0629
     24 C          -9.1930    1.1394    0.0006 C.ar    1  LIG1        0.0259
     25 C          -9.8671    2.3403    0.0004 C.ar    1  LIG1       -0.0464
     26 C         -11.2861    2.1464    0.0001 C.ar    1  LIG1       -0.0541
     27 C         -11.6131    0.8086    0.0009 C.ar    1  LIG1       -0.0237
     28 S         -10.2484   -0.1577    0.0012 S.2     1  LIG1       -0.0961
     29 H         -12.8189    0.3227    0.0015 H       1  LIG1        0.0693
     30 H          -9.3108    3.5153    0.0003 H       1  LIG1        0.0629
     31 H         -12.1373    3.1289   -0.0008 H       1  LIG1        0.0623
@<TRIPOS>BOND
     1    23    19    1
     2    31    26    1
     3    19    18   ar
     4    19    20   ar
     5     2     8    1
     6     2     1   ar
     7     2     3   ar
     8     4    10    1
     9     4     5   ar
    10     4     3   ar
    11     6     5    1
    12    10    11   ar
    13    10    14   ar
    14    15    11    1
    15    22    18    1
    16    18    17   ar
    17    11    12   ar
    18     5     1   ar
    19    26    25   ar
    20    26    27   ar
    21    14    13   ar
    22     1     7    1
    23    20    24    1
    24    20    21   ar
    25    12    13   ar
    26    12    16    1
    27    13    17    1
    28    30    25    1
    29     3     9    1
    30    17    21   ar
    31    25    24   ar
    32    24    28   ar
    33    27    28   ar
    34    27    29    1
