@<TRIPOS>MOLECULE
mol_data/noopt/geoms/mol2/13124-.out
 27 29 0 0 0
SMALL
GASTEIGER

@<TRIPOS>ATOM
      1 C           1.1215   -0.3259    0.0002 C.ar    1  LIG1        0.0023
      2 C           0.7176    0.9721   -0.0005 C.ar    1  LIG1       -0.0437
      3 C          -0.7144    0.9744    0.0003 C.ar    1  LIG1       -0.0334
      4 C          -1.1226   -0.3223   -0.0003 C.ar    1  LIG1        0.0821
      5 N          -0.0018   -1.1217    0.0001 N.ar    1  LIG1       -0.3583
      6 H          -0.0034   -2.1157   -0.0003 H       1  LIG1        0.1654
      7 H           2.3167   -0.8373    0.0007 H       1  LIG1        0.0807
      8 H           1.4918    2.0164   -0.0003 H       1  LIG1        0.0633
      9 H          -1.4853    2.0212    0.0010 H       1  LIG1        0.0640
     10 C          -2.3194   -0.8299   -0.0001 C.ar    1  LIG1        0.1517
     11 C          -3.6025   -0.3232    0.0001 C.ar    1  LIG1       -0.0138
     12 C          -4.4979   -1.4613    0.0002 C.ar    1  LIG1       -0.0152
     13 C          -3.7022   -2.5884    0.0001 C.ar    1  LIG1        0.1358
     14 O          -2.3550   -2.2250   -0.0002 O.2     1  LIG1       -0.4534
     15 H          -3.9649    0.9252    0.0001 H       1  LIG1        0.0656
     16 H          -5.7966   -1.4035    0.0004 H       1  LIG1        0.0656
     17 C          -2.8209   -4.7627   -0.0005 C.ar    1  LIG1       -0.0511
     18 C          -3.1023   -6.1426   -0.0019 C.ar    1  LIG1       -0.0611
     19 C          -3.9132   -3.8711    0.0002 C.ar    1  LIG1        0.0173
     20 C          -4.4124   -6.6161   -0.0020 C.ar    1  LIG1       -0.0617
     21 H          -2.2743   -6.8480   -0.0026 H       1  LIG1        0.0618
     22 C          -5.2212   -4.3433    0.0001 C.ar    1  LIG1       -0.0511
     23 C          -5.4803   -5.7179   -0.0009 C.ar    1  LIG1       -0.0611
     24 H          -6.0464   -3.6357    0.0006 H       1  LIG1        0.0625
     25 H          -4.6358   -7.8968   -0.0032 H       1  LIG1        0.0618
     26 H          -1.5781   -4.3816   -0.0002 H       1  LIG1        0.0625
     27 H          -6.7051   -6.1535   -0.0011 H       1  LIG1        0.0618
@<TRIPOS>BOND
     1    25    20    1
     2    21    18    1
     3    20    18   ar
     4    20    23   ar
     5    18    17   ar
     6    27    23    1
     7    23    22   ar
     8     2     8    1
     9     2     1   ar
    10     2     3   ar
    11    17    26    1
    12    17    19   ar
    13     4    10    1
    14     4     5   ar
    15     4     3   ar
    16     6     5    1
    17    14    10   ar
    18    14    13   ar
    19    10    11   ar
    20    11    15    1
    21    11    12   ar
    22     5     1   ar
    23    13    19    1
    24    13    12   ar
    25    22    19   ar
    26    22    24    1
    27     1     7    1
    28    12    16    1
    29     3     9    1
