@<TRIPOS>MOLECULE
mol_data/noopt/geoms/mol2/1312-813-.out
 31 34 0 0 0
SMALL
GASTEIGER

@<TRIPOS>ATOM
      1 C           1.1215   -0.3259    0.0002 C.ar    1  LIG1        0.0023
      2 C           0.7176    0.9721   -0.0005 C.ar    1  LIG1       -0.0437
      3 C          -0.7144    0.9744    0.0003 C.ar    1  LIG1       -0.0334
      4 C          -1.1226   -0.3223   -0.0003 C.ar    1  LIG1        0.0821
      5 N          -0.0018   -1.1217    0.0001 N.ar    1  LIG1       -0.3583
      6 H          -0.0034   -2.1157   -0.0003 H       1  LIG1        0.1654
      7 H           2.3167   -0.8373    0.0007 H       1  LIG1        0.0807
      8 H           1.4918    2.0164   -0.0003 H       1  LIG1        0.0633
      9 H          -1.4853    2.0212    0.0010 H       1  LIG1        0.0640
     10 C          -2.3194   -0.8299   -0.0001 C.ar    1  LIG1        0.1519
     11 C          -2.8470   -2.1045    0.0001 C.ar    1  LIG1       -0.0137
     12 C          -4.2875   -1.9572    0.0003 C.ar    1  LIG1       -0.0120
     13 C          -4.5448   -0.6017    0.0003 C.ar    1  LIG1        0.1760
     14 O          -3.3472    0.1142    0.0002 O.2     1  LIG1       -0.4501
     15 H          -2.2013   -3.2329   -0.0000 H       1  LIG1        0.0656
     16 H          -5.1487   -2.9311    0.0004 H       1  LIG1        0.0657
     17 C          -5.6137    0.1382    0.0004 C.ar    1  LIG1        0.2381
     18 N          -5.4214    1.4857    0.0004 N.ar    1  LIG1       -0.1220
     19 C          -7.8302    1.6724    0.0005 C.ar    1  LIG1        0.2194
     20 N          -6.8072   -0.5162    0.0004 N.ar    1  LIG1       -0.1220
     21 N          -6.5409    2.2393    0.0005 N.ar    1  LIG1       -0.1236
     22 N          -7.9067    0.2662    0.0004 N.ar    1  LIG1       -0.1236
     23 C          -8.8991    2.4124    0.0006 C.ar    1  LIG1        0.0875
     24 C         -10.2130    2.0638    0.0012 C.ar    1  LIG1       -0.0333
     25 C         -10.9768    3.2751   -0.0001 C.ar    1  LIG1       -0.0437
     26 C         -10.0960    4.3106    0.0003 C.ar    1  LIG1        0.0023
     27 N          -8.8229    3.7869    0.0003 N.ar    1  LIG1       -0.3582
     28 H          -7.9821    4.3171    0.0007 H       1  LIG1        0.1654
     29 H         -10.3030    5.5940   -0.0003 H       1  LIG1        0.0807
     30 H         -10.6854    0.8526    0.0012 H       1  LIG1        0.0640
     31 H         -12.2733    3.3709   -0.0011 H       1  LIG1        0.0633
@<TRIPOS>BOND
     1    31    25    1
     2     2     8    1
     3     2     1   ar
     4     2     3   ar
     5     4    10    1
     6     4     5   ar
     7     4     3   ar
     8     6     5    1
     9    29    26    1
    10    25    26   ar
    11    25    24   ar
    12    10    11   ar
    13    10    14   ar
    14    15    11    1
    15    11    12   ar
    16     5     1   ar
    17    14    13   ar
    18     1     7    1
    19    12    13   ar
    20    12    16    1
    21    13    17    1
    22     3     9    1
    23    27    26   ar
    24    27    23   ar
    25    27    28    1
    26    17    18   ar
    27    17    20   ar
    28    22    20   ar
    29    22    19   ar
    30    18    21   ar
    31    21    19   ar
    32    19    23    1
    33    23    24   ar
    34    24    30    1
