@<TRIPOS>MOLECULE
mol_data/noopt/geoms/mol2/1312-134-.out
 35 38 0 0 0
SMALL
GASTEIGER

@<TRIPOS>ATOM
      1 C           1.1215   -0.3259    0.0002 C.ar    1  LIG1        0.0023
      2 C           0.7176    0.9721   -0.0005 C.ar    1  LIG1       -0.0437
      3 C          -0.7144    0.9744    0.0003 C.ar    1  LIG1       -0.0334
      4 C          -1.1226   -0.3223   -0.0003 C.ar    1  LIG1        0.0821
      5 N          -0.0018   -1.1217    0.0001 N.ar    1  LIG1       -0.3583
      6 H          -0.0034   -2.1157   -0.0003 H       1  LIG1        0.1654
      7 H           2.3167   -0.8373    0.0007 H       1  LIG1        0.0807
      8 H           1.4918    2.0164   -0.0003 H       1  LIG1        0.0633
      9 H          -1.4853    2.0212    0.0010 H       1  LIG1        0.0640
     10 C          -2.3194   -0.8299   -0.0001 C.ar    1  LIG1        0.1518
     11 C          -2.8470   -2.1045    0.0001 C.ar    1  LIG1       -0.0137
     12 C          -4.2875   -1.9572    0.0003 C.ar    1  LIG1       -0.0137
     13 C          -4.5448   -0.6017    0.0003 C.ar    1  LIG1        0.1518
     14 O          -3.3472    0.1142    0.0002 O.2     1  LIG1       -0.4519
     15 H          -2.2013   -3.2329   -0.0000 H       1  LIG1        0.0656
     16 H          -5.1487   -2.9311    0.0004 H       1  LIG1        0.0656
     17 C          -5.6137    0.1382    0.0004 C.ar    1  LIG1        0.0825
     18 C          -5.7501    1.4908    0.0001 C.ar    1  LIG1       -0.0328
     19 C          -7.1527    1.7792    0.0014 C.ar    1  LIG1       -0.0357
     20 C          -7.8118    0.5902    0.0008 C.ar    1  LIG1        0.0470
     21 N          -6.8734   -0.4170    0.0006 N.ar    1  LIG1       -0.3518
     22 H          -7.0736   -1.3907    0.0000 H       1  LIG1        0.1660
     23 H          -4.7828    2.3593    0.0001 H       1  LIG1        0.0640
     24 H          -7.6989    2.9589    0.0027 H       1  LIG1        0.0639
     25 C          -9.5315   -1.0056    0.0010 C.ar    1  LIG1       -0.0526
     26 C         -10.9214   -1.2325    0.0001 C.ar    1  LIG1       -0.0611
     27 C          -9.0858    0.3320    0.0014 C.ar    1  LIG1       -0.0017
     28 C         -11.8292   -0.1759    0.0003 C.ar    1  LIG1       -0.0617
     29 H         -11.2869   -2.2570   -0.0004 H       1  LIG1        0.0618
     30 C          -9.9917    1.3872    0.0016 C.ar    1  LIG1       -0.0526
     31 C         -11.3687    1.1413    0.0011 C.ar    1  LIG1       -0.0611
     32 H          -9.6232    2.4099    0.0018 H       1  LIG1        0.0624
     33 H         -13.1058   -0.4218   -0.0004 H       1  LIG1        0.0618
     34 H          -8.7339   -2.0322    0.0010 H       1  LIG1        0.0624
     35 H         -12.2108    2.1317    0.0011 H       1  LIG1        0.0618
@<TRIPOS>BOND
     1     2     8    1
     2     2     1   ar
     3     2     3   ar
     4    29    26    1
     5    33    28    1
     6     4    10    1
     7     4     5   ar
     8     4     3   ar
     9     6     5    1
    10    10    11   ar
    11    10    14   ar
    12    15    11    1
    13    22    21    1
    14    18    23    1
    15    18    17   ar
    16    18    19   ar
    17    11    12   ar
    18     5     1   ar
    19    26    28   ar
    20    26    25   ar
    21    14    13   ar
    22     1     7    1
    23    12    13   ar
    24    12    16    1
    25    13    17    1
    26    28    31   ar
    27     3     9    1
    28    17    21   ar
    29    21    20   ar
    30    20    27    1
    31    20    19   ar
    32    25    34    1
    33    25    27   ar
    34    31    35    1
    35    31    30   ar
    36    27    30   ar
    37    19    24    1
    38    30    32    1
