@<TRIPOS>MOLECULE
mol_data/noopt/geoms/mol2/131288-.out
 29 32 0 0 0
SMALL
GASTEIGER

@<TRIPOS>ATOM
      1 C           1.1215   -0.3259    0.0002 C.ar    1  LIG1        0.0023
      2 C           0.7176    0.9721   -0.0005 C.ar    1  LIG1       -0.0437
      3 C          -0.7144    0.9744    0.0003 C.ar    1  LIG1       -0.0334
      4 C          -1.1226   -0.3223   -0.0003 C.ar    1  LIG1        0.0821
      5 N          -0.0018   -1.1217    0.0001 N.ar    1  LIG1       -0.3583
      6 H          -0.0034   -2.1157   -0.0003 H       1  LIG1        0.1654
      7 H           2.3167   -0.8373    0.0007 H       1  LIG1        0.0807
      8 H           1.4918    2.0164   -0.0003 H       1  LIG1        0.0633
      9 H          -1.4853    2.0212    0.0010 H       1  LIG1        0.0640
     10 C          -2.3194   -0.8299   -0.0001 C.ar    1  LIG1        0.1519
     11 C          -3.6025   -0.3232    0.0001 C.ar    1  LIG1       -0.0137
     12 C          -4.4979   -1.4613    0.0002 C.ar    1  LIG1       -0.0120
     13 C          -3.7022   -2.5884    0.0001 C.ar    1  LIG1        0.1760
     14 O          -2.3550   -2.2250   -0.0002 O.2     1  LIG1       -0.4501
     15 H          -3.9649    0.9252    0.0001 H       1  LIG1        0.0656
     16 H          -5.7966   -1.4035    0.0004 H       1  LIG1        0.0657
     17 C          -3.9132   -3.8712    0.0002 C.ar    1  LIG1        0.2381
     18 N          -5.2132   -4.2744    0.0003 N.ar    1  LIG1       -0.1219
     19 C          -4.3506   -6.5311    0.0004 C.ar    1  LIG1        0.2435
     20 N          -2.8107   -4.6696    0.0003 N.ar    1  LIG1       -0.1219
     21 N          -5.4149   -5.6087    0.0004 N.ar    1  LIG1       -0.1217
     22 N          -3.0471   -5.9982    0.0003 N.ar    1  LIG1       -0.1217
     23 C          -4.5616   -7.8139    0.0005 C.ar    1  LIG1        0.2434
     24 N          -3.4592   -8.6122    0.0006 N.ar    1  LIG1       -0.1224
     25 C          -4.9993  -10.4738    0.0008 C.ar    1  LIG1        0.1605
     26 N          -5.8617   -8.2171    0.0006 N.ar    1  LIG1       -0.1224
     27 N          -3.6956   -9.9409    0.0007 N.ar    1  LIG1       -0.1338
     28 N          -6.0634   -9.5514    0.0008 N.ar    1  LIG1       -0.1338
     29 H          -5.2103  -11.7566    0.0009 H       1  LIG1        0.1085
@<TRIPOS>BOND
     1     2     8    1
     2     2     1   ar
     3     2     3   ar
     4     4    10    1
     5     4     5   ar
     6     4     3   ar
     7     6     5    1
     8    14    10   ar
     9    14    13   ar
    10    10    11   ar
    11    11    15    1
    12    11    12   ar
    13     5     1   ar
    14    13    17    1
    15    13    12   ar
    16     1     7    1
    17    17    20   ar
    18    17    18   ar
    19    12    16    1
    20    20    22   ar
    21    18    21   ar
    22    22    19   ar
    23     3     9    1
    24    21    19   ar
    25    19    23    1
    26    23    24   ar
    27    23    26   ar
    28    24    27   ar
    29    26    28   ar
    30    27    25   ar
    31    25    28   ar
    32    25    29    1
