@<TRIPOS>MOLECULE
mol_data/noopt/geoms/mol2/13121313-.out
 33 36 0 0 0
SMALL
GASTEIGER

@<TRIPOS>ATOM
      1 C           1.1215   -0.3259    0.0002 C.ar    1  LIG1        0.0023
      2 C           0.7176    0.9721   -0.0005 C.ar    1  LIG1       -0.0437
      3 C          -0.7144    0.9744    0.0003 C.ar    1  LIG1       -0.0334
      4 C          -1.1226   -0.3223   -0.0003 C.ar    1  LIG1        0.0821
      5 N          -0.0018   -1.1217    0.0001 N.ar    1  LIG1       -0.3583
      6 H          -0.0034   -2.1157   -0.0003 H       1  LIG1        0.1654
      7 H           2.3167   -0.8373    0.0007 H       1  LIG1        0.0807
      8 H           1.4918    2.0164   -0.0003 H       1  LIG1        0.0633
      9 H          -1.4853    2.0212    0.0010 H       1  LIG1        0.0640
     10 C          -2.3194   -0.8299   -0.0001 C.ar    1  LIG1        0.1518
     11 C          -3.6025   -0.3232    0.0001 C.ar    1  LIG1       -0.0137
     12 C          -4.4979   -1.4613    0.0002 C.ar    1  LIG1       -0.0137
     13 C          -3.7022   -2.5884    0.0001 C.ar    1  LIG1        0.1518
     14 O          -2.3550   -2.2250   -0.0002 O.2     1  LIG1       -0.4519
     15 H          -3.9649    0.9252    0.0001 H       1  LIG1        0.0656
     16 H          -5.7966   -1.4035    0.0004 H       1  LIG1        0.0656
     17 C          -3.9132   -3.8712    0.0002 C.ar    1  LIG1        0.0826
     18 C          -5.0771   -4.5735   -0.0001 C.ar    1  LIG1       -0.0328
     19 C          -4.7371   -5.9646    0.0013 C.ar    1  LIG1       -0.0343
     20 C          -3.3805   -6.0512    0.0007 C.ar    1  LIG1        0.0634
     21 N          -2.8720   -4.7718    0.0004 N.ar    1  LIG1       -0.3506
     22 H          -1.9064   -4.5359   -0.0001 H       1  LIG1        0.1660
     23 H          -6.2761   -4.0713   -0.0000 H       1  LIG1        0.0640
     24 H          -5.5694   -6.9633    0.0026 H       1  LIG1        0.0639
     25 C          -2.6016   -7.0920    0.0013 C.ar    1  LIG1        0.0629
     26 C          -1.2449   -7.1784    0.0022 C.ar    1  LIG1       -0.0350
     27 C          -0.9050   -8.5694    0.0015 C.ar    1  LIG1       -0.0438
     28 C          -2.0688   -9.2720    0.0019 C.ar    1  LIG1        0.0022
     29 N          -3.1100   -8.3713    0.0013 N.ar    1  LIG1       -0.3595
     30 H          -4.0756   -8.6073    0.0015 H       1  LIG1        0.1654
     31 H          -2.2798  -10.5547    0.0016 H       1  LIG1        0.0807
     32 H          -0.4127   -6.1797    0.0022 H       1  LIG1        0.0639
     33 H           0.2941   -9.0717    0.0010 H       1  LIG1        0.0633
@<TRIPOS>BOND
     1     2     8    1
     2     2     1   ar
     3     2     3   ar
     4     4    10    1
     5     4     5   ar
     6     4     3   ar
     7     6     5    1
     8    14    10   ar
     9    14    13   ar
    10    22    21    1
    11    10    11   ar
    12    18    23    1
    13    18    17   ar
    14    18    19   ar
    15    11    15    1
    16    11    12   ar
    17     5     1   ar
    18    13    17    1
    19    13    12   ar
    20     1     7    1
    21    17    21   ar
    22    12    16    1
    23     3     9    1
    24    21    20   ar
    25    20    25    1
    26    20    19   ar
    27    33    27    1
    28    25    29   ar
    29    25    26   ar
    30    29    30    1
    31    29    28   ar
    32    19    24    1
    33    27    28   ar
    34    27    26   ar
    35    31    28    1
    36    32    26    1
