@<TRIPOS>MOLECULE
mol_data/noopt/geoms/mol2/1312-13-.out
 25 27 0 0 0
SMALL
GASTEIGER

@<TRIPOS>ATOM
      1 C           1.1215   -0.3259    0.0002 C.ar    1  LIG1        0.0023
      2 C           0.7176    0.9721   -0.0005 C.ar    1  LIG1       -0.0437
      3 C          -0.7144    0.9744    0.0003 C.ar    1  LIG1       -0.0334
      4 C          -1.1226   -0.3223   -0.0003 C.ar    1  LIG1        0.0821
      5 N          -0.0018   -1.1217    0.0001 N.ar    1  LIG1       -0.3583
      6 H          -0.0034   -2.1157   -0.0003 H       1  LIG1        0.1654
      7 H           2.3167   -0.8373    0.0007 H       1  LIG1        0.0807
      8 H           1.4918    2.0164   -0.0003 H       1  LIG1        0.0633
      9 H          -1.4853    2.0212    0.0010 H       1  LIG1        0.0640
     10 C          -2.3194   -0.8299   -0.0001 C.ar    1  LIG1        0.1518
     11 C          -2.8470   -2.1045    0.0001 C.ar    1  LIG1       -0.0137
     12 C          -4.2875   -1.9572    0.0003 C.ar    1  LIG1       -0.0137
     13 C          -4.5448   -0.6017    0.0003 C.ar    1  LIG1        0.1518
     14 O          -3.3472    0.1142    0.0002 O.2     1  LIG1       -0.4519
     15 H          -2.2013   -3.2329   -0.0000 H       1  LIG1        0.0656
     16 H          -5.1487   -2.9311    0.0004 H       1  LIG1        0.0656
     17 C          -5.6137    0.1382    0.0004 C.ar    1  LIG1        0.0821
     18 C          -6.9276   -0.2104    0.0009 C.ar    1  LIG1       -0.0334
     19 C          -7.6914    1.0009   -0.0004 C.ar    1  LIG1       -0.0437
     20 C          -6.8107    2.0364    0.0001 C.ar    1  LIG1        0.0023
     21 N          -5.5375    1.5127    0.0001 N.ar    1  LIG1       -0.3583
     22 H          -4.6967    2.0429    0.0005 H       1  LIG1        0.1654
     23 H          -7.0176    3.3199   -0.0005 H       1  LIG1        0.0807
     24 H          -7.4000   -1.4215    0.0010 H       1  LIG1        0.0640
     25 H          -8.9879    1.0967   -0.0013 H       1  LIG1        0.0633
@<TRIPOS>BOND
     1    25    19    1
     2    23    20    1
     3     2     8    1
     4     2     1   ar
     5     2     3   ar
     6    19    20   ar
     7    19    18   ar
     8     4    10    1
     9     4     5   ar
    10     4     3   ar
    11     6     5    1
    12    10    11   ar
    13    10    14   ar
    14    15    11    1
    15    11    12   ar
    16    21    20   ar
    17    21    17   ar
    18    21    22    1
    19     5     1   ar
    20    14    13   ar
    21     1     7    1
    22    12    13   ar
    23    12    16    1
    24    13    17    1
    25     3     9    1
    26    17    18   ar
    27    18    24    1
