@<TRIPOS>MOLECULE
mol_data/noopt/geoms/mol2/13124.out
 27 29 0 0 0
SMALL
GASTEIGER

@<TRIPOS>ATOM
      1 C           1.1215   -0.3259    0.0002 C.ar    1  LIG1        0.0023
      2 C           0.7176    0.9721   -0.0005 C.ar    1  LIG1       -0.0437
      3 C          -0.7144    0.9744    0.0003 C.ar    1  LIG1       -0.0334
      4 C          -1.1226   -0.3223   -0.0003 C.ar    1  LIG1        0.0821
      5 N          -0.0018   -1.1217    0.0001 N.ar    1  LIG1       -0.3583
      6 H          -0.0034   -2.1157   -0.0003 H       1  LIG1        0.1654
      7 H           2.3167   -0.8373    0.0007 H       1  LIG1        0.0807
      8 H           1.4918    2.0164   -0.0003 H       1  LIG1        0.0633
      9 H          -1.4853    2.0212    0.0010 H       1  LIG1        0.0640
     10 C          -2.3194   -0.8299   -0.0001 C.ar    1  LIG1        0.1517
     11 C          -3.6025   -0.3232    0.0001 C.ar    1  LIG1       -0.0138
     12 C          -4.4979   -1.4613    0.0002 C.ar    1  LIG1       -0.0152
     13 C          -3.7022   -2.5884    0.0001 C.ar    1  LIG1        0.1358
     14 O          -2.3550   -2.2250   -0.0002 O.2     1  LIG1       -0.4534
     15 H          -3.9649    0.9252    0.0001 H       1  LIG1        0.0656
     16 H          -5.7966   -1.4035    0.0004 H       1  LIG1        0.0656
     17 C          -5.2334   -4.3659    0.0010 C.ar    1  LIG1       -0.0511
     18 C          -5.4089   -5.7632    0.0027 C.ar    1  LIG1       -0.0611
     19 C          -3.9132   -3.8711    0.0002 C.ar    1  LIG1        0.0173
     20 C          -4.3195   -6.6314    0.0028 C.ar    1  LIG1       -0.0617
     21 H          -6.4192   -6.1662    0.0035 H       1  LIG1        0.0618
     22 C          -2.8252   -4.7375    0.0004 C.ar    1  LIG1       -0.0511
     23 C          -3.0202   -6.1226    0.0016 C.ar    1  LIG1       -0.0611
     24 H          -1.8169   -4.3315   -0.0002 H       1  LIG1        0.0625
     25 H          -4.5181   -7.9162    0.0042 H       1  LIG1        0.0618
     26 H          -6.2887   -3.6067    0.0007 H       1  LIG1        0.0625
     27 H          -1.9994   -6.9275    0.0019 H       1  LIG1        0.0618
@<TRIPOS>BOND
     1     2     8    1
     2     2     1   ar
     3     2     3   ar
     4     4    10    1
     5     4     5   ar
     6     4     3   ar
     7     6     5    1
     8    14    10   ar
     9    14    13   ar
    10    24    22    1
    11    10    11   ar
    12    11    15    1
    13    11    12   ar
    14     5     1   ar
    15    13    19    1
    16    13    12   ar
    17     1     7    1
    18    19    22   ar
    19    19    17   ar
    20    12    16    1
    21     3     9    1
    22    22    23   ar
    23    26    17    1
    24    17    18   ar
    25    23    27    1
    26    23    20   ar
    27    18    20   ar
    28    18    21    1
    29    20    25    1
