@<TRIPOS>MOLECULE
mol_data/noopt/geoms/mol2/1312-4-.out
 27 29 0 0 0
SMALL
GASTEIGER

@<TRIPOS>ATOM
      1 C           1.1215   -0.3259    0.0002 C.ar    1  LIG1        0.0023
      2 C           0.7176    0.9721   -0.0005 C.ar    1  LIG1       -0.0437
      3 C          -0.7144    0.9744    0.0003 C.ar    1  LIG1       -0.0334
      4 C          -1.1226   -0.3223   -0.0003 C.ar    1  LIG1        0.0821
      5 N          -0.0018   -1.1217    0.0001 N.ar    1  LIG1       -0.3583
      6 H          -0.0034   -2.1157   -0.0003 H       1  LIG1        0.1654
      7 H           2.3167   -0.8373    0.0007 H       1  LIG1        0.0807
      8 H           1.4918    2.0164   -0.0003 H       1  LIG1        0.0633
      9 H          -1.4853    2.0212    0.0010 H       1  LIG1        0.0640
     10 C          -2.3194   -0.8299   -0.0001 C.ar    1  LIG1        0.1517
     11 C          -2.8470   -2.1045    0.0001 C.ar    1  LIG1       -0.0138
     12 C          -4.2875   -1.9572    0.0003 C.ar    1  LIG1       -0.0152
     13 C          -4.5448   -0.6017    0.0003 C.ar    1  LIG1        0.1358
     14 O          -3.3472    0.1142    0.0002 O.2     1  LIG1       -0.4534
     15 H          -2.2013   -3.2329   -0.0000 H       1  LIG1        0.0656
     16 H          -5.1487   -2.9311    0.0004 H       1  LIG1        0.0656
     17 C          -6.8870   -0.4671   -0.0003 C.ar    1  LIG1       -0.0511
     18 C          -8.0135    0.3780   -0.0018 C.ar    1  LIG1       -0.0611
     19 C          -5.6136    0.1382    0.0004 C.ar    1  LIG1        0.0173
     20 C          -7.8805    1.7646   -0.0019 C.ar    1  LIG1       -0.0617
     21 H          -9.0055   -0.0682   -0.0025 H       1  LIG1        0.0618
     22 C          -5.4803    1.5225    0.0003 C.ar    1  LIG1       -0.0511
     23 C          -6.6116    2.3451   -0.0008 C.ar    1  LIG1       -0.0611
     24 H          -4.4875    1.9652    0.0007 H       1  LIG1        0.0625
     25 H          -8.9422    2.5149   -0.0031 H       1  LIG1        0.0618
     26 H          -7.0747   -1.7535   -0.0000 H       1  LIG1        0.0625
     27 H          -6.4808    3.6385   -0.0010 H       1  LIG1        0.0618
@<TRIPOS>BOND
     1    25    20    1
     2    21    18    1
     3    20    18   ar
     4    20    23   ar
     5    18    17   ar
     6    27    23    1
     7    23    22   ar
     8     2     8    1
     9     2     1   ar
    10     2     3   ar
    11    17    26    1
    12    17    19   ar
    13     6     5    1
    14     4    10    1
    15     4     5   ar
    16     4     3   ar
    17    10    11   ar
    18    10    14   ar
    19    15    11    1
    20    11    12   ar
    21     5     1   ar
    22    14    13   ar
    23     1     7    1
    24    12    13   ar
    25    12    16    1
    26    22    19   ar
    27    22    24    1
    28    13    19    1
    29     3     9    1
