@<TRIPOS>MOLECULE
mol_data/noopt/geoms/mol2/13134-.out
 28 30 0 0 0
SMALL
GASTEIGER

@<TRIPOS>ATOM
      1 C           1.1215   -0.3259    0.0002 C.ar    1  LIG1        0.0022
      2 C           0.7176    0.9721   -0.0005 C.ar    1  LIG1       -0.0438
      3 C          -0.7144    0.9744    0.0003 C.ar    1  LIG1       -0.0350
      4 C          -1.1226   -0.3223   -0.0003 C.ar    1  LIG1        0.0629
      5 N          -0.0018   -1.1217    0.0001 N.ar    1  LIG1       -0.3595
      6 H          -0.0034   -2.1157   -0.0003 H       1  LIG1        0.1654
      7 H           2.3167   -0.8373    0.0007 H       1  LIG1        0.0807
      8 H           1.4918    2.0164   -0.0003 H       1  LIG1        0.0633
      9 H          -1.4853    2.0212    0.0010 H       1  LIG1        0.0639
     10 C          -2.3194   -0.8299   -0.0001 C.ar    1  LIG1        0.0633
     11 C          -3.5353   -0.2219   -0.0003 C.ar    1  LIG1       -0.0344
     12 C          -4.5290   -1.2530    0.0012 C.ar    1  LIG1       -0.0358
     13 C          -3.8767   -2.4457    0.0005 C.ar    1  LIG1        0.0469
     14 N          -2.5238   -2.1913    0.0002 N.ar    1  LIG1       -0.3530
     15 H          -1.8081   -2.8811   -0.0004 H       1  LIG1        0.1659
     16 H          -3.7520    1.0599   -0.0003 H       1  LIG1        0.0639
     17 H          -5.8179   -1.0837    0.0025 H       1  LIG1        0.0639
     18 C          -3.4478   -4.7522    0.0008 C.ar    1  LIG1       -0.0526
     19 C          -3.9992   -6.0481    0.0000 C.ar    1  LIG1       -0.0611
     20 C          -4.3398   -3.6604    0.0012 C.ar    1  LIG1       -0.0017
     21 C          -5.3775   -6.2503    0.0003 C.ar    1  LIG1       -0.0617
     22 H          -3.3289   -6.9047   -0.0005 H       1  LIG1        0.0618
     23 C          -5.7159   -3.8617    0.0014 C.ar    1  LIG1       -0.0526
     24 C          -6.2443   -5.1567    0.0010 C.ar    1  LIG1       -0.0611
     25 H          -6.3830   -3.0034    0.0016 H       1  LIG1        0.0624
     26 H          -5.8523   -7.4604   -0.0004 H       1  LIG1        0.0618
     27 H          -2.1538   -4.6271    0.0008 H       1  LIG1        0.0624
     28 H          -7.5315   -5.3388    0.0011 H       1  LIG1        0.0618
@<TRIPOS>BOND
     1     2     8    1
     2     2     1   ar
     3     2     3   ar
     4    22    19    1
     5    15    14    1
     6    26    21    1
     7    11    16    1
     8    11    10   ar
     9    11    12   ar
    10     4    10    1
    11     4     5   ar
    12     4     3   ar
    13     6     5    1
    14    10    14   ar
    15    19    21   ar
    16    19    18   ar
    17     5     1   ar
    18    14    13   ar
    19     1     7    1
    20    21    24   ar
    21     3     9    1
    22    13    12   ar
    23    13    20    1
    24    18    27    1
    25    18    20   ar
    26    24    28    1
    27    24    23   ar
    28    12    17    1
    29    20    23   ar
    30    23    25    1
