@<TRIPOS>MOLECULE
mol_data/noopt/geoms/mol2/131312-5.out
 32 35 0 0 0
SMALL
GASTEIGER

@<TRIPOS>ATOM
      1 C           1.1215   -0.3259    0.0002 C.ar    1  LIG1        0.0022
      2 C           0.7176    0.9721   -0.0005 C.ar    1  LIG1       -0.0438
      3 C          -0.7144    0.9744    0.0003 C.ar    1  LIG1       -0.0350
      4 C          -1.1226   -0.3223   -0.0003 C.ar    1  LIG1        0.0629
      5 N          -0.0018   -1.1217    0.0001 N.ar    1  LIG1       -0.3595
      6 H          -0.0034   -2.1157   -0.0003 H       1  LIG1        0.1654
      7 H           2.3167   -0.8373    0.0007 H       1  LIG1        0.0807
      8 H           1.4918    2.0164   -0.0003 H       1  LIG1        0.0633
      9 H          -1.4853    2.0212    0.0010 H       1  LIG1        0.0639
     10 C          -2.3194   -0.8299   -0.0001 C.ar    1  LIG1        0.0634
     11 C          -3.5353   -0.2219   -0.0003 C.ar    1  LIG1       -0.0343
     12 C          -4.5290   -1.2530    0.0012 C.ar    1  LIG1       -0.0328
     13 C          -3.8767   -2.4457    0.0005 C.ar    1  LIG1        0.0826
     14 N          -2.5238   -2.1913    0.0002 N.ar    1  LIG1       -0.3506
     15 H          -1.8081   -2.8811   -0.0004 H       1  LIG1        0.1660
     16 H          -3.7520    1.0599   -0.0003 H       1  LIG1        0.0639
     17 H          -5.8179   -1.0837    0.0025 H       1  LIG1        0.0640
     18 C          -4.3398   -3.6604    0.0012 C.ar    1  LIG1        0.1518
     19 C          -3.7861   -4.9239    0.0017 C.ar    1  LIG1       -0.0138
     20 C          -4.8903   -5.8607    0.0024 C.ar    1  LIG1       -0.0147
     21 C          -6.0461   -5.1071    0.0023 C.ar    1  LIG1        0.1423
     22 O          -5.7327   -3.7475    0.0017 O.2     1  LIG1       -0.4528
     23 H          -2.5251   -5.2401    0.0016 H       1  LIG1        0.0656
     24 H          -4.7847   -7.1564    0.0030 H       1  LIG1        0.0656
     25 C          -7.3202   -5.3653    0.0026 C.ar    1  LIG1        0.0544
     26 C          -8.3296   -4.4285    0.0025 C.ar    1  LIG1       -0.0440
     27 C          -9.6210   -5.0475    0.0022 C.ar    1  LIG1       -0.0540
     28 C          -9.5228   -6.4212    0.0030 C.ar    1  LIG1       -0.0236
     29 S          -7.9278   -6.9233    0.0033 S.2     1  LIG1       -0.0936
     30 H         -10.5219   -7.2529    0.0036 H       1  LIG1        0.0693
     31 H          -8.1598   -3.1396    0.0024 H       1  LIG1        0.0630
     32 H         -10.7322   -4.3728    0.0013 H       1  LIG1        0.0623
@<TRIPOS>BOND
     1     2     8    1
     2     2     1   ar
     3     2     3   ar
     4    15    14    1
     5    11    16    1
     6    11    10   ar
     7    11    12   ar
     8     4    10    1
     9     4     5   ar
    10     4     3   ar
    11     6     5    1
    12    10    14   ar
    13     5     1   ar
    14    14    13   ar
    15     1     7    1
    16     3     9    1
    17    13    12   ar
    18    13    18    1
    19    12    17    1
    20    18    22   ar
    21    18    19   ar
    22    32    27    1
    23    23    19    1
    24    22    21   ar
    25    19    20   ar
    26    27    26   ar
    27    27    28   ar
    28    21    20   ar
    29    21    25    1
    30    31    26    1
    31    20    24    1
    32    26    25   ar
    33    25    29   ar
    34    28    29   ar
    35    28    30    1
