@<TRIPOS>MOLECULE
mol_data/noopt/geoms/mol2/131355-.out
 32 35 0 0 0
SMALL
GASTEIGER

@<TRIPOS>ATOM
      1 C           1.1215   -0.3259    0.0002 C.ar    1  LIG1        0.0022
      2 C           0.7176    0.9721   -0.0005 C.ar    1  LIG1       -0.0438
      3 C          -0.7144    0.9744    0.0003 C.ar    1  LIG1       -0.0350
      4 C          -1.1226   -0.3223   -0.0003 C.ar    1  LIG1        0.0629
      5 N          -0.0018   -1.1217    0.0001 N.ar    1  LIG1       -0.3595
      6 H          -0.0034   -2.1157   -0.0003 H       1  LIG1        0.1654
      7 H           2.3167   -0.8373    0.0007 H       1  LIG1        0.0807
      8 H           1.4918    2.0164   -0.0003 H       1  LIG1        0.0633
      9 H          -1.4853    2.0212    0.0010 H       1  LIG1        0.0639
     10 C          -2.3194   -0.8299   -0.0001 C.ar    1  LIG1        0.0633
     11 C          -3.5353   -0.2219   -0.0003 C.ar    1  LIG1       -0.0344
     12 C          -4.5290   -1.2530    0.0012 C.ar    1  LIG1       -0.0353
     13 C          -3.8767   -2.4457    0.0005 C.ar    1  LIG1        0.0536
     14 N          -2.5238   -2.1913    0.0002 N.ar    1  LIG1       -0.3526
     15 H          -1.8081   -2.8811   -0.0004 H       1  LIG1        0.1660
     16 H          -3.7520    1.0599   -0.0003 H       1  LIG1        0.0639
     17 H          -5.8179   -1.0837    0.0025 H       1  LIG1        0.0639
     18 C          -4.3398   -3.6604    0.0012 C.ar    1  LIG1        0.0361
     19 C          -5.6712   -4.0125    0.0012 C.ar    1  LIG1       -0.0449
     20 C          -5.8386   -5.4348    0.0013 C.ar    1  LIG1       -0.0458
     21 C          -4.6253   -6.0863    0.0022 C.ar    1  LIG1        0.0265
     22 S          -3.3482   -5.0069    0.0021 S.2     1  LIG1       -0.0863
     23 H          -6.6696   -3.1798    0.0010 H       1  LIG1        0.0630
     24 H          -7.0030   -6.0130    0.0007 H       1  LIG1        0.0629
     25 C          -4.4567   -7.3753    0.0030 C.ar    1  LIG1        0.0259
     26 C          -3.2433   -8.0267    0.0037 C.ar    1  LIG1       -0.0464
     27 C          -3.4105   -9.4490    0.0053 C.ar    1  LIG1       -0.0541
     28 C          -4.7419   -9.8012    0.0050 C.ar    1  LIG1       -0.0237
     29 S          -5.7337   -8.4550    0.0036 S.2     1  LIG1       -0.0961
     30 H          -5.2050  -11.0160    0.0057 H       1  LIG1        0.0693
     31 H          -2.0790   -7.4484    0.0031 H       1  LIG1        0.0629
     32 H          -2.4121  -10.2816    0.0069 H       1  LIG1        0.0623
@<TRIPOS>BOND
     1     2     8    1
     2     2     1   ar
     3     2     3   ar
     4    15    14    1
     5    11    16    1
     6    11    10   ar
     7    11    12   ar
     8     4    10    1
     9     4     5   ar
    10     4     3   ar
    11     6     5    1
    12    10    14   ar
    13     5     1   ar
    14    14    13   ar
    15     1     7    1
    16     3     9    1
    17    13    12   ar
    18    13    18    1
    19    24    20    1
    20    23    19    1
    21    12    17    1
    22    18    19   ar
    23    18    22   ar
    24    19    20   ar
    25    20    21   ar
    26    22    21   ar
    27    21    25    1
    28    25    29   ar
    29    25    26   ar
    30    31    26    1
    31    29    28   ar
    32    26    27   ar
    33    28    27   ar
    34    28    30    1
    35    27    32    1
