@<TRIPOS>MOLECULE
mol_data/noopt/geoms/mol2/1313-813.out
 32 35 0 0 0
SMALL
GASTEIGER

@<TRIPOS>ATOM
      1 C           1.1215   -0.3259    0.0002 C.ar    1  LIG1        0.0022
      2 C           0.7176    0.9721   -0.0005 C.ar    1  LIG1       -0.0438
      3 C          -0.7144    0.9744    0.0003 C.ar    1  LIG1       -0.0350
      4 C          -1.1226   -0.3223   -0.0003 C.ar    1  LIG1        0.0629
      5 N          -0.0018   -1.1217    0.0001 N.ar    1  LIG1       -0.3595
      6 H          -0.0034   -2.1157   -0.0003 H       1  LIG1        0.1654
      7 H           2.3167   -0.8373    0.0007 H       1  LIG1        0.0807
      8 H           1.4918    2.0164   -0.0003 H       1  LIG1        0.0633
      9 H          -1.4853    2.0212    0.0010 H       1  LIG1        0.0639
     10 C          -2.3194   -0.8299   -0.0001 C.ar    1  LIG1        0.0634
     11 C          -2.7274   -2.1266    0.0005 C.ar    1  LIG1       -0.0343
     12 C          -4.1594   -2.1244   -0.0006 C.ar    1  LIG1       -0.0326
     13 C          -4.5635   -0.8264   -0.0002 C.ar    1  LIG1        0.0880
     14 N          -3.4402   -0.0305   -0.0003 N.ar    1  LIG1       -0.3505
     15 H          -3.4386    0.9635    0.0000 H       1  LIG1        0.1660
     16 H          -1.9565   -3.1734    0.0006 H       1  LIG1        0.0639
     17 H          -4.9336   -3.1687   -0.0015 H       1  LIG1        0.0640
     18 C          -5.7587   -0.3150   -0.0007 C.ar    1  LIG1        0.2194
     19 N          -5.8396    1.0437   -0.0010 N.ar    1  LIG1       -0.1237
     20 C          -8.2371    0.7453   -0.0018 C.ar    1  LIG1        0.2194
     21 N          -6.7974   -1.1948   -0.0010 N.ar    1  LIG1       -0.1237
     22 N          -7.0871    1.5584   -0.0015 N.ar    1  LIG1       -0.1237
     23 N          -8.0311   -0.6478   -0.0016 N.ar    1  LIG1       -0.1237
     24 C          -9.4323    1.2567   -0.0024 C.ar    1  LIG1        0.0875
     25 C          -9.8362    2.5547   -0.0031 C.ar    1  LIG1       -0.0333
     26 C         -11.2682    2.5570   -0.0023 C.ar    1  LIG1       -0.0437
     27 C         -11.6764    1.2603   -0.0029 C.ar    1  LIG1        0.0023
     28 N         -10.5556    0.4609   -0.0025 N.ar    1  LIG1       -0.3582
     29 H         -10.5572   -0.5331   -0.0029 H       1  LIG1        0.1654
     30 H         -12.8732    0.7527   -0.0028 H       1  LIG1        0.0807
     31 H          -9.0620    3.5991   -0.0029 H       1  LIG1        0.0640
     32 H         -12.0391    3.6038   -0.0017 H       1  LIG1        0.0633
@<TRIPOS>BOND
     1    25    31    1
     2    25    24   ar
     3    25    26   ar
     4    27    30    1
     5    27    28   ar
     6    27    26   ar
     7    29    28    1
     8    28    24   ar
     9    24    20    1
    10    26    32    1
    11    20    23   ar
    12    20    22   ar
    13    23    21   ar
    14    22    19   ar
    15    17    12    1
    16    21    18   ar
    17    19    18   ar
    18    18    13    1
    19    12    13   ar
    20    12    11   ar
    21     2     8    1
    22     2     1   ar
    23     2     3   ar
    24    14    13   ar
    25    14    10   ar
    26    14    15    1
    27     6     5    1
    28     4    10    1
    29     4     5   ar
    30     4     3   ar
    31    10    11   ar
    32     5     1   ar
    33     1     7    1
    34     3     9    1
    35    11    16    1
