@<TRIPOS>MOLECULE
mol_data/noopt/geoms/mol2/1313128-.out
 31 34 0 0 0
SMALL
GASTEIGER

@<TRIPOS>ATOM
      1 C           1.1215   -0.3259    0.0002 C.ar    1  LIG1        0.0022
      2 C           0.7176    0.9721   -0.0005 C.ar    1  LIG1       -0.0438
      3 C          -0.7144    0.9744    0.0003 C.ar    1  LIG1       -0.0350
      4 C          -1.1226   -0.3223   -0.0003 C.ar    1  LIG1        0.0629
      5 N          -0.0018   -1.1217    0.0001 N.ar    1  LIG1       -0.3595
      6 H          -0.0034   -2.1157   -0.0003 H       1  LIG1        0.1654
      7 H           2.3167   -0.8373    0.0007 H       1  LIG1        0.0807
      8 H           1.4918    2.0164   -0.0003 H       1  LIG1        0.0633
      9 H          -1.4853    2.0212    0.0010 H       1  LIG1        0.0639
     10 C          -2.3194   -0.8299   -0.0001 C.ar    1  LIG1        0.0634
     11 C          -3.5353   -0.2219   -0.0003 C.ar    1  LIG1       -0.0343
     12 C          -4.5290   -1.2530    0.0012 C.ar    1  LIG1       -0.0328
     13 C          -3.8767   -2.4457    0.0005 C.ar    1  LIG1        0.0826
     14 N          -2.5238   -2.1913    0.0002 N.ar    1  LIG1       -0.3506
     15 H          -1.8081   -2.8811   -0.0004 H       1  LIG1        0.1660
     16 H          -3.7520    1.0599   -0.0003 H       1  LIG1        0.0639
     17 H          -5.8179   -1.0837    0.0025 H       1  LIG1        0.0640
     18 C          -4.3398   -3.6604    0.0012 C.ar    1  LIG1        0.1519
     19 C          -5.5941   -4.2347    0.0017 C.ar    1  LIG1       -0.0137
     20 C          -5.3937   -5.6688    0.0024 C.ar    1  LIG1       -0.0120
     21 C          -4.0296   -5.8759    0.0021 C.ar    1  LIG1        0.1760
     22 O          -3.3584   -4.6527    0.0013 O.2     1  LIG1       -0.4501
     23 H          -6.7455   -3.6311    0.0017 H       1  LIG1        0.0656
     24 H          -6.3351   -6.5653    0.0030 H       1  LIG1        0.0657
     25 C          -3.2508   -6.9167    0.0025 C.ar    1  LIG1        0.2381
     26 N          -1.9113   -6.6749    0.0027 N.ar    1  LIG1       -0.1226
     27 C          -1.6358   -9.0751    0.0033 C.ar    1  LIG1        0.1605
     28 N          -3.8607   -8.1336    0.0027 N.ar    1  LIG1       -0.1226
     29 N          -1.1169   -7.7658    0.0030 N.ar    1  LIG1       -0.1338
     30 N          -3.0382   -9.2035    0.0031 N.ar    1  LIG1       -0.1338
     31 H          -0.8569  -10.1160    0.0036 H       1  LIG1        0.1085
@<TRIPOS>BOND
     1     2     8    1
     2     2     1   ar
     3     2     3   ar
     4    15    14    1
     5    11    16    1
     6    11    10   ar
     7    11    12   ar
     8     4    10    1
     9     4     5   ar
    10     4     3   ar
    11     6     5    1
    12    10    14   ar
    13     5     1   ar
    14    14    13   ar
    15     1     7    1
    16     3     9    1
    17    13    12   ar
    18    13    18    1
    19    12    17    1
    20    18    22   ar
    21    18    19   ar
    22    22    21   ar
    23    19    23    1
    24    19    20   ar
    25    21    20   ar
    26    21    25    1
    27    20    24    1
    28    25    26   ar
    29    25    28   ar
    30    26    29   ar
    31    28    30   ar
    32    29    27   ar
    33    30    27   ar
    34    27    31    1
