@<TRIPOS>MOLECULE
mol_data/noopt/geoms/mol2/1313.out
 18 19 0 0 0
SMALL
GASTEIGER

@<TRIPOS>ATOM
      1 C           1.1215   -0.3259    0.0002 C.ar    1  LIG1        0.0022
      2 C           0.7176    0.9721   -0.0005 C.ar    1  LIG1       -0.0438
      3 C          -0.7144    0.9744    0.0003 C.ar    1  LIG1       -0.0350
      4 C          -1.1226   -0.3223   -0.0003 C.ar    1  LIG1        0.0629
      5 N          -0.0018   -1.1217    0.0001 N.ar    1  LIG1       -0.3595
      6 H          -0.0034   -2.1157   -0.0003 H       1  LIG1        0.1654
      7 H           2.3167   -0.8373    0.0007 H       1  LIG1        0.0807
      8 H           1.4918    2.0164   -0.0003 H       1  LIG1        0.0633
      9 H          -1.4853    2.0212    0.0010 H       1  LIG1        0.0639
     10 C          -2.3194   -0.8299   -0.0001 C.ar    1  LIG1        0.0629
     11 C          -3.5353   -0.2219   -0.0003 C.ar    1  LIG1       -0.0350
     12 C          -4.5290   -1.2530    0.0012 C.ar    1  LIG1       -0.0438
     13 C          -3.8767   -2.4457    0.0005 C.ar    1  LIG1        0.0022
     14 N          -2.5238   -2.1913    0.0002 N.ar    1  LIG1       -0.3595
     15 H          -1.8081   -2.8811   -0.0004 H       1  LIG1        0.1654
     16 H          -4.3398   -3.6604    0.0012 H       1  LIG1        0.0807
     17 H          -3.7520    1.0599   -0.0003 H       1  LIG1        0.0639
     18 H          -5.8179   -1.0837    0.0025 H       1  LIG1        0.0633
@<TRIPOS>BOND
     1     2     8    1
     2     2     1   ar
     3     2     3   ar
     4    15    14    1
     5    11    17    1
     6    11    10   ar
     7    11    12   ar
     8     4    10    1
     9     4     5   ar
    10     4     3   ar
    11     6     5    1
    12    10    14   ar
    13     5     1   ar
    14    14    13   ar
    15     1     7    1
    16     3     9    1
    17    13    12   ar
    18    13    16    1
    19    12    18    1
