@<TRIPOS>MOLECULE
mol_data/noopt/geoms/mol2/1313-13-.out
 26 28 0 0 0
SMALL
GASTEIGER

@<TRIPOS>ATOM
      1 C           1.1215   -0.3259    0.0002 C.ar    1  LIG1        0.0022
      2 C           0.7176    0.9721   -0.0005 C.ar    1  LIG1       -0.0438
      3 C          -0.7144    0.9744    0.0003 C.ar    1  LIG1       -0.0350
      4 C          -1.1226   -0.3223   -0.0003 C.ar    1  LIG1        0.0629
      5 N          -0.0018   -1.1217    0.0001 N.ar    1  LIG1       -0.3595
      6 H          -0.0034   -2.1157   -0.0003 H       1  LIG1        0.1654
      7 H           2.3167   -0.8373    0.0007 H       1  LIG1        0.0807
      8 H           1.4918    2.0164   -0.0003 H       1  LIG1        0.0633
      9 H          -1.4853    2.0212    0.0010 H       1  LIG1        0.0639
     10 C          -2.3194   -0.8299   -0.0001 C.ar    1  LIG1        0.0633
     11 C          -2.7274   -2.1266    0.0005 C.ar    1  LIG1       -0.0343
     12 C          -4.1594   -2.1244   -0.0006 C.ar    1  LIG1       -0.0343
     13 C          -4.5635   -0.8264   -0.0002 C.ar    1  LIG1        0.0633
     14 N          -3.4402   -0.0305   -0.0003 N.ar    1  LIG1       -0.3519
     15 H          -3.4386    0.9635    0.0000 H       1  LIG1        0.1660
     16 H          -1.9565   -3.1734    0.0006 H       1  LIG1        0.0639
     17 H          -4.9336   -3.1687   -0.0015 H       1  LIG1        0.0639
     18 C          -5.7587   -0.3150   -0.0007 C.ar    1  LIG1        0.0629
     19 C          -6.9765   -0.9191   -0.0006 C.ar    1  LIG1       -0.0350
     20 C          -7.9670    0.1151   -0.0025 C.ar    1  LIG1       -0.0438
     21 C          -7.3109    1.3057   -0.0020 C.ar    1  LIG1        0.0022
     22 N          -5.9587    1.0470   -0.0014 N.ar    1  LIG1       -0.3595
     23 H          -5.2408    1.7345   -0.0008 H       1  LIG1        0.1654
     24 H          -7.7701    2.5219   -0.0030 H       1  LIG1        0.0807
     25 H          -7.1973   -2.2002   -0.0004 H       1  LIG1        0.0639
     26 H          -9.2564   -0.0501   -0.0040 H       1  LIG1        0.0633
@<TRIPOS>BOND
     1    26    20    1
     2    24    21    1
     3    20    21   ar
     4    20    19   ar
     5    21    22   ar
     6    17    12    1
     7    22    23    1
     8    22    18   ar
     9    18    19   ar
    10    18    13    1
    11    12    13   ar
    12    12    11   ar
    13    19    25    1
    14     2     8    1
    15     2     1   ar
    16     2     3   ar
    17    14    13   ar
    18    14    10   ar
    19    14    15    1
    20     6     5    1
    21     4    10    1
    22     4     5   ar
    23     4     3   ar
    24    10    11   ar
    25     5     1   ar
    26     1     7    1
    27     3     9    1
    28    11    16    1
