@<TRIPOS>MOLECULE
mol_data/noopt/geoms/mol2/131313-8.out
 32 35 0 0 0
SMALL
GASTEIGER

@<TRIPOS>ATOM
      1 C           1.1215   -0.3259    0.0002 C.ar    1  LIG1        0.0022
      2 C           0.7176    0.9721   -0.0005 C.ar    1  LIG1       -0.0438
      3 C          -0.7144    0.9744    0.0003 C.ar    1  LIG1       -0.0350
      4 C          -1.1226   -0.3223   -0.0003 C.ar    1  LIG1        0.0629
      5 N          -0.0018   -1.1217    0.0001 N.ar    1  LIG1       -0.3595
      6 H          -0.0034   -2.1157   -0.0003 H       1  LIG1        0.1654
      7 H           2.3167   -0.8373    0.0007 H       1  LIG1        0.0807
      8 H           1.4918    2.0164   -0.0003 H       1  LIG1        0.0633
      9 H          -1.4853    2.0212    0.0010 H       1  LIG1        0.0639
     10 C          -2.3194   -0.8299   -0.0001 C.ar    1  LIG1        0.0633
     11 C          -3.5353   -0.2219   -0.0003 C.ar    1  LIG1       -0.0343
     12 C          -4.5290   -1.2530    0.0012 C.ar    1  LIG1       -0.0343
     13 C          -3.8767   -2.4457    0.0005 C.ar    1  LIG1        0.0634
     14 N          -2.5238   -2.1913    0.0002 N.ar    1  LIG1       -0.3519
     15 H          -1.8081   -2.8811   -0.0004 H       1  LIG1        0.1660
     16 H          -3.7520    1.0599   -0.0003 H       1  LIG1        0.0639
     17 H          -5.8179   -1.0837    0.0025 H       1  LIG1        0.0639
     18 C          -4.3398   -3.6604    0.0012 C.ar    1  LIG1        0.0634
     19 C          -3.6874   -4.8530    0.0022 C.ar    1  LIG1       -0.0343
     20 C          -4.6811   -5.8841    0.0015 C.ar    1  LIG1       -0.0326
     21 C          -5.8970   -5.2763    0.0019 C.ar    1  LIG1        0.0880
     22 N          -5.6927   -3.9149    0.0012 N.ar    1  LIG1       -0.3505
     23 H          -6.4084   -3.2251    0.0015 H       1  LIG1        0.1660
     24 H          -2.3984   -5.0223    0.0021 H       1  LIG1        0.0639
     25 H          -4.4643   -7.1660    0.0010 H       1  LIG1        0.0640
     26 C          -7.0938   -5.7839    0.0017 C.ar    1  LIG1        0.2193
     27 N          -8.1297   -4.9009    0.0016 N.ar    1  LIG1       -0.1243
     28 C          -9.5755   -6.8366    0.0013 C.ar    1  LIG1        0.1605
     29 N          -7.1790   -7.1424    0.0016 N.ar    1  LIG1       -0.1243
     30 N          -9.3651   -5.4440    0.0014 N.ar    1  LIG1       -0.1338
     31 N          -8.4281   -7.6531    0.0013 N.ar    1  LIG1       -0.1338
     32 H         -10.7723   -7.3442    0.0011 H       1  LIG1        0.1085
@<TRIPOS>BOND
     1     2     8    1
     2     2     1   ar
     3     2     3   ar
     4    15    14    1
     5    11    16    1
     6    11    10   ar
     7    11    12   ar
     8     4    10    1
     9     4     5   ar
    10     4     3   ar
    11     6     5    1
    12    10    14   ar
    13     5     1   ar
    14    14    13   ar
    15     1     7    1
    16     3     9    1
    17    13    12   ar
    18    13    18    1
    19    25    20    1
    20    32    28    1
    21    12    17    1
    22    18    22   ar
    23    18    19   ar
    24    22    23    1
    25    22    21   ar
    26    28    31   ar
    27    28    30   ar
    28    31    29   ar
    29    30    27   ar
    30    20    21   ar
    31    20    19   ar
    32    27    26   ar
    33    29    26   ar
    34    26    21    1
    35    24    19    1
