@<TRIPOS>MOLECULE
mol_data/noopt/geoms/mol2/13138-12-.out
 31 34 0 0 0
SMALL
GASTEIGER

@<TRIPOS>ATOM
      1 C           1.1215   -0.3259    0.0002 C.ar    1  LIG1        0.0022
      2 C           0.7176    0.9721   -0.0005 C.ar    1  LIG1       -0.0438
      3 C          -0.7144    0.9744    0.0003 C.ar    1  LIG1       -0.0350
      4 C          -1.1226   -0.3223   -0.0003 C.ar    1  LIG1        0.0629
      5 N          -0.0018   -1.1217    0.0001 N.ar    1  LIG1       -0.3595
      6 H          -0.0034   -2.1157   -0.0003 H       1  LIG1        0.1654
      7 H           2.3167   -0.8373    0.0007 H       1  LIG1        0.0807
      8 H           1.4918    2.0164   -0.0003 H       1  LIG1        0.0633
      9 H          -1.4853    2.0212    0.0010 H       1  LIG1        0.0639
     10 C          -2.3194   -0.8299   -0.0001 C.ar    1  LIG1        0.0634
     11 C          -3.5353   -0.2219   -0.0003 C.ar    1  LIG1       -0.0343
     12 C          -4.5290   -1.2530    0.0012 C.ar    1  LIG1       -0.0326
     13 C          -3.8767   -2.4457    0.0005 C.ar    1  LIG1        0.0880
     14 N          -2.5238   -2.1913    0.0002 N.ar    1  LIG1       -0.3505
     15 H          -1.8081   -2.8811   -0.0004 H       1  LIG1        0.1660
     16 H          -3.7520    1.0599   -0.0003 H       1  LIG1        0.0639
     17 H          -5.8179   -1.0837    0.0025 H       1  LIG1        0.0640
     18 C          -4.3398   -3.6604    0.0012 C.ar    1  LIG1        0.2194
     19 N          -3.4192   -4.6630    0.0015 N.ar    1  LIG1       -0.1236
     20 C          -5.3002   -6.1792    0.0026 C.ar    1  LIG1        0.2381
     21 N          -5.6942   -3.7957    0.0015 N.ar    1  LIG1       -0.1236
     22 N          -3.9163   -5.9176    0.0022 N.ar    1  LIG1       -0.1220
     23 N          -6.1585   -5.0628    0.0023 N.ar    1  LIG1       -0.1220
     24 C          -5.7632   -7.3940    0.0033 C.ar    1  LIG1        0.1751
     25 C          -5.2095   -8.6575    0.0038 C.ar    1  LIG1       -0.0126
     26 C          -6.3138   -9.5942    0.0045 C.ar    1  LIG1       -0.0232
     27 C          -7.4695   -8.8407    0.0044 C.ar    1  LIG1        0.0927
     28 O          -7.1561   -7.4810    0.0038 O.2     1  LIG1       -0.4597
     29 H          -8.7436   -9.0989    0.0048 H       1  LIG1        0.1029
     30 H          -3.9486   -8.9736    0.0037 H       1  LIG1        0.0656
     31 H          -6.2081  -10.8899    0.0051 H       1  LIG1        0.0649
@<TRIPOS>BOND
     1     2     8    1
     2     2     1   ar
     3     2     3   ar
     4    15    14    1
     5    11    16    1
     6    11    10   ar
     7    11    12   ar
     8     4    10    1
     9     4     5   ar
    10     4     3   ar
    11     6     5    1
    12    10    14   ar
    13     5     1   ar
    14    14    13   ar
    15     1     7    1
    16     3     9    1
    17    13    12   ar
    18    13    18    1
    19    12    17    1
    20    18    19   ar
    21    18    21   ar
    22    19    22   ar
    23    21    23   ar
    24    22    20   ar
    25    23    20   ar
    26    20    24    1
    27    24    28   ar
    28    24    25   ar
    29    30    25    1
    30    28    27   ar
    31    25    26   ar
    32    27    26   ar
    33    27    29    1
    34    26    31    1
