@<TRIPOS>MOLECULE
mol_data/noopt/geoms/mol2/1313-124.out
 35 38 0 0 0
SMALL
GASTEIGER

@<TRIPOS>ATOM
      1 C           1.1215   -0.3259    0.0002 C.ar    1  LIG1        0.0022
      2 C           0.7176    0.9721   -0.0005 C.ar    1  LIG1       -0.0438
      3 C          -0.7144    0.9744    0.0003 C.ar    1  LIG1       -0.0350
      4 C          -1.1226   -0.3223   -0.0003 C.ar    1  LIG1        0.0629
      5 N          -0.0018   -1.1217    0.0001 N.ar    1  LIG1       -0.3595
      6 H          -0.0034   -2.1157   -0.0003 H       1  LIG1        0.1654
      7 H           2.3167   -0.8373    0.0007 H       1  LIG1        0.0807
      8 H           1.4918    2.0164   -0.0003 H       1  LIG1        0.0633
      9 H          -1.4853    2.0212    0.0010 H       1  LIG1        0.0639
     10 C          -2.3194   -0.8299   -0.0001 C.ar    1  LIG1        0.0634
     11 C          -2.7274   -2.1266    0.0005 C.ar    1  LIG1       -0.0343
     12 C          -4.1594   -2.1244   -0.0006 C.ar    1  LIG1       -0.0328
     13 C          -4.5635   -0.8264   -0.0002 C.ar    1  LIG1        0.0826
     14 N          -3.4402   -0.0305   -0.0003 N.ar    1  LIG1       -0.3506
     15 H          -3.4386    0.9635    0.0000 H       1  LIG1        0.1660
     16 H          -1.9565   -3.1734    0.0006 H       1  LIG1        0.0639
     17 H          -4.9336   -3.1687   -0.0015 H       1  LIG1        0.0640
     18 C          -5.7587   -0.3150   -0.0007 C.ar    1  LIG1        0.1518
     19 C          -6.2822    0.9613   -0.0011 C.ar    1  LIG1       -0.0138
     20 C          -7.7232    0.8186   -0.0017 C.ar    1  LIG1       -0.0152
     21 C          -7.9848   -0.5361   -0.0016 C.ar    1  LIG1        0.1358
     22 O          -6.7895   -1.2558   -0.0012 O.2     1  LIG1       -0.4534
     23 H          -5.6330    2.0876   -0.0010 H       1  LIG1        0.0656
     24 H          -8.5813    1.7951   -0.0021 H       1  LIG1        0.0656
     25 C         -10.3274   -0.6633   -0.0013 C.ar    1  LIG1       -0.0511
     26 C         -11.4566   -1.5048   -0.0001 C.ar    1  LIG1       -0.0611
     27 C          -9.0560   -1.2726   -0.0019 C.ar    1  LIG1        0.0173
     28 C         -11.3280   -2.8919   -0.0001 C.ar    1  LIG1       -0.0617
     29 H         -12.4472   -1.0554    0.0006 H       1  LIG1        0.0618
     30 C          -8.9270   -2.6574   -0.0019 C.ar    1  LIG1       -0.0511
     31 C         -10.0609   -3.4764   -0.0011 C.ar    1  LIG1       -0.0611
     32 H          -7.9357   -3.1032   -0.0023 H       1  LIG1        0.0625
     33 H         -12.3921   -3.6388    0.0009 H       1  LIG1        0.0618
     34 H         -10.5110    0.6237   -0.0015 H       1  LIG1        0.0625
     35 H          -9.9342   -4.7702   -0.0010 H       1  LIG1        0.0618
@<TRIPOS>BOND
     1    32    30    1
     2    24    20    1
     3    30    27   ar
     4    30    31   ar
     5    27    21    1
     6    27    25   ar
     7    20    21   ar
     8    20    19   ar
     9    21    22   ar
    10    34    25    1
    11    17    12    1
    12    25    26   ar
    13    22    18   ar
    14    31    35    1
    15    31    28   ar
    16    19    23    1
    17    19    18   ar
    18    18    13    1
    19    12    13   ar
    20    12    11   ar
    21     2     8    1
    22     2     1   ar
    23     2     3   ar
    24    14    13   ar
    25    14    10   ar
    26    14    15    1
    27     4    10    1
    28     4     5   ar
    29     4     3   ar
    30     6     5    1
    31    28    26   ar
    32    28    33    1
    33    26    29    1
    34    10    11   ar
    35     5     1   ar
    36     1     7    1
    37     3     9    1
    38    11    16    1
