@<TRIPOS>MOLECULE
mol_data/noopt/geoms/mol2/1313-84.out
 34 37 0 0 0
SMALL
GASTEIGER

@<TRIPOS>ATOM
      1 C           1.1215   -0.3259    0.0002 C.ar    1  LIG1        0.0022
      2 C           0.7176    0.9721   -0.0005 C.ar    1  LIG1       -0.0438
      3 C          -0.7144    0.9744    0.0003 C.ar    1  LIG1       -0.0350
      4 C          -1.1226   -0.3223   -0.0003 C.ar    1  LIG1        0.0629
      5 N          -0.0018   -1.1217    0.0001 N.ar    1  LIG1       -0.3595
      6 H          -0.0034   -2.1157   -0.0003 H       1  LIG1        0.1654
      7 H           2.3167   -0.8373    0.0007 H       1  LIG1        0.0807
      8 H           1.4918    2.0164   -0.0003 H       1  LIG1        0.0633
      9 H          -1.4853    2.0212    0.0010 H       1  LIG1        0.0639
     10 C          -2.3194   -0.8299   -0.0001 C.ar    1  LIG1        0.0634
     11 C          -2.7274   -2.1266    0.0005 C.ar    1  LIG1       -0.0343
     12 C          -4.1594   -2.1244   -0.0006 C.ar    1  LIG1       -0.0326
     13 C          -4.5635   -0.8264   -0.0002 C.ar    1  LIG1        0.0880
     14 N          -3.4402   -0.0305   -0.0003 N.ar    1  LIG1       -0.3505
     15 H          -3.4386    0.9635    0.0000 H       1  LIG1        0.1660
     16 H          -1.9565   -3.1734    0.0006 H       1  LIG1        0.0639
     17 H          -4.9336   -3.1687   -0.0015 H       1  LIG1        0.0640
     18 C          -5.7587   -0.3150   -0.0007 C.ar    1  LIG1        0.2194
     19 N          -5.8396    1.0437   -0.0010 N.ar    1  LIG1       -0.1237
     20 C          -8.2371    0.7453   -0.0018 C.ar    1  LIG1        0.2034
     21 N          -6.7974   -1.1948   -0.0010 N.ar    1  LIG1       -0.1237
     22 N          -7.0871    1.5584   -0.0015 N.ar    1  LIG1       -0.1252
     23 N          -8.0311   -0.6478   -0.0016 N.ar    1  LIG1       -0.1252
     24 C          -9.5972    2.6569   -0.0019 C.ar    1  LIG1       -0.0509
     25 C         -10.9121    3.1612   -0.0010 C.ar    1  LIG1       -0.0611
     26 C          -9.4322    1.2567   -0.0024 C.ar    1  LIG1        0.0226
     27 C         -12.0154    2.3108   -0.0011 C.ar    1  LIG1       -0.0617
     28 H         -11.0620    4.2386   -0.0004 H       1  LIG1        0.0618
     29 C         -10.5334    0.4073   -0.0025 C.ar    1  LIG1       -0.0509
     30 C         -11.8318    0.9275   -0.0020 C.ar    1  LIG1       -0.0611
     31 H         -10.3801   -0.6689   -0.0028 H       1  LIG1        0.0625
     32 H         -13.2156    2.8106   -0.0004 H       1  LIG1        0.0618
     33 H          -8.6078    3.5003   -0.0020 H       1  LIG1        0.0625
     34 H         -12.8574    0.1287   -0.0020 H       1  LIG1        0.0618
@<TRIPOS>BOND
     1    31    29    1
     2    29    26   ar
     3    29    30   ar
     4    26    24   ar
     5    26    20    1
     6    30    34    1
     7    30    27   ar
     8    33    24    1
     9    24    25   ar
    10    20    23   ar
    11    20    22   ar
    12    23    21   ar
    13    22    19   ar
    14    17    12    1
    15    27    25   ar
    16    27    32    1
    17    21    18   ar
    18    19    18   ar
    19    25    28    1
    20    18    13    1
    21    12    13   ar
    22    12    11   ar
    23     2     8    1
    24     2     1   ar
    25     2     3   ar
    26    14    13   ar
    27    14    10   ar
    28    14    15    1
    29     4    10    1
    30     4     5   ar
    31     4     3   ar
    32     6     5    1
    33    10    11   ar
    34     5     1   ar
    35     1     7    1
    36     3     9    1
    37    11    16    1
