@<TRIPOS>MOLECULE
mol_data/noopt/geoms/mol2/13134.out
 28 30 0 0 0
SMALL
GASTEIGER

@<TRIPOS>ATOM
      1 C           1.1215   -0.3259    0.0002 C.ar    1  LIG1        0.0022
      2 C           0.7176    0.9721   -0.0005 C.ar    1  LIG1       -0.0438
      3 C          -0.7144    0.9744    0.0003 C.ar    1  LIG1       -0.0350
      4 C          -1.1226   -0.3223   -0.0003 C.ar    1  LIG1        0.0629
      5 N          -0.0018   -1.1217    0.0001 N.ar    1  LIG1       -0.3595
      6 H          -0.0034   -2.1157   -0.0003 H       1  LIG1        0.1654
      7 H           2.3167   -0.8373    0.0007 H       1  LIG1        0.0807
      8 H           1.4918    2.0164   -0.0003 H       1  LIG1        0.0633
      9 H          -1.4853    2.0212    0.0010 H       1  LIG1        0.0639
     10 C          -2.3194   -0.8299   -0.0001 C.ar    1  LIG1        0.0633
     11 C          -3.5353   -0.2219   -0.0003 C.ar    1  LIG1       -0.0344
     12 C          -4.5290   -1.2530    0.0012 C.ar    1  LIG1       -0.0358
     13 C          -3.8767   -2.4457    0.0005 C.ar    1  LIG1        0.0469
     14 N          -2.5238   -2.1913    0.0002 N.ar    1  LIG1       -0.3530
     15 H          -1.8081   -2.8811   -0.0004 H       1  LIG1        0.1659
     16 H          -3.7520    1.0599   -0.0003 H       1  LIG1        0.0639
     17 H          -5.8179   -1.0837    0.0025 H       1  LIG1        0.0639
     18 C          -5.7323   -3.8813    0.0023 C.ar    1  LIG1       -0.0526
     19 C          -6.1835   -5.2154    0.0046 C.ar    1  LIG1       -0.0611
     20 C          -4.3398   -3.6604    0.0012 C.ar    1  LIG1       -0.0017
     21 C          -5.2895   -6.2838    0.0051 C.ar    1  LIG1       -0.0617
     22 H          -7.2539   -5.4084    0.0057 H       1  LIG1        0.0618
     23 C          -3.4469   -4.7266    0.0017 C.ar    1  LIG1       -0.0526
     24 C          -3.9147   -6.0449    0.0035 C.ar    1  LIG1       -0.0611
     25 H          -2.3778   -4.5303    0.0009 H       1  LIG1        0.0624
     26 H          -5.7408   -7.5030    0.0071 H       1  LIG1        0.0618
     27 H          -6.6146   -2.9266    0.0017 H       1  LIG1        0.0624
     28 H          -3.0754   -7.0376    0.0041 H       1  LIG1        0.0618
@<TRIPOS>BOND
     1     2     8    1
     2     2     1   ar
     3     2     3   ar
     4    15    14    1
     5    11    16    1
     6    11    10   ar
     7    11    12   ar
     8     4    10    1
     9     4     5   ar
    10     4     3   ar
    11     6     5    1
    12    10    14   ar
    13     5     1   ar
    14    14    13   ar
    15     1     7    1
    16     3     9    1
    17    13    12   ar
    18    13    20    1
    19    25    23    1
    20    12    17    1
    21    20    23   ar
    22    20    18   ar
    23    23    24   ar
    24    27    18    1
    25    18    19   ar
    26    24    28    1
    27    24    21   ar
    28    19    21   ar
    29    19    22    1
    30    21    26    1
