@<TRIPOS>MOLECULE
mol_data/noopt/geoms/mol2/1313-5.out
 25 27 0 0 0
SMALL
GASTEIGER

@<TRIPOS>ATOM
      1 C           1.1215   -0.3259    0.0002 C.ar    1  LIG1        0.0022
      2 C           0.7176    0.9721   -0.0005 C.ar    1  LIG1       -0.0438
      3 C          -0.7144    0.9744    0.0003 C.ar    1  LIG1       -0.0350
      4 C          -1.1226   -0.3223   -0.0003 C.ar    1  LIG1        0.0629
      5 N          -0.0018   -1.1217    0.0001 N.ar    1  LIG1       -0.3595
      6 H          -0.0034   -2.1157   -0.0003 H       1  LIG1        0.1654
      7 H           2.3167   -0.8373    0.0007 H       1  LIG1        0.0807
      8 H           1.4918    2.0164   -0.0003 H       1  LIG1        0.0633
      9 H          -1.4853    2.0212    0.0010 H       1  LIG1        0.0639
     10 C          -2.3194   -0.8299   -0.0001 C.ar    1  LIG1        0.0633
     11 C          -2.7274   -2.1266    0.0005 C.ar    1  LIG1       -0.0344
     12 C          -4.1594   -2.1244   -0.0006 C.ar    1  LIG1       -0.0353
     13 C          -4.5635   -0.8264   -0.0002 C.ar    1  LIG1        0.0536
     14 N          -3.4402   -0.0305   -0.0003 N.ar    1  LIG1       -0.3526
     15 H          -3.4386    0.9635    0.0000 H       1  LIG1        0.1660
     16 H          -1.9565   -3.1734    0.0006 H       1  LIG1        0.0639
     17 H          -4.9336   -3.1687   -0.0015 H       1  LIG1        0.0639
     18 C          -5.7587   -0.3150   -0.0007 C.ar    1  LIG1        0.0355
     19 C          -6.0571    1.0295   -0.0014 C.ar    1  LIG1       -0.0455
     20 C          -7.4716    1.2538   -0.0026 C.ar    1  LIG1       -0.0541
     21 C          -8.1712    0.0675   -0.0020 C.ar    1  LIG1       -0.0237
     22 S          -7.1438   -1.2518   -0.0007 S.2     1  LIG1       -0.0952
     23 H          -9.4659   -0.0493   -0.0022 H       1  LIG1        0.0693
     24 H          -5.1851    1.9936   -0.0013 H       1  LIG1        0.0629
     25 H          -8.0027    2.4403   -0.0042 H       1  LIG1        0.0623
@<TRIPOS>BOND
     1    25    20    1
     2    20    21   ar
     3    20    19   ar
     4    23    21    1
     5    21    22   ar
     6    17    12    1
     7    19    24    1
     8    19    18   ar
     9    18    22   ar
    10    18    13    1
    11    12    13   ar
    12    12    11   ar
    13     2     8    1
    14     2     1   ar
    15     2     3   ar
    16    14    13   ar
    17    14    10   ar
    18    14    15    1
    19     4    10    1
    20     4     5   ar
    21     4     3   ar
    22     6     5    1
    23    10    11   ar
    24     5     1   ar
    25     1     7    1
    26     3     9    1
    27    11    16    1
