@<TRIPOS>MOLECULE
mol_data/noopt/geoms/mol2/1313-12-13-.out
 33 36 0 0 0
SMALL
GASTEIGER

@<TRIPOS>ATOM
      1 C           1.1215   -0.3259    0.0002 C.ar    1  LIG1        0.0022
      2 C           0.7176    0.9721   -0.0005 C.ar    1  LIG1       -0.0438
      3 C          -0.7144    0.9744    0.0003 C.ar    1  LIG1       -0.0350
      4 C          -1.1226   -0.3223   -0.0003 C.ar    1  LIG1        0.0629
      5 N          -0.0018   -1.1217    0.0001 N.ar    1  LIG1       -0.3595
      6 H          -0.0034   -2.1157   -0.0003 H       1  LIG1        0.1654
      7 H           2.3167   -0.8373    0.0007 H       1  LIG1        0.0807
      8 H           1.4918    2.0164   -0.0003 H       1  LIG1        0.0633
      9 H          -1.4853    2.0212    0.0010 H       1  LIG1        0.0639
     10 C          -2.3194   -0.8299   -0.0001 C.ar    1  LIG1        0.0634
     11 C          -2.7274   -2.1266    0.0005 C.ar    1  LIG1       -0.0343
     12 C          -4.1594   -2.1244   -0.0006 C.ar    1  LIG1       -0.0328
     13 C          -4.5635   -0.8264   -0.0002 C.ar    1  LIG1        0.0826
     14 N          -3.4402   -0.0305   -0.0003 N.ar    1  LIG1       -0.3506
     15 H          -3.4386    0.9635    0.0000 H       1  LIG1        0.1660
     16 H          -1.9565   -3.1734    0.0006 H       1  LIG1        0.0639
     17 H          -4.9336   -3.1687   -0.0015 H       1  LIG1        0.0640
     18 C          -5.7587   -0.3150   -0.0007 C.ar    1  LIG1        0.1518
     19 C          -7.0434   -0.8176   -0.0011 C.ar    1  LIG1       -0.0137
     20 C          -7.9352    0.3233   -0.0016 C.ar    1  LIG1       -0.0137
     21 C          -7.1359    1.4479   -0.0015 C.ar    1  LIG1        0.1518
     22 O          -5.7899    1.0802   -0.0008 O.2     1  LIG1       -0.4519
     23 H          -7.4098   -2.0649   -0.0011 H       1  LIG1        0.0656
     24 H          -9.2340    0.2696   -0.0021 H       1  LIG1        0.0656
     25 C          -7.3428    2.7313   -0.0018 C.ar    1  LIG1        0.0821
     26 C          -8.5045    3.4374   -0.0015 C.ar    1  LIG1       -0.0334
     27 C          -8.1601    4.8274   -0.0032 C.ar    1  LIG1       -0.0437
     28 C          -6.8032    4.9096   -0.0027 C.ar    1  LIG1        0.0023
     29 N          -6.2988    3.6287   -0.0023 N.ar    1  LIG1       -0.3583
     30 H          -5.3340    3.3896   -0.0018 H       1  LIG1        0.1654
     31 H          -6.0210    5.9480   -0.0036 H       1  LIG1        0.0807
     32 H          -9.7051    2.9389   -0.0013 H       1  LIG1        0.0640
     33 H          -8.9892    5.8287   -0.0045 H       1  LIG1        0.0633
@<TRIPOS>BOND
     1    33    27    1
     2    31    28    1
     3    27    28   ar
     4    27    26   ar
     5    28    29   ar
     6    29    25   ar
     7    29    30    1
     8    24    20    1
     9    25    26   ar
    10    25    21    1
    11    20    21   ar
    12    20    19   ar
    13    17    12    1
    14    26    32    1
    15    21    22   ar
    16    23    19    1
    17    19    18   ar
    18    22    18   ar
    19    18    13    1
    20    12    13   ar
    21    12    11   ar
    22     2     8    1
    23     2     1   ar
    24     2     3   ar
    25    14    13   ar
    26    14    10   ar
    27    14    15    1
    28     6     5    1
    29     4    10    1
    30     4     5   ar
    31     4     3   ar
    32    10    11   ar
    33     5     1   ar
    34     1     7    1
    35     3     9    1
    36    11    16    1
