@<TRIPOS>MOLECULE
mol_data/noopt/geoms/mol2/134-128.out
 33 36 0 0 0
SMALL
GASTEIGER

@<TRIPOS>ATOM
      1 C           1.1215   -0.3259    0.0002 C.ar    1  LIG1        0.0022
      2 C           0.7176    0.9721   -0.0005 C.ar    1  LIG1       -0.0438
      3 C          -0.7144    0.9744    0.0003 C.ar    1  LIG1       -0.0364
      4 C          -1.1226   -0.3223   -0.0003 C.ar    1  LIG1        0.0465
      5 N          -0.0018   -1.1217    0.0001 N.ar    1  LIG1       -0.3607
      6 H          -0.0034   -2.1157   -0.0003 H       1  LIG1        0.1653
      7 H           2.3167   -0.8373    0.0007 H       1  LIG1        0.0807
      8 H           1.4918    2.0164   -0.0003 H       1  LIG1        0.0633
      9 H          -1.4853    2.0212    0.0010 H       1  LIG1        0.0639
     10 C          -2.4887   -2.2296   -0.0007 C.ar    1  LIG1       -0.0520
     11 C          -3.8052   -2.7297   -0.0020 C.ar    1  LIG1       -0.0505
     12 C          -2.3194   -0.8299   -0.0001 C.ar    1  LIG1       -0.0017
     13 C          -4.9059   -1.8758   -0.0021 C.ar    1  LIG1        0.0173
     14 H          -3.9586   -3.8065   -0.0027 H       1  LIG1        0.0625
     15 C          -3.4178    0.0230   -0.0001 C.ar    1  LIG1       -0.0520
     16 C          -4.7179   -0.4931   -0.0010 C.ar    1  LIG1       -0.0505
     17 H          -3.2611    1.0987    0.0003 H       1  LIG1        0.0624
     18 H          -1.5021   -3.0760   -0.0005 H       1  LIG1        0.0624
     19 H          -5.7409    0.3090   -0.0012 H       1  LIG1        0.0625
     20 C          -6.1076   -2.3718   -0.0032 C.ar    1  LIG1        0.1358
     21 C          -7.3857   -1.8527   -0.0040 C.ar    1  LIG1       -0.0151
     22 C          -8.2921   -2.9820   -0.0051 C.ar    1  LIG1       -0.0120
     23 C          -7.5073   -4.1168   -0.0049 C.ar    1  LIG1        0.1760
     24 O          -6.1567   -3.7665   -0.0039 O.2     1  LIG1       -0.4516
     25 H          -7.7360   -0.6007   -0.0038 H       1  LIG1        0.0656
     26 H          -9.5902   -2.9116   -0.0061 H       1  LIG1        0.0657
     27 C          -7.7308   -5.3975   -0.0055 C.ar    1  LIG1        0.2381
     28 N          -9.0346   -5.7880   -0.0058 N.ar    1  LIG1       -0.1226
     29 C          -8.1940   -8.0530   -0.0067 C.ar    1  LIG1        0.1605
     30 N          -6.6361   -6.2065   -0.0058 N.ar    1  LIG1       -0.1226
     31 N          -9.2493   -7.1203   -0.0064 N.ar    1  LIG1       -0.1338
     32 N          -6.8853   -7.5328   -0.0065 N.ar    1  LIG1       -0.1338
     33 H          -8.4174   -9.3337   -0.0073 H       1  LIG1        0.1085
@<TRIPOS>BOND
     1    33    29    1
     2    29    32   ar
     3    29    31   ar
     4    32    30   ar
     5    31    28   ar
     6    26    22    1
     7    28    27   ar
     8    30    27   ar
     9    27    23    1
    10    22    23   ar
    11    22    21   ar
    12    23    24   ar
    13    21    25    1
    14    21    20   ar
    15    24    20   ar
    16    20    13    1
    17    14    11    1
    18    13    11   ar
    19    13    16   ar
    20    11    10   ar
    21    19    16    1
    22    16    15   ar
    23    10    18    1
    24    10    12   ar
    25     2     8    1
    26     2     1   ar
    27     2     3   ar
    28     6     5    1
    29     4    12    1
    30     4     5   ar
    31     4     3   ar
    32    15    12   ar
    33    15    17    1
    34     5     1   ar
    35     1     7    1
    36     3     9    1
