@<TRIPOS>MOLECULE
mol_data/noopt/geoms/mol2/134-12-.out
 27 29 0 0 0
SMALL
GASTEIGER

@<TRIPOS>ATOM
      1 C           1.1215   -0.3259    0.0002 C.ar    1  LIG1        0.0022
      2 C           0.7176    0.9721   -0.0005 C.ar    1  LIG1       -0.0438
      3 C          -0.7144    0.9744    0.0003 C.ar    1  LIG1       -0.0364
      4 C          -1.1226   -0.3223   -0.0003 C.ar    1  LIG1        0.0465
      5 N          -0.0018   -1.1217    0.0001 N.ar    1  LIG1       -0.3607
      6 H          -0.0034   -2.1157   -0.0003 H       1  LIG1        0.1653
      7 H           2.3167   -0.8373    0.0007 H       1  LIG1        0.0807
      8 H           1.4918    2.0164   -0.0003 H       1  LIG1        0.0633
      9 H          -1.4853    2.0212    0.0010 H       1  LIG1        0.0639
     10 C          -2.4887   -2.2296   -0.0007 C.ar    1  LIG1       -0.0520
     11 C          -3.8052   -2.7297   -0.0020 C.ar    1  LIG1       -0.0505
     12 C          -2.3194   -0.8299   -0.0001 C.ar    1  LIG1       -0.0017
     13 C          -4.9059   -1.8758   -0.0021 C.ar    1  LIG1        0.0173
     14 H          -3.9586   -3.8065   -0.0027 H       1  LIG1        0.0625
     15 C          -3.4178    0.0230   -0.0001 C.ar    1  LIG1       -0.0520
     16 C          -4.7179   -0.4931   -0.0010 C.ar    1  LIG1       -0.0505
     17 H          -3.2611    1.0987    0.0003 H       1  LIG1        0.0624
     18 H          -1.5021   -3.0760   -0.0005 H       1  LIG1        0.0624
     19 H          -5.7409    0.3090   -0.0012 H       1  LIG1        0.0625
     20 C          -6.1076   -2.3718   -0.0032 C.ar    1  LIG1        0.1348
     21 C          -6.6475   -3.6412   -0.0040 C.ar    1  LIG1       -0.0159
     22 C          -8.0865   -3.4800   -0.0051 C.ar    1  LIG1       -0.0233
     23 C          -8.3306   -2.1220   -0.0048 C.ar    1  LIG1        0.0926
     24 O          -7.1261   -1.4177   -0.0035 O.2     1  LIG1       -0.4629
     25 H          -9.3923   -1.3717   -0.0054 H       1  LIG1        0.1029
     26 H          -6.0128   -4.7758   -0.0039 H       1  LIG1        0.0655
     27 H          -8.9571   -4.4454   -0.0061 H       1  LIG1        0.0649
@<TRIPOS>BOND
     1    27    22    1
     2    25    23    1
     3    22    23   ar
     4    22    21   ar
     5    23    24   ar
     6    21    26    1
     7    21    20   ar
     8    24    20   ar
     9    20    13    1
    10    14    11    1
    11    13    11   ar
    12    13    16   ar
    13    11    10   ar
    14    19    16    1
    15    16    15   ar
    16    10    18    1
    17    10    12   ar
    18     2     8    1
    19     2     1   ar
    20     2     3   ar
    21     6     5    1
    22     4    12    1
    23     4     5   ar
    24     4     3   ar
    25    15    12   ar
    26    15    17    1
    27     5     1   ar
    28     1     7    1
    29     3     9    1
