@<TRIPOS>MOLECULE
mol_data/noopt/geoms/mol2/134-8-.out
 26 28 0 0 0
SMALL
GASTEIGER

@<TRIPOS>ATOM
      1 C           1.1215   -0.3259    0.0002 C.ar    1  LIG1        0.0022
      2 C           0.7176    0.9721   -0.0005 C.ar    1  LIG1       -0.0438
      3 C          -0.7144    0.9744    0.0003 C.ar    1  LIG1       -0.0364
      4 C          -1.1226   -0.3223   -0.0003 C.ar    1  LIG1        0.0465
      5 N          -0.0018   -1.1217    0.0001 N.ar    1  LIG1       -0.3607
      6 H          -0.0034   -2.1157   -0.0003 H       1  LIG1        0.1653
      7 H           2.3167   -0.8373    0.0007 H       1  LIG1        0.0807
      8 H           1.4918    2.0164   -0.0003 H       1  LIG1        0.0633
      9 H          -1.4853    2.0212    0.0010 H       1  LIG1        0.0639
     10 C          -2.4887   -2.2296   -0.0007 C.ar    1  LIG1       -0.0520
     11 C          -3.8052   -2.7297   -0.0020 C.ar    1  LIG1       -0.0503
     12 C          -2.3194   -0.8299   -0.0001 C.ar    1  LIG1       -0.0017
     13 C          -4.9059   -1.8758   -0.0021 C.ar    1  LIG1        0.0227
     14 H          -3.9586   -3.8065   -0.0027 H       1  LIG1        0.0625
     15 C          -3.4178    0.0230   -0.0001 C.ar    1  LIG1       -0.0520
     16 C          -4.7179   -0.4931   -0.0010 C.ar    1  LIG1       -0.0503
     17 H          -3.2611    1.0987    0.0003 H       1  LIG1        0.0624
     18 H          -1.5021   -3.0760   -0.0005 H       1  LIG1        0.0624
     19 H          -5.7409    0.3090   -0.0012 H       1  LIG1        0.0625
     20 C          -6.1076   -2.3718   -0.0032 C.ar    1  LIG1        0.2033
     21 N          -6.2059   -3.7293   -0.0037 N.ar    1  LIG1       -0.1258
     22 C          -8.5994   -3.4001   -0.0055 C.ar    1  LIG1        0.1605
     23 N          -7.1348   -1.4787   -0.0037 N.ar    1  LIG1       -0.1258
     24 N          -7.4599   -4.2279   -0.0048 N.ar    1  LIG1       -0.1339
     25 N          -8.3755   -2.0098   -0.0047 N.ar    1  LIG1       -0.1339
     26 H          -9.8011   -3.8961   -0.0066 H       1  LIG1        0.1085
@<TRIPOS>BOND
     1    26    22    1
     2    22    24   ar
     3    22    25   ar
     4    24    21   ar
     5    25    23   ar
     6    23    20   ar
     7    21    20   ar
     8    20    13    1
     9    14    11    1
    10    13    11   ar
    11    13    16   ar
    12    11    10   ar
    13    19    16    1
    14    16    15   ar
    15    10    18    1
    16    10    12   ar
    17     2     8    1
    18     2     1   ar
    19     2     3   ar
    20     6     5    1
    21     4    12    1
    22     4     5   ar
    23     4     3   ar
    24    15    12   ar
    25    15    17    1
    26     5     1   ar
    27     1     7    1
    28     3     9    1
