@<TRIPOS>MOLECULE
mol_data/noopt/geoms/mol2/134-412-.out
 37 40 0 0 0
SMALL
GASTEIGER

@<TRIPOS>ATOM
      1 C           1.1215   -0.3259    0.0002 C.ar    1  LIG1        0.0022
      2 C           0.7176    0.9721   -0.0005 C.ar    1  LIG1       -0.0438
      3 C          -0.7144    0.9744    0.0003 C.ar    1  LIG1       -0.0364
      4 C          -1.1226   -0.3223   -0.0003 C.ar    1  LIG1        0.0465
      5 N          -0.0018   -1.1217    0.0001 N.ar    1  LIG1       -0.3607
      6 H          -0.0034   -2.1157   -0.0003 H       1  LIG1        0.1653
      7 H           2.3167   -0.8373    0.0007 H       1  LIG1        0.0807
      8 H           1.4918    2.0164   -0.0003 H       1  LIG1        0.0633
      9 H          -1.4853    2.0212    0.0010 H       1  LIG1        0.0639
     10 C          -2.4887   -2.2296   -0.0007 C.ar    1  LIG1       -0.0521
     11 C          -3.8052   -2.7297   -0.0020 C.ar    1  LIG1       -0.0534
     12 C          -2.3194   -0.8299   -0.0001 C.ar    1  LIG1       -0.0017
     13 C          -4.9059   -1.8758   -0.0021 C.ar    1  LIG1       -0.0178
     14 H          -3.9586   -3.8065   -0.0027 H       1  LIG1        0.0624
     15 C          -3.4178    0.0230   -0.0001 C.ar    1  LIG1       -0.0521
     16 C          -4.7179   -0.4931   -0.0010 C.ar    1  LIG1       -0.0534
     17 H          -3.2611    1.0987    0.0003 H       1  LIG1        0.0624
     18 H          -1.5021   -3.0760   -0.0005 H       1  LIG1        0.0624
     19 H          -5.7409    0.3090   -0.0012 H       1  LIG1        0.0624
     20 C          -7.2232   -1.5098   -0.0030 C.ar    1  LIG1       -0.0534
     21 C          -8.5036   -2.0962   -0.0027 C.ar    1  LIG1       -0.0505
     22 C          -6.1075   -2.3718   -0.0032 C.ar    1  LIG1       -0.0178
     23 C          -8.6682   -3.4795   -0.0031 C.ar    1  LIG1        0.0173
     24 H          -9.3782   -1.4495   -0.0024 H       1  LIG1        0.0625
     25 C          -6.2713   -3.7528   -0.0036 C.ar    1  LIG1       -0.0534
     26 C          -7.5515   -4.3163   -0.0037 C.ar    1  LIG1       -0.0505
     27 H          -5.3952   -4.3963   -0.0036 H       1  LIG1        0.0624
     28 H          -7.1334   -0.2129   -0.0028 H       1  LIG1        0.0624
     29 H          -7.6984   -5.6080   -0.0040 H       1  LIG1        0.0625
     30 C          -9.8650   -3.9871   -0.0029 C.ar    1  LIG1        0.1348
     31 C         -10.3926   -5.2618   -0.0028 C.ar    1  LIG1       -0.0159
     32 C         -11.8331   -5.1145   -0.0026 C.ar    1  LIG1       -0.0233
     33 C         -12.0904   -3.7589   -0.0026 C.ar    1  LIG1        0.0926
     34 O         -10.8928   -3.0430   -0.0027 O.2     1  LIG1       -0.4629
     35 H         -13.1593   -3.0190   -0.0025 H       1  LIG1        0.1029
     36 H          -9.7469   -6.3901   -0.0029 H       1  LIG1        0.0655
     37 H         -12.6943   -6.0883   -0.0024 H       1  LIG1        0.0649
@<TRIPOS>BOND
     1    29    26    1
     2    26    25   ar
     3    26    23   ar
     4    27    25    1
     5    25    22   ar
     6    22    20   ar
     7    22    13    1
     8    23    30    1
     9    23    21   ar
    10    20    28    1
    11    20    21   ar
    12    30    31   ar
    13    30    34   ar
    14    36    31    1
    15    31    32   ar
    16    14    11    1
    17    21    24    1
    18    34    33   ar
    19    32    33   ar
    20    32    37    1
    21    33    35    1
    22    13    11   ar
    23    13    16   ar
    24    11    10   ar
    25    19    16    1
    26    16    15   ar
    27    10    18    1
    28    10    12   ar
    29     2     8    1
    30     2     1   ar
    31     2     3   ar
    32     6     5    1
    33     4    12    1
    34     4     5   ar
    35     4     3   ar
    36    15    12   ar
    37    15    17    1
    38     5     1   ar
    39     1     7    1
    40     3     9    1
