@<TRIPOS>MOLECULE
mol_data/noopt/geoms/mol2/134-8-13-.out
 34 37 0 0 0
SMALL
GASTEIGER

@<TRIPOS>ATOM
      1 C           1.1215   -0.3259    0.0002 C.ar    1  LIG1        0.0022
      2 C           0.7176    0.9721   -0.0005 C.ar    1  LIG1       -0.0438
      3 C          -0.7144    0.9744    0.0003 C.ar    1  LIG1       -0.0364
      4 C          -1.1226   -0.3223   -0.0003 C.ar    1  LIG1        0.0465
      5 N          -0.0018   -1.1217    0.0001 N.ar    1  LIG1       -0.3607
      6 H          -0.0034   -2.1157   -0.0003 H       1  LIG1        0.1653
      7 H           2.3167   -0.8373    0.0007 H       1  LIG1        0.0807
      8 H           1.4918    2.0164   -0.0003 H       1  LIG1        0.0633
      9 H          -1.4853    2.0212    0.0010 H       1  LIG1        0.0639
     10 C          -2.4887   -2.2296   -0.0007 C.ar    1  LIG1       -0.0520
     11 C          -3.8052   -2.7297   -0.0020 C.ar    1  LIG1       -0.0503
     12 C          -2.3194   -0.8299   -0.0001 C.ar    1  LIG1       -0.0017
     13 C          -4.9059   -1.8758   -0.0021 C.ar    1  LIG1        0.0227
     14 H          -3.9586   -3.8065   -0.0027 H       1  LIG1        0.0625
     15 C          -3.4178    0.0230   -0.0001 C.ar    1  LIG1       -0.0520
     16 C          -4.7179   -0.4931   -0.0010 C.ar    1  LIG1       -0.0503
     17 H          -3.2611    1.0987    0.0003 H       1  LIG1        0.0624
     18 H          -1.5021   -3.0760   -0.0005 H       1  LIG1        0.0624
     19 H          -5.7409    0.3090   -0.0012 H       1  LIG1        0.0625
     20 C          -6.1076   -2.3718   -0.0032 C.ar    1  LIG1        0.2034
     21 N          -6.2059   -3.7293   -0.0037 N.ar    1  LIG1       -0.1252
     22 C          -8.5994   -3.4001   -0.0055 C.ar    1  LIG1        0.2194
     23 N          -7.1348   -1.4787   -0.0037 N.ar    1  LIG1       -0.1252
     24 N          -7.4599   -4.2279   -0.0048 N.ar    1  LIG1       -0.1237
     25 N          -8.3755   -2.0098   -0.0047 N.ar    1  LIG1       -0.1237
     26 C          -9.8011   -3.8961   -0.0066 C.ar    1  LIG1        0.0875
     27 C         -10.2217   -5.1888   -0.0068 C.ar    1  LIG1       -0.0333
     28 C         -11.6536   -5.1727   -0.0093 C.ar    1  LIG1       -0.0437
     29 C         -12.0450   -3.8708   -0.0087 C.ar    1  LIG1        0.0023
     30 N         -10.9140   -3.0859   -0.0075 N.ar    1  LIG1       -0.3582
     31 H         -10.9029   -2.0920   -0.0067 H       1  LIG1        0.1654
     32 H         -13.2352   -3.3478   -0.0102 H       1  LIG1        0.0807
     33 H          -9.4610   -6.2430   -0.0065 H       1  LIG1        0.0640
     34 H         -12.4379   -6.2094   -0.0113 H       1  LIG1        0.0633
@<TRIPOS>BOND
     1    34    28    1
     2    32    29    1
     3    28    29   ar
     4    28    27   ar
     5    29    30   ar
     6    30    31    1
     7    30    26   ar
     8    27    26   ar
     9    27    33    1
    10    26    22    1
    11    22    24   ar
    12    22    25   ar
    13    24    21   ar
    14    25    23   ar
    15    23    20   ar
    16    21    20   ar
    17    20    13    1
    18    14    11    1
    19    13    11   ar
    20    13    16   ar
    21    11    10   ar
    22    19    16    1
    23    16    15   ar
    24    10    18    1
    25    10    12   ar
    26     2     8    1
    27     2     1   ar
    28     2     3   ar
    29     6     5    1
    30     4    12    1
    31     4     5   ar
    32     4     3   ar
    33    15    12   ar
    34    15    17    1
    35     5     1   ar
    36     1     7    1
    37     3     9    1
