@<TRIPOS>MOLECULE
mol_data/noopt/geoms/mol2/134-13-13-.out
 36 39 0 0 0
SMALL
GASTEIGER

@<TRIPOS>ATOM
      1 C           1.1215   -0.3259    0.0002 C.ar    1  LIG1        0.0022
      2 C           0.7176    0.9721   -0.0005 C.ar    1  LIG1       -0.0438
      3 C          -0.7144    0.9744    0.0003 C.ar    1  LIG1       -0.0364
      4 C          -1.1226   -0.3223   -0.0003 C.ar    1  LIG1        0.0465
      5 N          -0.0018   -1.1217    0.0001 N.ar    1  LIG1       -0.3607
      6 H          -0.0034   -2.1157   -0.0003 H       1  LIG1        0.1653
      7 H           2.3167   -0.8373    0.0007 H       1  LIG1        0.0807
      8 H           1.4918    2.0164   -0.0003 H       1  LIG1        0.0633
      9 H          -1.4853    2.0212    0.0010 H       1  LIG1        0.0639
     10 C          -2.4887   -2.2296   -0.0007 C.ar    1  LIG1       -0.0520
     11 C          -3.8052   -2.7297   -0.0020 C.ar    1  LIG1       -0.0520
     12 C          -2.3194   -0.8299   -0.0001 C.ar    1  LIG1       -0.0017
     13 C          -4.9059   -1.8758   -0.0021 C.ar    1  LIG1       -0.0017
     14 H          -3.9586   -3.8065   -0.0027 H       1  LIG1        0.0624
     15 C          -3.4178    0.0230   -0.0001 C.ar    1  LIG1       -0.0520
     16 C          -4.7179   -0.4931   -0.0010 C.ar    1  LIG1       -0.0520
     17 H          -3.2611    1.0987    0.0003 H       1  LIG1        0.0624
     18 H          -1.5021   -3.0760   -0.0005 H       1  LIG1        0.0624
     19 H          -5.7409    0.3090   -0.0012 H       1  LIG1        0.0624
     20 C          -6.1076   -2.3718   -0.0032 C.ar    1  LIG1        0.0469
     21 C          -6.5282   -3.6645   -0.0034 C.ar    1  LIG1       -0.0358
     22 C          -7.9601   -3.6483   -0.0059 C.ar    1  LIG1       -0.0344
     23 C          -8.3516   -2.3465   -0.0053 C.ar    1  LIG1        0.0633
     24 N          -7.2206   -1.5616   -0.0041 N.ar    1  LIG1       -0.3530
     25 H          -7.2094   -0.5676   -0.0034 H       1  LIG1        0.1659
     26 H          -5.7675   -4.7187   -0.0031 H       1  LIG1        0.0639
     27 H          -8.7444   -4.6851   -0.0079 H       1  LIG1        0.0639
     28 C          -9.5417   -1.8235   -0.0068 C.ar    1  LIG1        0.0629
     29 C         -10.7653   -2.4158   -0.0072 C.ar    1  LIG1       -0.0350
     30 C         -11.7457   -1.3720   -0.0101 C.ar    1  LIG1       -0.0438
     31 C         -11.0781   -0.1878   -0.0095 C.ar    1  LIG1        0.0022
     32 N          -9.7285   -0.4596   -0.0079 N.ar    1  LIG1       -0.3595
     33 H          -9.0040    0.2209   -0.0070 H       1  LIG1        0.1654
     34 H         -11.5255    1.0328   -0.0111 H       1  LIG1        0.0807
     35 H         -10.9985   -3.6947   -0.0068 H       1  LIG1        0.0639
     36 H         -13.0367   -1.5247   -0.0124 H       1  LIG1        0.0633
@<TRIPOS>BOND
     1    36    30    1
     2    34    31    1
     3    30    31   ar
     4    30    29   ar
     5    31    32   ar
     6    27    22    1
     7    32    33    1
     8    32    28   ar
     9    29    35    1
    10    29    28   ar
    11    28    23    1
    12    22    23   ar
    13    22    21   ar
    14    23    24   ar
    15    24    25    1
    16    24    20   ar
    17    21    20   ar
    18    21    26    1
    19    20    13    1
    20    14    11    1
    21    13    11   ar
    22    13    16   ar
    23    11    10   ar
    24    19    16    1
    25    16    15   ar
    26    10    18    1
    27    10    12   ar
    28     2     8    1
    29     2     1   ar
    30     2     3   ar
    31     6     5    1
    32     4    12    1
    33     4     5   ar
    34     4     3   ar
    35    15    12   ar
    36    15    17    1
    37     5     1   ar
    38     1     7    1
    39     3     9    1
