@<TRIPOS>MOLECULE
mol_data/noopt/geoms/mol2/134-.out
 20 21 0 0 0
SMALL
GASTEIGER

@<TRIPOS>ATOM
      1 C           1.1215   -0.3259    0.0002 C.ar    1  LIG1        0.0022
      2 C           0.7176    0.9721   -0.0005 C.ar    1  LIG1       -0.0438
      3 C          -0.7144    0.9744    0.0003 C.ar    1  LIG1       -0.0364
      4 C          -1.1226   -0.3223   -0.0003 C.ar    1  LIG1        0.0465
      5 N          -0.0018   -1.1217    0.0001 N.ar    1  LIG1       -0.3607
      6 H          -0.0034   -2.1157   -0.0003 H       1  LIG1        0.1653
      7 H           2.3167   -0.8373    0.0007 H       1  LIG1        0.0807
      8 H           1.4918    2.0164   -0.0003 H       1  LIG1        0.0633
      9 H          -1.4853    2.0212    0.0010 H       1  LIG1        0.0639
     10 C          -2.4887   -2.2296   -0.0007 C.ar    1  LIG1       -0.0526
     11 C          -3.8052   -2.7297   -0.0020 C.ar    1  LIG1       -0.0611
     12 C          -2.3194   -0.8299   -0.0001 C.ar    1  LIG1       -0.0017
     13 C          -4.9059   -1.8758   -0.0021 C.ar    1  LIG1       -0.0617
     14 H          -3.9586   -3.8065   -0.0027 H       1  LIG1        0.0618
     15 C          -3.4178    0.0230   -0.0001 C.ar    1  LIG1       -0.0526
     16 C          -4.7179   -0.4931   -0.0010 C.ar    1  LIG1       -0.0611
     17 H          -3.2611    1.0987    0.0003 H       1  LIG1        0.0624
     18 H          -6.1076   -2.3718   -0.0032 H       1  LIG1        0.0618
     19 H          -1.5021   -3.0760   -0.0005 H       1  LIG1        0.0624
     20 H          -5.7409    0.3090   -0.0012 H       1  LIG1        0.0618
@<TRIPOS>BOND
     1    18    13    1
     2    14    11    1
     3    13    11   ar
     4    13    16   ar
     5    11    10   ar
     6    20    16    1
     7    16    15   ar
     8    10    19    1
     9    10    12   ar
    10     2     8    1
    11     2     1   ar
    12     2     3   ar
    13     6     5    1
    14     4    12    1
    15     4     5   ar
    16     4     3   ar
    17    15    12   ar
    18    15    17    1
    19     5     1   ar
    20     1     7    1
    21     3     9    1
