@<TRIPOS>MOLECULE
mol_data/noopt/geoms/mol2/134.out
 20 21 0 0 0
SMALL
GASTEIGER

@<TRIPOS>ATOM
      1 C           1.1215   -0.3259    0.0002 C.ar    1  LIG1        0.0022
      2 C           0.7176    0.9721   -0.0005 C.ar    1  LIG1       -0.0438
      3 C          -0.7144    0.9744    0.0003 C.ar    1  LIG1       -0.0364
      4 C          -1.1226   -0.3223   -0.0003 C.ar    1  LIG1        0.0465
      5 N          -0.0018   -1.1217    0.0001 N.ar    1  LIG1       -0.3607
      6 H          -0.0034   -2.1157   -0.0003 H       1  LIG1        0.1653
      7 H           2.3167   -0.8373    0.0007 H       1  LIG1        0.0807
      8 H           1.4918    2.0164   -0.0003 H       1  LIG1        0.0633
      9 H          -1.4853    2.0212    0.0010 H       1  LIG1        0.0639
     10 C          -3.4434    0.0212    0.0008 C.ar    1  LIG1       -0.0526
     11 C          -4.7180   -0.5776    0.0025 C.ar    1  LIG1       -0.0611
     12 C          -2.3194   -0.8299   -0.0001 C.ar    1  LIG1       -0.0017
     13 C          -4.8692   -1.9625    0.0027 C.ar    1  LIG1       -0.0617
     14 H          -5.5988    0.0606    0.0034 H       1  LIG1        0.0618
     15 C          -2.4697   -2.2124    0.0001 C.ar    1  LIG1       -0.0526
     16 C          -3.7444   -2.7884    0.0015 C.ar    1  LIG1       -0.0611
     17 H          -1.5874   -2.8474   -0.0005 H       1  LIG1        0.0624
     18 H          -6.0610   -2.4816    0.0042 H       1  LIG1        0.0618
     19 H          -3.3661    1.3189    0.0004 H       1  LIG1        0.0624
     20 H          -3.8788   -4.0814    0.0018 H       1  LIG1        0.0618
@<TRIPOS>BOND
     1     2     8    1
     2     2     1   ar
     3     2     3   ar
     4    17    15    1
     5     4    12    1
     6     4     5   ar
     7     4     3   ar
     8     6     5    1
     9    12    15   ar
    10    12    10   ar
    11     5     1   ar
    12    15    16   ar
    13     1     7    1
    14     3     9    1
    15    19    10    1
    16    10    11   ar
    17    16    20    1
    18    16    13   ar
    19    11    13   ar
    20    11    14    1
    21    13    18    1
