@<TRIPOS>MOLECULE
mol_data/noopt/geoms/mol2/13412-8-.out
 33 36 0 0 0
SMALL
GASTEIGER

@<TRIPOS>ATOM
      1 C           1.1215   -0.3259    0.0002 C.ar    1  LIG1        0.0022
      2 C           0.7176    0.9721   -0.0005 C.ar    1  LIG1       -0.0438
      3 C          -0.7144    0.9744    0.0003 C.ar    1  LIG1       -0.0364
      4 C          -1.1226   -0.3223   -0.0003 C.ar    1  LIG1        0.0465
      5 N          -0.0018   -1.1217    0.0001 N.ar    1  LIG1       -0.3607
      6 H          -0.0034   -2.1157   -0.0003 H       1  LIG1        0.1653
      7 H           2.3167   -0.8373    0.0007 H       1  LIG1        0.0807
      8 H           1.4918    2.0164   -0.0003 H       1  LIG1        0.0633
      9 H          -1.4853    2.0212    0.0010 H       1  LIG1        0.0639
     10 C          -3.4434    0.0212    0.0008 C.ar    1  LIG1       -0.0520
     11 C          -4.7180   -0.5776    0.0025 C.ar    1  LIG1       -0.0505
     12 C          -2.3194   -0.8299   -0.0001 C.ar    1  LIG1       -0.0017
     13 C          -4.8692   -1.9625    0.0027 C.ar    1  LIG1        0.0173
     14 H          -5.5988    0.0606    0.0034 H       1  LIG1        0.0625
     15 C          -2.4697   -2.2124    0.0001 C.ar    1  LIG1       -0.0520
     16 C          -3.7444   -2.7884    0.0015 C.ar    1  LIG1       -0.0505
     17 H          -1.5874   -2.8474   -0.0005 H       1  LIG1        0.0624
     18 H          -3.3661    1.3189    0.0004 H       1  LIG1        0.0624
     19 H          -3.8788   -4.0814    0.0018 H       1  LIG1        0.0625
     20 C          -6.0610   -2.4816    0.0042 C.ar    1  LIG1        0.1358
     21 C          -6.5761   -3.7613    0.0054 C.ar    1  LIG1       -0.0151
     22 C          -8.0181   -3.6280    0.0068 C.ar    1  LIG1       -0.0120
     23 C          -8.2885   -2.2750    0.0066 C.ar    1  LIG1        0.1760
     24 O          -7.0979   -1.5475    0.0051 O.2     1  LIG1       -0.4516
     25 H          -5.9196   -4.8834    0.0051 H       1  LIG1        0.0656
     26 H          -8.8698   -4.6101    0.0082 H       1  LIG1        0.0657
     27 C          -9.3645   -1.5455    0.0073 C.ar    1  LIG1        0.2381
     28 N         -10.5516   -2.2115    0.0077 N.ar    1  LIG1       -0.1226
     29 C         -11.5957   -0.0327    0.0090 C.ar    1  LIG1        0.1605
     30 N          -9.1853   -0.1962    0.0077 N.ar    1  LIG1       -0.1226
     31 N         -11.6586   -1.4397    0.0085 N.ar    1  LIG1       -0.1338
     32 N         -10.3120    0.5465    0.0086 N.ar    1  LIG1       -0.1338
     33 H         -12.6717    0.6968    0.0097 H       1  LIG1        0.1085
@<TRIPOS>BOND
     1     2     8    1
     2     2     1   ar
     3     2     3   ar
     4    17    15    1
     5     4    12    1
     6     4     5   ar
     7     4     3   ar
     8     6     5    1
     9    12    15   ar
    10    12    10   ar
    11     5     1   ar
    12    15    16   ar
    13     1     7    1
    14     3     9    1
    15    18    10    1
    16    10    11   ar
    17    16    19    1
    18    16    13   ar
    19    11    13   ar
    20    11    14    1
    21    13    20    1
    22    20    24   ar
    23    20    21   ar
    24    24    23   ar
    25    25    21    1
    26    21    22   ar
    27    23    22   ar
    28    23    27    1
    29    22    26    1
    30    27    28   ar
    31    27    30   ar
    32    28    31   ar
    33    30    32   ar
    34    31    29   ar
    35    32    29   ar
    36    29    33    1
