@<TRIPOS>MOLECULE
mol_data/noopt/geoms/mol2/13413.out
 28 30 0 0 0
SMALL
GASTEIGER

@<TRIPOS>ATOM
      1 C           1.1215   -0.3259    0.0002 C.ar    1  LIG1        0.0022
      2 C           0.7176    0.9721   -0.0005 C.ar    1  LIG1       -0.0438
      3 C          -0.7144    0.9744    0.0003 C.ar    1  LIG1       -0.0364
      4 C          -1.1226   -0.3223   -0.0003 C.ar    1  LIG1        0.0465
      5 N          -0.0018   -1.1217    0.0001 N.ar    1  LIG1       -0.3607
      6 H          -0.0034   -2.1157   -0.0003 H       1  LIG1        0.1653
      7 H           2.3167   -0.8373    0.0007 H       1  LIG1        0.0807
      8 H           1.4918    2.0164   -0.0003 H       1  LIG1        0.0633
      9 H          -1.4853    2.0212    0.0010 H       1  LIG1        0.0639
     10 C          -3.4434    0.0212    0.0008 C.ar    1  LIG1       -0.0520
     11 C          -4.7180   -0.5776    0.0025 C.ar    1  LIG1       -0.0520
     12 C          -2.3194   -0.8299   -0.0001 C.ar    1  LIG1       -0.0017
     13 C          -4.8692   -1.9625    0.0027 C.ar    1  LIG1       -0.0017
     14 H          -5.5988    0.0606    0.0034 H       1  LIG1        0.0624
     15 C          -2.4697   -2.2124    0.0001 C.ar    1  LIG1       -0.0520
     16 C          -3.7444   -2.7884    0.0015 C.ar    1  LIG1       -0.0520
     17 H          -1.5874   -2.8474   -0.0005 H       1  LIG1        0.0624
     18 H          -3.3661    1.3189    0.0004 H       1  LIG1        0.0624
     19 H          -3.8788   -4.0814    0.0018 H       1  LIG1        0.0624
     20 C          -6.0610   -2.4816    0.0042 C.ar    1  LIG1        0.0465
     21 C          -7.2827   -1.8855    0.0049 C.ar    1  LIG1       -0.0364
     22 C          -8.2664   -2.9261    0.0077 C.ar    1  LIG1       -0.0438
     23 C          -7.6025   -4.1125    0.0069 C.ar    1  LIG1        0.0022
     24 N          -6.2521   -3.8449    0.0052 N.ar    1  LIG1       -0.3607
     25 H          -5.5298   -4.5278    0.0042 H       1  LIG1        0.1653
     26 H          -8.0538   -5.3316    0.0085 H       1  LIG1        0.0807
     27 H          -7.5118   -0.6058    0.0046 H       1  LIG1        0.0639
     28 H          -9.5569   -2.7694    0.0101 H       1  LIG1        0.0633
@<TRIPOS>BOND
     1     2     8    1
     2     2     1   ar
     3     2     3   ar
     4    17    15    1
     5     4    12    1
     6     4     5   ar
     7     4     3   ar
     8     6     5    1
     9    12    15   ar
    10    12    10   ar
    11     5     1   ar
    12    15    16   ar
    13     1     7    1
    14     3     9    1
    15    18    10    1
    16    10    11   ar
    17    16    19    1
    18    16    13   ar
    19    11    13   ar
    20    11    14    1
    21    13    20    1
    22    20    21   ar
    23    20    24   ar
    24    25    24    1
    25    27    21    1
    26    21    22   ar
    27    24    23   ar
    28    23    22   ar
    29    23    26    1
    30    22    28    1
