@<TRIPOS>MOLECULE
mol_data/noopt/geoms/mol2/13454-.out
 37 40 0 0 0
SMALL
GASTEIGER

@<TRIPOS>ATOM
      1 C           1.1215   -0.3259    0.0002 C.ar    1  LIG1        0.0022
      2 C           0.7176    0.9721   -0.0005 C.ar    1  LIG1       -0.0438
      3 C          -0.7144    0.9744    0.0003 C.ar    1  LIG1       -0.0364
      4 C          -1.1226   -0.3223   -0.0003 C.ar    1  LIG1        0.0465
      5 N          -0.0018   -1.1217    0.0001 N.ar    1  LIG1       -0.3607
      6 H          -0.0034   -2.1157   -0.0003 H       1  LIG1        0.1653
      7 H           2.3167   -0.8373    0.0007 H       1  LIG1        0.0807
      8 H           1.4918    2.0164   -0.0003 H       1  LIG1        0.0633
      9 H          -1.4853    2.0212    0.0010 H       1  LIG1        0.0639
     10 C          -3.4434    0.0212    0.0008 C.ar    1  LIG1       -0.0520
     11 C          -4.7180   -0.5776    0.0025 C.ar    1  LIG1       -0.0529
     12 C          -2.3194   -0.8299   -0.0001 C.ar    1  LIG1       -0.0017
     13 C          -4.8692   -1.9625    0.0027 C.ar    1  LIG1       -0.0113
     14 H          -5.5988    0.0606    0.0034 H       1  LIG1        0.0624
     15 C          -2.4697   -2.2124    0.0001 C.ar    1  LIG1       -0.0520
     16 C          -3.7444   -2.7884    0.0015 C.ar    1  LIG1       -0.0529
     17 H          -1.5874   -2.8474   -0.0005 H       1  LIG1        0.0624
     18 H          -3.3661    1.3189    0.0004 H       1  LIG1        0.0624
     19 H          -3.8788   -4.0814    0.0018 H       1  LIG1        0.0624
     20 C          -6.0610   -2.4816    0.0042 C.ar    1  LIG1        0.0199
     21 C          -7.2442   -1.7768    0.0048 C.ar    1  LIG1       -0.0463
     22 C          -8.3774   -2.6525    0.0058 C.ar    1  LIG1       -0.0463
     23 C          -7.9938   -3.9752    0.0067 C.ar    1  LIG1        0.0199
     24 S          -6.3290   -4.1322    0.0057 S.2     1  LIG1       -0.0883
     25 H          -7.3479   -0.4809    0.0043 H       1  LIG1        0.0629
     26 H          -9.6052   -2.2253    0.0057 H       1  LIG1        0.0629
     27 C          -8.2690   -6.3050    0.0084 C.ar    1  LIG1       -0.0535
     28 C          -9.1803   -7.3787    0.0086 C.ar    1  LIG1       -0.0612
     29 C          -8.7966   -4.9976    0.0083 C.ar    1  LIG1       -0.0113
     30 C         -10.5565   -7.1625    0.0093 C.ar    1  LIG1       -0.0617
     31 H          -8.7946   -8.3958    0.0085 H       1  LIG1        0.0618
     32 C         -10.1704   -4.7812    0.0090 C.ar    1  LIG1       -0.0535
     33 C         -11.0596   -5.8609    0.0096 C.ar    1  LIG1       -0.0612
     34 H         -10.5526   -3.7636    0.0088 H       1  LIG1        0.0624
     35 H         -11.3693   -8.1772    0.0096 H       1  LIG1        0.0618
     36 H          -6.9963   -6.5698    0.0080 H       1  LIG1        0.0624
     37 H         -12.3428   -5.6525    0.0100 H       1  LIG1        0.0618
@<TRIPOS>BOND
     1     2     8    1
     2     2     1   ar
     3     2     3   ar
     4    17    15    1
     5     4    12    1
     6     4     5   ar
     7     4     3   ar
     8     6     5    1
     9    12    15   ar
    10    12    10   ar
    11     5     1   ar
    12    15    16   ar
    13     1     7    1
    14     3     9    1
    15    18    10    1
    16    10    11   ar
    17    16    19    1
    18    16    13   ar
    19    11    13   ar
    20    11    14    1
    21    13    20    1
    22    20    21   ar
    23    20    24   ar
    24    25    21    1
    25    21    22   ar
    26    24    23   ar
    27    26    22    1
    28    22    23   ar
    29    23    29    1
    30    36    27    1
    31    29    27   ar
    32    29    32   ar
    33    27    28   ar
    34    31    28    1
    35    28    30   ar
    36    34    32    1
    37    32    33   ar
    38    30    33   ar
    39    30    35    1
    40    33    37    1
