@<TRIPOS>MOLECULE
mol_data/noopt/geoms/mol2/1348-8.out
 32 35 0 0 0
SMALL
GASTEIGER

@<TRIPOS>ATOM
      1 C           1.1215   -0.3259    0.0002 C.ar    1  LIG1        0.0022
      2 C           0.7176    0.9721   -0.0005 C.ar    1  LIG1       -0.0438
      3 C          -0.7144    0.9744    0.0003 C.ar    1  LIG1       -0.0364
      4 C          -1.1226   -0.3223   -0.0003 C.ar    1  LIG1        0.0465
      5 N          -0.0018   -1.1217    0.0001 N.ar    1  LIG1       -0.3607
      6 H          -0.0034   -2.1157   -0.0003 H       1  LIG1        0.1653
      7 H           2.3167   -0.8373    0.0007 H       1  LIG1        0.0807
      8 H           1.4918    2.0164   -0.0003 H       1  LIG1        0.0633
      9 H          -1.4853    2.0212    0.0010 H       1  LIG1        0.0639
     10 C          -3.4434    0.0212    0.0008 C.ar    1  LIG1       -0.0520
     11 C          -4.7180   -0.5776    0.0025 C.ar    1  LIG1       -0.0503
     12 C          -2.3194   -0.8299   -0.0001 C.ar    1  LIG1       -0.0017
     13 C          -4.8692   -1.9625    0.0027 C.ar    1  LIG1        0.0227
     14 H          -5.5988    0.0606    0.0034 H       1  LIG1        0.0625
     15 C          -2.4697   -2.2124    0.0001 C.ar    1  LIG1       -0.0520
     16 C          -3.7444   -2.7884    0.0015 C.ar    1  LIG1       -0.0503
     17 H          -1.5874   -2.8474   -0.0005 H       1  LIG1        0.0624
     18 H          -3.3661    1.3189    0.0004 H       1  LIG1        0.0624
     19 H          -3.8788   -4.0814    0.0018 H       1  LIG1        0.0625
     20 C          -6.0610   -2.4816    0.0042 C.ar    1  LIG1        0.2034
     21 N          -6.1330   -3.8408    0.0049 N.ar    1  LIG1       -0.1251
     22 C          -8.5324   -3.5581    0.0073 C.ar    1  LIG1        0.2435
     23 N          -7.1054   -1.6087    0.0049 N.ar    1  LIG1       -0.1251
     24 N          -7.3771   -4.3637    0.0065 N.ar    1  LIG1       -0.1218
     25 N          -8.3355   -2.1637    0.0066 N.ar    1  LIG1       -0.1218
     26 C          -9.7242   -4.0773    0.0088 C.ar    1  LIG1        0.2434
     27 N         -10.7686   -3.2044    0.0095 N.ar    1  LIG1       -0.1224
     28 C         -12.1955   -5.1540    0.0120 C.ar    1  LIG1        0.1605
     29 N          -9.7962   -5.4366    0.0095 N.ar    1  LIG1       -0.1224
     30 N         -11.9986   -3.7594    0.0111 N.ar    1  LIG1       -0.1338
     31 N         -11.0403   -5.9594    0.0110 N.ar    1  LIG1       -0.1338
     32 H         -13.3874   -5.6732    0.0135 H       1  LIG1        0.1085
@<TRIPOS>BOND
     1     2     8    1
     2     2     1   ar
     3     2     3   ar
     4    17    15    1
     5     4    12    1
     6     4     5   ar
     7     4     3   ar
     8     6     5    1
     9    12    15   ar
    10    12    10   ar
    11     5     1   ar
    12    15    16   ar
    13     1     7    1
    14     3     9    1
    15    18    10    1
    16    10    11   ar
    17    16    19    1
    18    16    13   ar
    19    11    13   ar
    20    11    14    1
    21    13    20    1
    22    20    21   ar
    23    20    23   ar
    24    21    24   ar
    25    23    25   ar
    26    24    22   ar
    27    25    22   ar
    28    22    26    1
    29    26    27   ar
    30    26    29   ar
    31    27    30   ar
    32    29    31   ar
    33    31    28   ar
    34    30    28   ar
    35    28    32    1
