@<TRIPOS>MOLECULE
mol_data/noopt/geoms/mol2/135-4.out
 27 29 0 0 0
SMALL
GASTEIGER

@<TRIPOS>ATOM
      1 C           1.1215   -0.3259    0.0002 C.ar    1  LIG1        0.0022
      2 C           0.7176    0.9721   -0.0005 C.ar    1  LIG1       -0.0438
      3 C          -0.7144    0.9744    0.0003 C.ar    1  LIG1       -0.0359
      4 C          -1.1226   -0.3223   -0.0003 C.ar    1  LIG1        0.0531
      5 N          -0.0018   -1.1217    0.0001 N.ar    1  LIG1       -0.3603
      6 H          -0.0034   -2.1157   -0.0003 H       1  LIG1        0.1653
      7 H           2.3167   -0.8373    0.0007 H       1  LIG1        0.0807
      8 H           1.4918    2.0164   -0.0003 H       1  LIG1        0.0633
      9 H          -1.4853    2.0212    0.0010 H       1  LIG1        0.0639
     10 C          -2.3194   -0.8299   -0.0001 C.ar    1  LIG1        0.0360
     11 C          -2.6221   -2.1734    0.0002 C.ar    1  LIG1       -0.0449
     12 C          -4.0372   -2.3932    0.0011 C.ar    1  LIG1       -0.0463
     13 C          -4.7331   -1.2047    0.0007 C.ar    1  LIG1        0.0200
     14 S          -3.7015    0.1113   -0.0000 S.2     1  LIG1       -0.0868
     15 H          -1.7531   -3.1403   -0.0002 H       1  LIG1        0.0630
     16 H          -4.5721   -3.5781    0.0022 H       1  LIG1        0.0629
     17 C          -6.6131    0.1986    0.0015 C.ar    1  LIG1       -0.0535
     18 C          -8.0193    0.2761    0.0031 C.ar    1  LIG1       -0.0612
     19 C          -6.0274   -1.0838    0.0007 C.ar    1  LIG1       -0.0113
     20 C          -8.8093   -0.8713    0.0032 C.ar    1  LIG1       -0.0617
     21 H          -8.4919    1.2558    0.0039 H       1  LIG1        0.0618
     22 C          -6.8156   -2.2296    0.0009 C.ar    1  LIG1       -0.0535
     23 C          -8.2110   -2.1319    0.0020 C.ar    1  LIG1       -0.0612
     24 H          -6.3402   -3.2072    0.0004 H       1  LIG1        0.0624
     25 H         -10.1048   -0.7629    0.0045 H       1  LIG1        0.0618
     26 H          -5.9295    1.3044    0.0012 H       1  LIG1        0.0624
     27 H          -8.9427   -3.2064    0.0023 H       1  LIG1        0.0618
@<TRIPOS>BOND
     1     2     8    1
     2     2     1   ar
     3     2     3   ar
     4     4    10    1
     5     4     5   ar
     6     4     3   ar
     7     6     5    1
     8    15    11    1
     9    10    14   ar
    10    10    11   ar
    11    14    13   ar
    12     5     1   ar
    13    11    12   ar
    14     1     7    1
    15     3     9    1
    16    24    22    1
    17    13    19    1
    18    13    12   ar
    19    19    22   ar
    20    19    17   ar
    21    22    23   ar
    22    12    16    1
    23    26    17    1
    24    17    18   ar
    25    23    27    1
    26    23    20   ar
    27    18    20   ar
    28    18    21    1
    29    20    25    1
