@<TRIPOS>MOLECULE
mol_data/noopt/geoms/mol2/135-8-4-.out
 33 36 0 0 0
SMALL
GASTEIGER

@<TRIPOS>ATOM
      1 C           1.1215   -0.3259    0.0002 C.ar    1  LIG1        0.0022
      2 C           0.7176    0.9721   -0.0005 C.ar    1  LIG1       -0.0438
      3 C          -0.7144    0.9744    0.0003 C.ar    1  LIG1       -0.0359
      4 C          -1.1226   -0.3223   -0.0003 C.ar    1  LIG1        0.0531
      5 N          -0.0018   -1.1217    0.0001 N.ar    1  LIG1       -0.3603
      6 H          -0.0034   -2.1157   -0.0003 H       1  LIG1        0.1653
      7 H           2.3167   -0.8373    0.0007 H       1  LIG1        0.0807
      8 H           1.4918    2.0164   -0.0003 H       1  LIG1        0.0633
      9 H          -1.4853    2.0212    0.0010 H       1  LIG1        0.0639
     10 C          -2.3194   -0.8299   -0.0001 C.ar    1  LIG1        0.0361
     11 C          -2.6221   -2.1734    0.0002 C.ar    1  LIG1       -0.0448
     12 C          -4.0372   -2.3932    0.0011 C.ar    1  LIG1       -0.0432
     13 C          -4.7331   -1.2047    0.0007 C.ar    1  LIG1        0.0604
     14 S          -3.7015    0.1113   -0.0000 S.2     1  LIG1       -0.0836
     15 H          -1.7531   -3.1403   -0.0002 H       1  LIG1        0.0630
     16 H          -4.5721   -3.5781    0.0022 H       1  LIG1        0.0630
     17 C          -6.0275   -1.0838    0.0007 C.ar    1  LIG1        0.2099
     18 N          -6.7469   -2.2393    0.0007 N.ar    1  LIG1       -0.1247
     19 C          -8.7114   -0.8330    0.0008 C.ar    1  LIG1        0.2034
     20 N          -6.5204    0.1849    0.0007 N.ar    1  LIG1       -0.1247
     21 N          -8.0888   -2.0963    0.0008 N.ar    1  LIG1       -0.1252
     22 N          -7.8656    0.2929    0.0009 N.ar    1  LIG1       -0.1252
     23 C         -10.8188   -1.8640    0.0001 C.ar    1  LIG1       -0.0509
     24 C         -12.2150   -1.6797   -0.0014 C.ar    1  LIG1       -0.0611
     25 C         -10.0057   -0.7121    0.0008 C.ar    1  LIG1        0.0226
     26 C         -12.7789   -0.4058   -0.0015 C.ar    1  LIG1       -0.0617
     27 H         -12.8609   -2.5549   -0.0021 H       1  LIG1        0.0618
     28 C         -10.5681    0.5598    0.0007 C.ar    1  LIG1       -0.0509
     29 C         -11.9574    0.7222   -0.0003 C.ar    1  LIG1       -0.0611
     30 H          -9.9199    1.4324    0.0012 H       1  LIG1        0.0625
     31 H         -14.0721   -0.2724   -0.0027 H       1  LIG1        0.0618
     32 H         -10.3518   -3.0772    0.0004 H       1  LIG1        0.0625
     33 H         -12.4775    1.9136   -0.0006 H       1  LIG1        0.0618
@<TRIPOS>BOND
     1    31    26    1
     2    27    24    1
     3    26    24   ar
     4    26    29   ar
     5    24    23   ar
     6    33    29    1
     7     2     8    1
     8     2     1   ar
     9     2     3   ar
    10    29    28   ar
    11     4    10    1
    12     4     5   ar
    13     4     3   ar
    14     6     5    1
    15    15    11    1
    16    10    14   ar
    17    10    11   ar
    18    14    13   ar
    19     5     1   ar
    20    23    32    1
    21    23    25   ar
    22    11    12   ar
    23     1     7    1
    24     3     9    1
    25    13    17    1
    26    13    12   ar
    27    28    25   ar
    28    28    30    1
    29    17    18   ar
    30    17    20   ar
    31    18    21   ar
    32    20    22   ar
    33    21    19   ar
    34    19    25    1
    35    19    22   ar
    36    12    16    1
