@<TRIPOS>MOLECULE
mol_data/noopt/geoms/mol2/135-5-.out
 24 26 0 0 0
SMALL
GASTEIGER

@<TRIPOS>ATOM
      1 C           1.1215   -0.3259    0.0002 C.ar    1  LIG1        0.0022
      2 C           0.7176    0.9721   -0.0005 C.ar    1  LIG1       -0.0438
      3 C          -0.7144    0.9744    0.0003 C.ar    1  LIG1       -0.0359
      4 C          -1.1226   -0.3223   -0.0003 C.ar    1  LIG1        0.0531
      5 N          -0.0018   -1.1217    0.0001 N.ar    1  LIG1       -0.3603
      6 H          -0.0034   -2.1157   -0.0003 H       1  LIG1        0.1653
      7 H           2.3167   -0.8373    0.0007 H       1  LIG1        0.0807
      8 H           1.4918    2.0164   -0.0003 H       1  LIG1        0.0633
      9 H          -1.4853    2.0212    0.0010 H       1  LIG1        0.0639
     10 C          -2.3194   -0.8299   -0.0001 C.ar    1  LIG1        0.0361
     11 C          -2.6221   -2.1734    0.0002 C.ar    1  LIG1       -0.0449
     12 C          -4.0372   -2.3932    0.0011 C.ar    1  LIG1       -0.0458
     13 C          -4.7331   -1.2047    0.0007 C.ar    1  LIG1        0.0265
     14 S          -3.7015    0.1113   -0.0000 S.2     1  LIG1       -0.0863
     15 H          -1.7531   -3.1403   -0.0002 H       1  LIG1        0.0630
     16 H          -4.5721   -3.5781    0.0022 H       1  LIG1        0.0629
     17 C          -6.0274   -1.0838    0.0007 C.ar    1  LIG1        0.0259
     18 C          -6.9312   -2.1230    0.0009 C.ar    1  LIG1       -0.0464
     19 C          -8.2813   -1.6451    0.0016 C.ar    1  LIG1       -0.0541
     20 C          -8.3301   -0.2688    0.0012 C.ar    1  LIG1       -0.0237
     21 S          -6.7977    0.4004    0.0007 S.2     1  LIG1       -0.0961
     22 H          -9.4122    0.4517    0.0011 H       1  LIG1        0.0693
     23 H          -6.6250   -3.3864    0.0006 H       1  LIG1        0.0629
     24 H          -9.3142   -2.4345    0.0026 H       1  LIG1        0.0623
@<TRIPOS>BOND
     1     2     8    1
     2     2     1   ar
     3     2     3   ar
     4     4    10    1
     5     4     5   ar
     6     4     3   ar
     7     6     5    1
     8    15    11    1
     9    10    14   ar
    10    10    11   ar
    11    14    13   ar
    12     5     1   ar
    13    11    12   ar
    14     1     7    1
    15     3     9    1
    16    23    18    1
    17    21    17   ar
    18    21    20   ar
    19    13    17    1
    20    13    12   ar
    21    17    18   ar
    22    18    19   ar
    23    12    16    1
    24    22    20    1
    25    20    19   ar
    26    19    24    1
