@<TRIPOS>MOLECULE
mol_data/noopt/geoms/mol2/135-.out
 17 18 0 0 0
SMALL
GASTEIGER

@<TRIPOS>ATOM
      1 C           1.1215   -0.3259    0.0002 C.ar    1  LIG1        0.0022
      2 C           0.7176    0.9721   -0.0005 C.ar    1  LIG1       -0.0438
      3 C          -0.7144    0.9744    0.0003 C.ar    1  LIG1       -0.0359
      4 C          -1.1226   -0.3223   -0.0003 C.ar    1  LIG1        0.0531
      5 N          -0.0018   -1.1217    0.0001 N.ar    1  LIG1       -0.3603
      6 H          -0.0034   -2.1157   -0.0003 H       1  LIG1        0.1653
      7 H           2.3167   -0.8373    0.0007 H       1  LIG1        0.0807
      8 H           1.4918    2.0164   -0.0003 H       1  LIG1        0.0633
      9 H          -1.4853    2.0212    0.0010 H       1  LIG1        0.0639
     10 C          -2.3194   -0.8299   -0.0001 C.ar    1  LIG1        0.0354
     11 C          -2.6221   -2.1734    0.0002 C.ar    1  LIG1       -0.0455
     12 C          -4.0372   -2.3932    0.0011 C.ar    1  LIG1       -0.0541
     13 C          -4.7331   -1.2047    0.0007 C.ar    1  LIG1       -0.0237
     14 S          -3.7015    0.1113   -0.0000 S.2     1  LIG1       -0.0952
     15 H          -6.0275   -1.0838    0.0007 H       1  LIG1        0.0693
     16 H          -1.7531   -3.1403   -0.0002 H       1  LIG1        0.0629
     17 H          -4.5721   -3.5781    0.0022 H       1  LIG1        0.0623
@<TRIPOS>BOND
     1     2     8    1
     2     2     1   ar
     3     2     3   ar
     4     4    10    1
     5     4     5   ar
     6     4     3   ar
     7     6     5    1
     8    16    11    1
     9    10    14   ar
    10    10    11   ar
    11    14    13   ar
    12     5     1   ar
    13    11    12   ar
    14     1     7    1
    15     3     9    1
    16    13    15    1
    17    13    12   ar
    18    12    17    1
