@<TRIPOS>MOLECULE
mol_data/noopt/geoms/mol2/135-58.out
 30 33 0 0 0
SMALL
GASTEIGER

@<TRIPOS>ATOM
      1 C           1.1215   -0.3259    0.0002 C.ar    1  LIG1        0.0022
      2 C           0.7176    0.9721   -0.0005 C.ar    1  LIG1       -0.0438
      3 C          -0.7144    0.9744    0.0003 C.ar    1  LIG1       -0.0359
      4 C          -1.1226   -0.3223   -0.0003 C.ar    1  LIG1        0.0531
      5 N          -0.0018   -1.1217    0.0001 N.ar    1  LIG1       -0.3603
      6 H          -0.0034   -2.1157   -0.0003 H       1  LIG1        0.1653
      7 H           2.3167   -0.8373    0.0007 H       1  LIG1        0.0807
      8 H           1.4918    2.0164   -0.0003 H       1  LIG1        0.0633
      9 H          -1.4853    2.0212    0.0010 H       1  LIG1        0.0639
     10 C          -2.3194   -0.8299   -0.0001 C.ar    1  LIG1        0.0361
     11 C          -2.6221   -2.1734    0.0002 C.ar    1  LIG1       -0.0449
     12 C          -4.0372   -2.3932    0.0011 C.ar    1  LIG1       -0.0458
     13 C          -4.7331   -1.2047    0.0007 C.ar    1  LIG1        0.0265
     14 S          -3.7015    0.1113   -0.0000 S.2     1  LIG1       -0.0863
     15 H          -1.7531   -3.1403   -0.0002 H       1  LIG1        0.0630
     16 H          -4.5721   -3.5781    0.0022 H       1  LIG1        0.0629
     17 C          -6.0274   -1.0838    0.0007 C.ar    1  LIG1        0.0266
     18 C          -6.7232    0.1047    0.0004 C.ar    1  LIG1       -0.0457
     19 C          -8.1384   -0.1149   -0.0002 C.ar    1  LIG1       -0.0432
     20 C          -8.4412   -1.4584    0.0005 C.ar    1  LIG1        0.0604
     21 S          -7.0592   -2.3998    0.0011 S.2     1  LIG1       -0.0845
     22 H          -6.1882    1.2895    0.0004 H       1  LIG1        0.0629
     23 H          -9.0073    0.8521   -0.0013 H       1  LIG1        0.0630
     24 C          -9.6380   -1.9660    0.0008 C.ar    1  LIG1        0.2098
     25 N         -10.6738   -1.0830    0.0009 N.ar    1  LIG1       -0.1253
     26 C         -12.1196   -3.0186    0.0014 C.ar    1  LIG1        0.1605
     27 N          -9.7231   -3.3245    0.0009 N.ar    1  LIG1       -0.1253
     28 N         -11.9092   -1.6260    0.0013 N.ar    1  LIG1       -0.1339
     29 N         -10.9723   -3.8352    0.0012 N.ar    1  LIG1       -0.1339
     30 H         -13.3164   -3.5262    0.0017 H       1  LIG1        0.1085
@<TRIPOS>BOND
     1    23    19    1
     2     2     8    1
     3     2     1   ar
     4     2     3   ar
     5     4    10    1
     6     4     5   ar
     7     4     3   ar
     8     6     5    1
     9    19    18   ar
    10    19    20   ar
    11    15    11    1
    12    10    14   ar
    13    10    11   ar
    14    14    13   ar
    15     5     1   ar
    16    11    12   ar
    17     1     7    1
    18     3     9    1
    19    22    18    1
    20    18    17   ar
    21    20    24    1
    22    20    21   ar
    23    13    17    1
    24    13    12   ar
    25    17    21   ar
    26    24    27   ar
    27    24    25   ar
    28    27    29   ar
    29    25    28   ar
    30    12    16    1
    31    29    26   ar
    32    28    26   ar
    33    26    30    1
