@<TRIPOS>MOLECULE
mol_data/noopt/geoms/mol2/135-13-.out
 25 27 0 0 0
SMALL
GASTEIGER

@<TRIPOS>ATOM
      1 C           1.1215   -0.3259    0.0002 C.ar    1  LIG1        0.0022
      2 C           0.7176    0.9721   -0.0005 C.ar    1  LIG1       -0.0438
      3 C          -0.7144    0.9744    0.0003 C.ar    1  LIG1       -0.0359
      4 C          -1.1226   -0.3223   -0.0003 C.ar    1  LIG1        0.0531
      5 N          -0.0018   -1.1217    0.0001 N.ar    1  LIG1       -0.3603
      6 H          -0.0034   -2.1157   -0.0003 H       1  LIG1        0.1653
      7 H           2.3167   -0.8373    0.0007 H       1  LIG1        0.0807
      8 H           1.4918    2.0164   -0.0003 H       1  LIG1        0.0633
      9 H          -1.4853    2.0212    0.0010 H       1  LIG1        0.0639
     10 C          -2.3194   -0.8299   -0.0001 C.ar    1  LIG1        0.0361
     11 C          -2.6221   -2.1734    0.0002 C.ar    1  LIG1       -0.0449
     12 C          -4.0372   -2.3932    0.0011 C.ar    1  LIG1       -0.0449
     13 C          -4.7331   -1.2047    0.0007 C.ar    1  LIG1        0.0361
     14 S          -3.7015    0.1113   -0.0000 S.2     1  LIG1       -0.0853
     15 H          -1.7531   -3.1403   -0.0002 H       1  LIG1        0.0630
     16 H          -4.5721   -3.5781    0.0022 H       1  LIG1        0.0630
     17 C          -6.0275   -1.0838    0.0007 C.ar    1  LIG1        0.0531
     18 C          -7.0018   -2.0318    0.0013 C.ar    1  LIG1       -0.0359
     19 C          -8.2613   -1.3505   -0.0001 C.ar    1  LIG1       -0.0438
     20 C          -8.0013   -0.0162    0.0004 C.ar    1  LIG1        0.0022
     21 N          -6.6349    0.1515    0.0004 N.ar    1  LIG1       -0.3603
     22 H          -6.1620    1.0258    0.0008 H       1  LIG1        0.1653
     23 H          -8.8108    1.0010   -0.0003 H       1  LIG1        0.0807
     24 H          -6.8197   -3.3190    0.0013 H       1  LIG1        0.0639
     25 H          -9.4383   -1.9026   -0.0011 H       1  LIG1        0.0633
@<TRIPOS>BOND
     1    25    19    1
     2     2     8    1
     3     2     1   ar
     4     2     3   ar
     5     4    10    1
     6     4     5   ar
     7     4     3   ar
     8     6     5    1
     9    23    20    1
    10    15    11    1
    11    10    14   ar
    12    10    11   ar
    13    19    20   ar
    14    19    18   ar
    15    14    13   ar
    16     5     1   ar
    17    11    12   ar
    18     1     7    1
    19     3     9    1
    20    20    21   ar
    21    21    17   ar
    22    21    22    1
    23    13    17    1
    24    13    12   ar
    25    17    18   ar
    26    12    16    1
    27    18    24    1
