@<TRIPOS>MOLECULE
mol_data/noopt/geoms/mol2/135-4-8.out
 33 36 0 0 0
SMALL
GASTEIGER

@<TRIPOS>ATOM
      1 C           1.1215   -0.3259    0.0002 C.ar    1  LIG1        0.0022
      2 C           0.7176    0.9721   -0.0005 C.ar    1  LIG1       -0.0438
      3 C          -0.7144    0.9744    0.0003 C.ar    1  LIG1       -0.0359
      4 C          -1.1226   -0.3223   -0.0003 C.ar    1  LIG1        0.0531
      5 N          -0.0018   -1.1217    0.0001 N.ar    1  LIG1       -0.3603
      6 H          -0.0034   -2.1157   -0.0003 H       1  LIG1        0.1653
      7 H           2.3167   -0.8373    0.0007 H       1  LIG1        0.0807
      8 H           1.4918    2.0164   -0.0003 H       1  LIG1        0.0633
      9 H          -1.4853    2.0212    0.0010 H       1  LIG1        0.0639
     10 C          -2.3194   -0.8299   -0.0001 C.ar    1  LIG1        0.0360
     11 C          -2.6221   -2.1734    0.0002 C.ar    1  LIG1       -0.0449
     12 C          -4.0372   -2.3932    0.0011 C.ar    1  LIG1       -0.0463
     13 C          -4.7331   -1.2047    0.0007 C.ar    1  LIG1        0.0200
     14 S          -3.7015    0.1113   -0.0000 S.2     1  LIG1       -0.0868
     15 H          -1.7531   -3.1403   -0.0002 H       1  LIG1        0.0630
     16 H          -4.5721   -3.5781    0.0022 H       1  LIG1        0.0629
     17 C          -6.8405   -2.2357   -0.0000 C.ar    1  LIG1       -0.0529
     18 C          -8.2367   -2.0514   -0.0015 C.ar    1  LIG1       -0.0503
     19 C          -6.0274   -1.0838    0.0007 C.ar    1  LIG1       -0.0113
     20 C          -8.8006   -0.7776   -0.0016 C.ar    1  LIG1        0.0227
     21 H          -8.8826   -2.9266   -0.0023 H       1  LIG1        0.0625
     22 C          -6.5898    0.1881    0.0006 C.ar    1  LIG1       -0.0529
     23 C          -7.9791    0.3505   -0.0005 C.ar    1  LIG1       -0.0503
     24 H          -5.9416    1.0607    0.0011 H       1  LIG1        0.0624
     25 H          -6.3735   -3.4489    0.0003 H       1  LIG1        0.0624
     26 H          -8.4991    1.5419   -0.0007 H       1  LIG1        0.0625
     27 C         -10.0937   -0.6441   -0.0029 C.ar    1  LIG1        0.2033
     28 N         -10.5743    0.6293   -0.0035 N.ar    1  LIG1       -0.1258
     29 C         -12.7751   -0.3675   -0.0055 C.ar    1  LIG1        0.1605
     30 N         -10.8243   -1.7926   -0.0035 N.ar    1  LIG1       -0.1258
     31 N         -11.9184    0.7504   -0.0048 N.ar    1  LIG1       -0.1339
     32 N         -12.1647   -1.6366   -0.0049 N.ar    1  LIG1       -0.1339
     33 H         -14.0683   -0.2340   -0.0067 H       1  LIG1        0.1085
@<TRIPOS>BOND
     1    33    29    1
     2    29    32   ar
     3    29    31   ar
     4    32    30   ar
     5    31    28   ar
     6    28    27   ar
     7    30    27   ar
     8    27    20    1
     9    21    18    1
    10    20    18   ar
    11    20    23   ar
    12    18    17   ar
    13    26    23    1
    14     2     8    1
    15     2     1   ar
    16     2     3   ar
    17    23    22   ar
    18     6     5    1
    19     4    10    1
    20     4     5   ar
    21     4     3   ar
    22    15    11    1
    23    10    14   ar
    24    10    11   ar
    25    14    13   ar
    26    17    25    1
    27    17    19   ar
    28     5     1   ar
    29    11    12   ar
    30     1     7    1
    31     3     9    1
    32    22    19   ar
    33    22    24    1
    34    13    19    1
    35    13    12   ar
    36    12    16    1
