@<TRIPOS>MOLECULE
mol_data/noopt/geoms/mol2/135-13-12-.out
 32 35 0 0 0
SMALL
GASTEIGER

@<TRIPOS>ATOM
      1 C           1.1215   -0.3259    0.0002 C.ar    1  LIG1        0.0022
      2 C           0.7176    0.9721   -0.0005 C.ar    1  LIG1       -0.0438
      3 C          -0.7144    0.9744    0.0003 C.ar    1  LIG1       -0.0359
      4 C          -1.1226   -0.3223   -0.0003 C.ar    1  LIG1        0.0531
      5 N          -0.0018   -1.1217    0.0001 N.ar    1  LIG1       -0.3603
      6 H          -0.0034   -2.1157   -0.0003 H       1  LIG1        0.1653
      7 H           2.3167   -0.8373    0.0007 H       1  LIG1        0.0807
      8 H           1.4918    2.0164   -0.0003 H       1  LIG1        0.0633
      9 H          -1.4853    2.0212    0.0010 H       1  LIG1        0.0639
     10 C          -2.3194   -0.8299   -0.0001 C.ar    1  LIG1        0.0361
     11 C          -2.6221   -2.1734    0.0002 C.ar    1  LIG1       -0.0449
     12 C          -4.0372   -2.3932    0.0011 C.ar    1  LIG1       -0.0449
     13 C          -4.7331   -1.2047    0.0007 C.ar    1  LIG1        0.0361
     14 S          -3.7015    0.1113   -0.0000 S.2     1  LIG1       -0.0853
     15 H          -1.7531   -3.1403   -0.0002 H       1  LIG1        0.0630
     16 H          -4.5721   -3.5781    0.0022 H       1  LIG1        0.0630
     17 C          -6.0275   -1.0838    0.0007 C.ar    1  LIG1        0.0537
     18 C          -7.0018   -2.0318    0.0013 C.ar    1  LIG1       -0.0352
     19 C          -8.2613   -1.3505   -0.0001 C.ar    1  LIG1       -0.0328
     20 C          -8.0013   -0.0162    0.0004 C.ar    1  LIG1        0.0825
     21 N          -6.6349    0.1515    0.0004 N.ar    1  LIG1       -0.3514
     22 H          -6.1620    1.0258    0.0008 H       1  LIG1        0.1660
     23 H          -6.8197   -3.3190    0.0013 H       1  LIG1        0.0639
     24 H          -9.4383   -1.9026   -0.0011 H       1  LIG1        0.0640
     25 C          -8.8108    1.0010   -0.0003 C.ar    1  LIG1        0.1509
     26 C         -10.1802    1.1680   -0.0007 C.ar    1  LIG1       -0.0144
     27 C         -10.4240    2.5954   -0.0014 C.ar    1  LIG1       -0.0233
     28 C          -9.1869    3.2062   -0.0012 C.ar    1  LIG1        0.0926
     29 O          -8.1764    2.2440   -0.0004 O.2     1  LIG1       -0.4615
     30 H          -8.7602    4.4342   -0.0015 H       1  LIG1        0.1029
     31 H         -11.0945    0.2438   -0.0007 H       1  LIG1        0.0656
     32 H         -11.5929    3.1643   -0.0020 H       1  LIG1        0.0649
@<TRIPOS>BOND
     1    32    27    1
     2    30    28    1
     3    27    28   ar
     4    27    26   ar
     5    28    29   ar
     6    24    19    1
     7    26    31    1
     8    26    25   ar
     9     2     8    1
    10     2     1   ar
    11     2     3   ar
    12    29    25   ar
    13     4    10    1
    14     4     5   ar
    15     4     3   ar
    16     6     5    1
    17    25    20    1
    18    15    11    1
    19    10    14   ar
    20    10    11   ar
    21    19    20   ar
    22    19    18   ar
    23    14    13   ar
    24     5     1   ar
    25    11    12   ar
    26     1     7    1
    27     3     9    1
    28    20    21   ar
    29    21    17   ar
    30    21    22    1
    31    13    17    1
    32    13    12   ar
    33    17    18   ar
    34    12    16    1
    35    18    23    1
