@<TRIPOS>MOLECULE
mol_data/noopt/geoms/mol2/135.out
 17 18 0 0 0
SMALL
GASTEIGER

@<TRIPOS>ATOM
      1 C           1.1215   -0.3259    0.0002 C.ar    1  LIG1        0.0022
      2 C           0.7176    0.9721   -0.0005 C.ar    1  LIG1       -0.0438
      3 C          -0.7144    0.9744    0.0003 C.ar    1  LIG1       -0.0359
      4 C          -1.1226   -0.3223   -0.0003 C.ar    1  LIG1        0.0531
      5 N          -0.0018   -1.1217    0.0001 N.ar    1  LIG1       -0.3603
      6 H          -0.0034   -2.1157   -0.0003 H       1  LIG1        0.1653
      7 H           2.3167   -0.8373    0.0007 H       1  LIG1        0.0807
      8 H           1.4918    2.0164   -0.0003 H       1  LIG1        0.0633
      9 H          -1.4853    2.0212    0.0010 H       1  LIG1        0.0639
     10 C          -2.3194   -0.8299   -0.0001 C.ar    1  LIG1        0.0354
     11 C          -3.4957   -0.1136   -0.0003 C.ar    1  LIG1       -0.0455
     12 C          -4.6374   -0.9783   -0.0008 C.ar    1  LIG1       -0.0541
     13 C          -4.2666   -2.3046   -0.0000 C.ar    1  LIG1       -0.0237
     14 S          -2.6034   -2.4778    0.0004 S.2     1  LIG1       -0.0952
     15 H          -5.0794   -3.3192    0.0004 H       1  LIG1        0.0693
     16 H          -3.5868    1.1832   -0.0004 H       1  LIG1        0.0629
     17 H          -5.8610   -0.5392   -0.0018 H       1  LIG1        0.0623
@<TRIPOS>BOND
     1    17    12    1
     2    12    11   ar
     3    12    13   ar
     4     2     8    1
     5     2     1   ar
     6     2     3   ar
     7    16    11    1
     8    11    10   ar
     9     4    10    1
    10     4     5   ar
    11     4     3   ar
    12     6     5    1
    13    10    14   ar
    14    13    15    1
    15    13    14   ar
    16     5     1   ar
    17     1     7    1
    18     3     9    1
