@<TRIPOS>MOLECULE
mol_data/noopt/geoms/mol2/13512.out
 24 26 0 0 0
SMALL
GASTEIGER

@<TRIPOS>ATOM
      1 C           1.1215   -0.3259    0.0002 C.ar    1  LIG1        0.0022
      2 C           0.7176    0.9721   -0.0005 C.ar    1  LIG1       -0.0438
      3 C          -0.7144    0.9744    0.0003 C.ar    1  LIG1       -0.0359
      4 C          -1.1226   -0.3223   -0.0003 C.ar    1  LIG1        0.0531
      5 N          -0.0018   -1.1217    0.0001 N.ar    1  LIG1       -0.3603
      6 H          -0.0034   -2.1157   -0.0003 H       1  LIG1        0.1653
      7 H           2.3167   -0.8373    0.0007 H       1  LIG1        0.0807
      8 H           1.4918    2.0164   -0.0003 H       1  LIG1        0.0633
      9 H          -1.4853    2.0212    0.0010 H       1  LIG1        0.0639
     10 C          -2.3194   -0.8299   -0.0001 C.ar    1  LIG1        0.0361
     11 C          -3.4957   -0.1136   -0.0003 C.ar    1  LIG1       -0.0448
     12 C          -4.6374   -0.9783   -0.0008 C.ar    1  LIG1       -0.0433
     13 C          -4.2666   -2.3046   -0.0000 C.ar    1  LIG1        0.0550
     14 S          -2.6034   -2.4778    0.0004 S.2     1  LIG1       -0.0837
     15 H          -3.5868    1.1832   -0.0004 H       1  LIG1        0.0630
     16 H          -5.8610   -0.5392   -0.0018 H       1  LIG1        0.0630
     17 C          -5.0793   -3.3192    0.0004 C.ar    1  LIG1        0.1413
     18 C          -6.4492   -3.4819    0.0008 C.ar    1  LIG1       -0.0154
     19 C          -6.6976   -4.9085    0.0012 C.ar    1  LIG1       -0.0233
     20 C          -5.4624   -5.5233    0.0010 C.ar    1  LIG1        0.0926
     21 O          -4.4489   -4.5643    0.0004 O.2     1  LIG1       -0.4624
     22 H          -5.0396   -6.7526    0.0012 H       1  LIG1        0.1029
     23 H          -7.3605   -2.5548    0.0008 H       1  LIG1        0.0655
     24 H          -7.8683   -5.4737    0.0016 H       1  LIG1        0.0649
@<TRIPOS>BOND
     1    16    12    1
     2    12    11   ar
     3    12    13   ar
     4     2     8    1
     5     2     1   ar
     6     2     3   ar
     7    15    11    1
     8    11    10   ar
     9     4    10    1
    10     4     5   ar
    11     4     3   ar
    12     6     5    1
    13    10    14   ar
    14    13    17    1
    15    13    14   ar
    16     5     1   ar
    17     1     7    1
    18     3     9    1
    19    21    17   ar
    20    21    20   ar
    21    17    18   ar
    22    18    23    1
    23    18    19   ar
    24    20    19   ar
    25    20    22    1
    26    19    24    1
