@<TRIPOS>MOLECULE
mol_data/noopt/geoms/mol2/13513-13.out
 33 36 0 0 0
SMALL
GASTEIGER

@<TRIPOS>ATOM
      1 C           1.1215   -0.3259    0.0002 C.ar    1  LIG1        0.0022
      2 C           0.7176    0.9721   -0.0005 C.ar    1  LIG1       -0.0438
      3 C          -0.7144    0.9744    0.0003 C.ar    1  LIG1       -0.0359
      4 C          -1.1226   -0.3223   -0.0003 C.ar    1  LIG1        0.0531
      5 N          -0.0018   -1.1217    0.0001 N.ar    1  LIG1       -0.3603
      6 H          -0.0034   -2.1157   -0.0003 H       1  LIG1        0.1653
      7 H           2.3167   -0.8373    0.0007 H       1  LIG1        0.0807
      8 H           1.4918    2.0164   -0.0003 H       1  LIG1        0.0633
      9 H          -1.4853    2.0212    0.0010 H       1  LIG1        0.0639
     10 C          -2.3194   -0.8299   -0.0001 C.ar    1  LIG1        0.0361
     11 C          -3.4957   -0.1136   -0.0003 C.ar    1  LIG1       -0.0449
     12 C          -4.6374   -0.9783   -0.0008 C.ar    1  LIG1       -0.0449
     13 C          -4.2666   -2.3046   -0.0000 C.ar    1  LIG1        0.0361
     14 S          -2.6034   -2.4778    0.0004 S.2     1  LIG1       -0.0853
     15 H          -3.5868    1.1832   -0.0004 H       1  LIG1        0.0630
     16 H          -5.8610   -0.5392   -0.0018 H       1  LIG1        0.0630
     17 C          -5.0794   -3.3192    0.0004 C.ar    1  LIG1        0.0536
     18 C          -4.8234   -4.6543    0.0012 C.ar    1  LIG1       -0.0353
     19 C          -6.0851   -5.3317    0.0003 C.ar    1  LIG1       -0.0344
     20 C          -7.0565   -4.3807    0.0007 C.ar    1  LIG1        0.0633
     21 N          -6.4452   -3.1472    0.0003 N.ar    1  LIG1       -0.3526
     22 H          -6.9154   -2.2715    0.0006 H       1  LIG1        0.1660
     23 H          -3.6482   -5.2101    0.0012 H       1  LIG1        0.0639
     24 H          -6.2712   -6.6183   -0.0004 H       1  LIG1        0.0639
     25 C          -8.3513   -4.4975    0.0004 C.ar    1  LIG1        0.0629
     26 C          -9.3226   -3.5465   -0.0003 C.ar    1  LIG1       -0.0350
     27 C         -10.5843   -4.2238    0.0007 C.ar    1  LIG1       -0.0438
     28 C         -10.3285   -5.5589    0.0001 C.ar    1  LIG1        0.0022
     29 N          -8.9626   -5.7310    0.0003 N.ar    1  LIG1       -0.3595
     30 H          -8.4925   -6.6068   -0.0001 H       1  LIG1        0.1654
     31 H         -11.1413   -6.5735    0.0004 H       1  LIG1        0.0807
     32 H          -9.1365   -2.2599   -0.0001 H       1  LIG1        0.0639
     33 H         -11.7595   -3.6680    0.0015 H       1  LIG1        0.0633
@<TRIPOS>BOND
     1    16    12    1
     2    12    11   ar
     3    12    13   ar
     4     2     8    1
     5     2     1   ar
     6     2     3   ar
     7    15    11    1
     8    24    19    1
     9    11    10   ar
    10     4    10    1
    11     4     5   ar
    12     4     3   ar
    13     6     5    1
    14    26    32    1
    15    26    25   ar
    16    26    27   ar
    17    30    29    1
    18    10    14   ar
    19    13    17    1
    20    13    14   ar
    21    28    29   ar
    22    28    31    1
    23    28    27   ar
    24     5     1   ar
    25     1     7    1
    26    19    20   ar
    27    19    18   ar
    28     3     9    1
    29    29    25   ar
    30    21    17   ar
    31    21    22    1
    32    21    20   ar
    33    25    20    1
    34    17    18   ar
    35    27    33    1
    36    23    18    1
