@<TRIPOS>MOLECULE
mol_data/noopt/geoms/mol2/13512-4-.out
 34 37 0 0 0
SMALL
GASTEIGER

@<TRIPOS>ATOM
      1 C           1.1215   -0.3259    0.0002 C.ar    1  LIG1        0.0022
      2 C           0.7176    0.9721   -0.0005 C.ar    1  LIG1       -0.0438
      3 C          -0.7144    0.9744    0.0003 C.ar    1  LIG1       -0.0359
      4 C          -1.1226   -0.3223   -0.0003 C.ar    1  LIG1        0.0531
      5 N          -0.0018   -1.1217    0.0001 N.ar    1  LIG1       -0.3603
      6 H          -0.0034   -2.1157   -0.0003 H       1  LIG1        0.1653
      7 H           2.3167   -0.8373    0.0007 H       1  LIG1        0.0807
      8 H           1.4918    2.0164   -0.0003 H       1  LIG1        0.0633
      9 H          -1.4853    2.0212    0.0010 H       1  LIG1        0.0639
     10 C          -2.3194   -0.8299   -0.0001 C.ar    1  LIG1        0.0361
     11 C          -3.4957   -0.1136   -0.0003 C.ar    1  LIG1       -0.0448
     12 C          -4.6374   -0.9783   -0.0008 C.ar    1  LIG1       -0.0433
     13 C          -4.2666   -2.3046   -0.0000 C.ar    1  LIG1        0.0550
     14 S          -2.6034   -2.4778    0.0004 S.2     1  LIG1       -0.0837
     15 H          -3.5868    1.1832   -0.0004 H       1  LIG1        0.0630
     16 H          -5.8610   -0.5392   -0.0018 H       1  LIG1        0.0630
     17 C          -5.0793   -3.3192    0.0004 C.ar    1  LIG1        0.1422
     18 C          -4.9391   -4.6916    0.0008 C.ar    1  LIG1       -0.0147
     19 C          -6.2771   -5.2453    0.0012 C.ar    1  LIG1       -0.0152
     20 C          -7.1466   -4.1740    0.0012 C.ar    1  LIG1        0.1357
     21 O          -6.4320   -2.9757    0.0008 O.2     1  LIG1       -0.4543
     22 H          -3.8355   -5.3786    0.0007 H       1  LIG1        0.0656
     23 H          -6.5732   -6.5111    0.0016 H       1  LIG1        0.0656
     24 C          -9.2724   -5.1667    0.0008 C.ar    1  LIG1       -0.0511
     25 C         -10.6650   -4.9572   -0.0005 C.ar    1  LIG1       -0.0611
     26 C          -8.4386   -4.0298    0.0014 C.ar    1  LIG1        0.0173
     27 C         -11.2057   -3.6734   -0.0006 C.ar    1  LIG1       -0.0617
     28 H         -11.3266   -5.8206   -0.0012 H       1  LIG1        0.0618
     29 C          -8.9779   -2.7479    0.0014 C.ar    1  LIG1       -0.0511
     30 C         -10.3640   -2.5604    0.0005 C.ar    1  LIG1       -0.0611
     31 H          -8.3139   -1.8872    0.0018 H       1  LIG1        0.0625
     32 H         -12.4963   -3.5165   -0.0016 H       1  LIG1        0.0618
     33 H          -8.8274   -6.3881    0.0010 H       1  LIG1        0.0625
     34 H         -10.8624   -1.3597    0.0003 H       1  LIG1        0.0618
@<TRIPOS>BOND
     1    16    12    1
     2    32    27    1
     3    28    25    1
     4    12    11   ar
     5    12    13   ar
     6    27    25   ar
     7    27    30   ar
     8    25    24   ar
     9     2     8    1
    10     2     1   ar
    11     2     3   ar
    12    15    11    1
    13    11    10   ar
    14     4    10    1
    15     4     5   ar
    16     4     3   ar
    17     6     5    1
    18    10    14   ar
    19    13    17    1
    20    13    14   ar
    21     5     1   ar
    22     1     7    1
    23     3     9    1
    24    34    30    1
    25    17    18   ar
    26    17    21   ar
    27    30    29   ar
    28    22    18    1
    29    24    33    1
    30    24    26   ar
    31    18    19   ar
    32    21    20   ar
    33    20    19   ar
    34    20    26    1
    35    19    23    1
    36    29    26   ar
    37    29    31    1
