@<TRIPOS>MOLECULE
mol_data/noopt/geoms/mol2/1354.out
 27 29 0 0 0
SMALL
GASTEIGER

@<TRIPOS>ATOM
      1 C           1.1215   -0.3259    0.0002 C.ar    1  LIG1        0.0022
      2 C           0.7176    0.9721   -0.0005 C.ar    1  LIG1       -0.0438
      3 C          -0.7144    0.9744    0.0003 C.ar    1  LIG1       -0.0359
      4 C          -1.1226   -0.3223   -0.0003 C.ar    1  LIG1        0.0531
      5 N          -0.0018   -1.1217    0.0001 N.ar    1  LIG1       -0.3603
      6 H          -0.0034   -2.1157   -0.0003 H       1  LIG1        0.1653
      7 H           2.3167   -0.8373    0.0007 H       1  LIG1        0.0807
      8 H           1.4918    2.0164   -0.0003 H       1  LIG1        0.0633
      9 H          -1.4853    2.0212    0.0010 H       1  LIG1        0.0639
     10 C          -2.3194   -0.8299   -0.0001 C.ar    1  LIG1        0.0360
     11 C          -3.4957   -0.1136   -0.0003 C.ar    1  LIG1       -0.0449
     12 C          -4.6374   -0.9783   -0.0008 C.ar    1  LIG1       -0.0463
     13 C          -4.2666   -2.3046   -0.0000 C.ar    1  LIG1        0.0200
     14 S          -2.6034   -2.4778    0.0004 S.2     1  LIG1       -0.0868
     15 H          -3.5868    1.1832   -0.0004 H       1  LIG1        0.0630
     16 H          -5.8610   -0.5392   -0.0018 H       1  LIG1        0.0629
     17 C          -6.4726   -3.1032    0.0014 C.ar    1  LIG1       -0.0535
     18 C          -7.3105   -4.2350    0.0034 C.ar    1  LIG1       -0.0612
     19 C          -5.0793   -3.3192    0.0004 C.ar    1  LIG1       -0.0113
     20 C          -6.7867   -5.5258    0.0038 C.ar    1  LIG1       -0.0617
     21 H          -8.3887   -4.0910    0.0044 H       1  LIG1        0.0618
     22 C          -4.5558   -4.6076    0.0008 C.ar    1  LIG1       -0.0535
     23 C          -5.4047   -5.7193    0.0024 C.ar    1  LIG1       -0.0612
     24 H          -3.4779   -4.7481    0.0001 H       1  LIG1        0.0624
     25 H          -7.5896   -6.5483    0.0055 H       1  LIG1        0.0618
     26 H          -7.0202   -1.9241    0.0009 H       1  LIG1        0.0624
     27 H          -4.9096   -6.9213    0.0029 H       1  LIG1        0.0618
@<TRIPOS>BOND
     1    16    12    1
     2    12    11   ar
     3    12    13   ar
     4     2     8    1
     5     2     1   ar
     6     2     3   ar
     7    15    11    1
     8    11    10   ar
     9     4    10    1
    10     4     5   ar
    11     4     3   ar
    12     6     5    1
    13    10    14   ar
    14    13    19    1
    15    13    14   ar
    16    24    22    1
    17     5     1   ar
    18     1     7    1
    19     3     9    1
    20    19    22   ar
    21    19    17   ar
    22    22    23   ar
    23    26    17    1
    24    17    18   ar
    25    23    27    1
    26    23    20   ar
    27    18    20   ar
    28    18    21    1
    29    20    25    1
