@<TRIPOS>MOLECULE
mol_data/noopt/geoms/mol2/1358.out
 23 25 0 0 0
SMALL
GASTEIGER

@<TRIPOS>ATOM
      1 C           1.1215   -0.3259    0.0002 C.ar    1  LIG1        0.0022
      2 C           0.7176    0.9721   -0.0005 C.ar    1  LIG1       -0.0438
      3 C          -0.7144    0.9744    0.0003 C.ar    1  LIG1       -0.0359
      4 C          -1.1226   -0.3223   -0.0003 C.ar    1  LIG1        0.0531
      5 N          -0.0018   -1.1217    0.0001 N.ar    1  LIG1       -0.3603
      6 H          -0.0034   -2.1157   -0.0003 H       1  LIG1        0.1653
      7 H           2.3167   -0.8373    0.0007 H       1  LIG1        0.0807
      8 H           1.4918    2.0164   -0.0003 H       1  LIG1        0.0633
      9 H          -1.4853    2.0212    0.0010 H       1  LIG1        0.0639
     10 C          -2.3194   -0.8299   -0.0001 C.ar    1  LIG1        0.0361
     11 C          -3.4957   -0.1136   -0.0003 C.ar    1  LIG1       -0.0448
     12 C          -4.6374   -0.9783   -0.0008 C.ar    1  LIG1       -0.0432
     13 C          -4.2666   -2.3046   -0.0000 C.ar    1  LIG1        0.0604
     14 S          -2.6034   -2.4778    0.0004 S.2     1  LIG1       -0.0836
     15 H          -3.5868    1.1832   -0.0004 H       1  LIG1        0.0630
     16 H          -5.8610   -0.5392   -0.0018 H       1  LIG1        0.0630
     17 C          -5.0794   -3.3192    0.0004 C.ar    1  LIG1        0.2098
     18 N          -6.4101   -3.0333    0.0006 N.ar    1  LIG1       -0.1253
     19 C          -6.7646   -5.4232    0.0013 C.ar    1  LIG1        0.1605
     20 N          -4.5099   -4.5556    0.0006 N.ar    1  LIG1       -0.1253
     21 N          -7.2400   -4.0974    0.0011 N.ar    1  LIG1       -0.1339
     22 N          -5.3672   -5.5977    0.0010 N.ar    1  LIG1       -0.1339
     23 H          -7.5774   -6.4378    0.0018 H       1  LIG1        0.1085
@<TRIPOS>BOND
     1    16    12    1
     2    12    11   ar
     3    12    13   ar
     4     2     8    1
     5     2     1   ar
     6     2     3   ar
     7    15    11    1
     8    11    10   ar
     9     4    10    1
    10     4     5   ar
    11     4     3   ar
    12     6     5    1
    13    10    14   ar
    14    13    17    1
    15    13    14   ar
    16     5     1   ar
    17     1     7    1
    18     3     9    1
    19    17    18   ar
    20    17    20   ar
    21    18    21   ar
    22    20    22   ar
    23    22    19   ar
    24    21    19   ar
    25    19    23    1
