@<TRIPOS>MOLECULE
mol_data/noopt/geoms/mol2/138-5-4.out
 33 36 0 0 0
SMALL
GASTEIGER

@<TRIPOS>ATOM
      1 C           1.1215   -0.3259    0.0002 C.ar    1  LIG1        0.0023
      2 C           0.7176    0.9721   -0.0005 C.ar    1  LIG1       -0.0437
      3 C          -0.7144    0.9744    0.0003 C.ar    1  LIG1       -0.0333
      4 C          -1.1226   -0.3223   -0.0003 C.ar    1  LIG1        0.0875
      5 N          -0.0018   -1.1217    0.0001 N.ar    1  LIG1       -0.3582
      6 H          -0.0034   -2.1157   -0.0003 H       1  LIG1        0.1654
      7 H           2.3167   -0.8373    0.0007 H       1  LIG1        0.0807
      8 H           1.4918    2.0164   -0.0003 H       1  LIG1        0.0633
      9 H          -1.4853    2.0212    0.0010 H       1  LIG1        0.0640
     10 C          -2.3194   -0.8299   -0.0001 C.ar    1  LIG1        0.2194
     11 N          -2.4046   -2.1883   -0.0000 N.ar    1  LIG1       -0.1237
     12 C          -4.8011   -1.8824    0.0003 C.ar    1  LIG1        0.2099
     13 N          -3.3553    0.0531   -0.0000 N.ar    1  LIG1       -0.1237
     14 N          -3.6537   -2.6991    0.0002 N.ar    1  LIG1       -0.1246
     15 N          -4.5907   -0.4899    0.0003 N.ar    1  LIG1       -0.1246
     16 C          -5.9979   -2.3900    0.0005 C.ar    1  LIG1        0.0604
     17 C          -6.3006   -3.7335    0.0008 C.ar    1  LIG1       -0.0432
     18 C          -7.7158   -3.9533    0.0017 C.ar    1  LIG1       -0.0462
     19 C          -8.4116   -2.7648    0.0013 C.ar    1  LIG1        0.0200
     20 S          -7.3801   -1.4487    0.0006 S.2     1  LIG1       -0.0850
     21 H          -5.4316   -4.7004    0.0004 H       1  LIG1        0.0630
     22 H          -8.2506   -5.1382    0.0028 H       1  LIG1        0.0629
     23 C         -10.2916   -1.3614    0.0021 C.ar    1  LIG1       -0.0535
     24 C         -11.6978   -1.2840    0.0037 C.ar    1  LIG1       -0.0612
     25 C          -9.7059   -2.6439    0.0013 C.ar    1  LIG1       -0.0113
     26 C         -12.4878   -2.4313    0.0038 C.ar    1  LIG1       -0.0617
     27 H         -12.1704   -0.3043    0.0045 H       1  LIG1        0.0618
     28 C         -10.4942   -3.7897    0.0015 C.ar    1  LIG1       -0.0535
     29 C         -11.8895   -3.6920    0.0026 C.ar    1  LIG1       -0.0612
     30 H         -10.0187   -4.7672    0.0010 H       1  LIG1        0.0624
     31 H         -13.7833   -2.3230    0.0052 H       1  LIG1        0.0618
     32 H          -9.6080   -0.2557    0.0018 H       1  LIG1        0.0624
     33 H         -12.6212   -4.7665    0.0029 H       1  LIG1        0.0618
@<TRIPOS>BOND
     1     2     8    1
     2     2     1   ar
     3     2     3   ar
     4     4    10    1
     5     4     5   ar
     6     4     3   ar
     7     6     5    1
     8    10    11   ar
     9    10    13   ar
    10    11    14   ar
    11    13    15   ar
    12     5     1   ar
    13     1     7    1
    14    14    12   ar
    15     3     9    1
    16    15    12   ar
    17    12    16    1
    18    21    17    1
    19    16    20   ar
    20    16    17   ar
    21    20    19   ar
    22    17    18   ar
    23    30    28    1
    24    19    25    1
    25    19    18   ar
    26    25    28   ar
    27    25    23   ar
    28    28    29   ar
    29    18    22    1
    30    32    23    1
    31    23    24   ar
    32    29    33    1
    33    29    26   ar
    34    24    26   ar
    35    24    27    1
    36    26    31    1
