@<TRIPOS>MOLECULE
mol_data/noopt/geoms/mol2/138-1312.out
 31 34 0 0 0
SMALL
GASTEIGER

@<TRIPOS>ATOM
      1 C           1.1215   -0.3259    0.0002 C.ar    1  LIG1        0.0023
      2 C           0.7176    0.9721   -0.0005 C.ar    1  LIG1       -0.0437
      3 C          -0.7144    0.9744    0.0003 C.ar    1  LIG1       -0.0333
      4 C          -1.1226   -0.3223   -0.0003 C.ar    1  LIG1        0.0875
      5 N          -0.0018   -1.1217    0.0001 N.ar    1  LIG1       -0.3582
      6 H          -0.0034   -2.1157   -0.0003 H       1  LIG1        0.1654
      7 H           2.3167   -0.8373    0.0007 H       1  LIG1        0.0807
      8 H           1.4918    2.0164   -0.0003 H       1  LIG1        0.0633
      9 H          -1.4853    2.0212    0.0010 H       1  LIG1        0.0640
     10 C          -2.3194   -0.8299   -0.0001 C.ar    1  LIG1        0.2194
     11 N          -2.4046   -2.1883   -0.0000 N.ar    1  LIG1       -0.1237
     12 C          -4.8011   -1.8824    0.0003 C.ar    1  LIG1        0.2194
     13 N          -3.3553    0.0531   -0.0000 N.ar    1  LIG1       -0.1237
     14 N          -3.6537   -2.6991    0.0002 N.ar    1  LIG1       -0.1237
     15 N          -4.5907   -0.4899    0.0003 N.ar    1  LIG1       -0.1237
     16 C          -5.9979   -2.3900    0.0005 C.ar    1  LIG1        0.0880
     17 C          -7.2138   -1.7820    0.0003 C.ar    1  LIG1       -0.0325
     18 C          -8.2075   -2.8131    0.0018 C.ar    1  LIG1       -0.0327
     19 C          -7.5552   -4.0058    0.0011 C.ar    1  LIG1        0.0826
     20 N          -6.2023   -3.7514    0.0008 N.ar    1  LIG1       -0.3492
     21 H          -5.4866   -4.4411    0.0002 H       1  LIG1        0.1661
     22 H          -7.4305   -0.5002    0.0003 H       1  LIG1        0.0640
     23 H          -9.4965   -2.6438    0.0031 H       1  LIG1        0.0640
     24 C          -8.0183   -5.2205    0.0018 C.ar    1  LIG1        0.1509
     25 C          -9.2726   -5.7947    0.0023 C.ar    1  LIG1       -0.0144
     26 C          -9.0723   -7.2289    0.0030 C.ar    1  LIG1       -0.0233
     27 C          -7.7082   -7.4360    0.0027 C.ar    1  LIG1        0.0926
     28 O          -7.0369   -6.2127    0.0019 O.2     1  LIG1       -0.4615
     29 H          -6.9293   -8.4768    0.0031 H       1  LIG1        0.1029
     30 H         -10.4240   -5.1912    0.0023 H       1  LIG1        0.0656
     31 H         -10.0137   -8.1254    0.0036 H       1  LIG1        0.0649
@<TRIPOS>BOND
     1     2     8    1
     2     2     1   ar
     3     2     3   ar
     4     4    10    1
     5     4     5   ar
     6     4     3   ar
     7     6     5    1
     8    10    11   ar
     9    10    13   ar
    10    11    14   ar
    11    13    15   ar
    12     5     1   ar
    13    21    20    1
    14     1     7    1
    15    14    12   ar
    16    17    22    1
    17    17    16   ar
    18    17    18   ar
    19     3     9    1
    20    15    12   ar
    21    12    16    1
    22    16    20   ar
    23    20    19   ar
    24    19    18   ar
    25    19    24    1
    26    18    23    1
    27    24    28   ar
    28    24    25   ar
    29    28    27   ar
    30    25    30    1
    31    25    26   ar
    32    27    26   ar
    33    27    29    1
    34    26    31    1
