@<TRIPOS>MOLECULE
mol_data/noopt/geoms/mol2/138-13-.out
 24 26 0 0 0
SMALL
GASTEIGER

@<TRIPOS>ATOM
      1 C           1.1215   -0.3259    0.0002 C.ar    1  LIG1        0.0023
      2 C           0.7176    0.9721   -0.0005 C.ar    1  LIG1       -0.0437
      3 C          -0.7144    0.9744    0.0003 C.ar    1  LIG1       -0.0333
      4 C          -1.1226   -0.3223   -0.0003 C.ar    1  LIG1        0.0875
      5 N          -0.0018   -1.1217    0.0001 N.ar    1  LIG1       -0.3582
      6 H          -0.0034   -2.1157   -0.0003 H       1  LIG1        0.1654
      7 H           2.3167   -0.8373    0.0007 H       1  LIG1        0.0807
      8 H           1.4918    2.0164   -0.0003 H       1  LIG1        0.0633
      9 H          -1.4853    2.0212    0.0010 H       1  LIG1        0.0640
     10 C          -2.3194   -0.8299   -0.0001 C.ar    1  LIG1        0.2194
     11 N          -2.4046   -2.1883   -0.0000 N.ar    1  LIG1       -0.1237
     12 C          -4.8011   -1.8824    0.0003 C.ar    1  LIG1        0.2194
     13 N          -3.3553    0.0531   -0.0000 N.ar    1  LIG1       -0.1237
     14 N          -3.6537   -2.6991    0.0002 N.ar    1  LIG1       -0.1237
     15 N          -4.5907   -0.4899    0.0003 N.ar    1  LIG1       -0.1237
     16 C          -5.9979   -2.3900    0.0005 C.ar    1  LIG1        0.0875
     17 C          -6.4060   -3.6867    0.0012 C.ar    1  LIG1       -0.0333
     18 C          -7.8380   -3.6844   -0.0000 C.ar    1  LIG1       -0.0437
     19 C          -8.2420   -2.3865    0.0004 C.ar    1  LIG1        0.0023
     20 N          -7.1187   -1.5906    0.0003 N.ar    1  LIG1       -0.3582
     21 H          -7.1172   -0.5966    0.0007 H       1  LIG1        0.1654
     22 H          -9.4372   -1.8751   -0.0001 H       1  LIG1        0.0807
     23 H          -5.6351   -4.7335    0.0012 H       1  LIG1        0.0640
     24 H          -8.6122   -4.7288   -0.0009 H       1  LIG1        0.0633
@<TRIPOS>BOND
     1    24    18    1
     2     2     8    1
     3     2     1   ar
     4     2     3   ar
     5     4    10    1
     6     4     5   ar
     7     4     3   ar
     8     6     5    1
     9    22    19    1
    10    10    13   ar
    11    10    11   ar
    12    18    19   ar
    13    18    17   ar
    14    13    15   ar
    15    11    14   ar
    16     5     1   ar
    17     1     7    1
    18    14    12   ar
    19    20    19   ar
    20    20    16   ar
    21    20    21    1
    22     3     9    1
    23    15    12   ar
    24    12    16    1
    25    16    17   ar
    26    17    23    1
