@<TRIPOS>MOLECULE
mol_data/noopt/geoms/mol2/138-125.out
 30 33 0 0 0
SMALL
GASTEIGER

@<TRIPOS>ATOM
      1 C           1.1215   -0.3259    0.0002 C.ar    1  LIG1        0.0023
      2 C           0.7176    0.9721   -0.0005 C.ar    1  LIG1       -0.0437
      3 C          -0.7144    0.9744    0.0003 C.ar    1  LIG1       -0.0333
      4 C          -1.1226   -0.3223   -0.0003 C.ar    1  LIG1        0.0875
      5 N          -0.0018   -1.1217    0.0001 N.ar    1  LIG1       -0.3582
      6 H          -0.0034   -2.1157   -0.0003 H       1  LIG1        0.1654
      7 H           2.3167   -0.8373    0.0007 H       1  LIG1        0.0807
      8 H           1.4918    2.0164   -0.0003 H       1  LIG1        0.0633
      9 H          -1.4853    2.0212    0.0010 H       1  LIG1        0.0640
     10 C          -2.3194   -0.8299   -0.0001 C.ar    1  LIG1        0.2194
     11 N          -2.4046   -2.1883   -0.0000 N.ar    1  LIG1       -0.1236
     12 C          -4.8011   -1.8824    0.0003 C.ar    1  LIG1        0.2381
     13 N          -3.3553    0.0531   -0.0000 N.ar    1  LIG1       -0.1236
     14 N          -3.6537   -2.6991    0.0002 N.ar    1  LIG1       -0.1220
     15 N          -4.5907   -0.4899    0.0003 N.ar    1  LIG1       -0.1220
     16 C          -5.9979   -2.3900    0.0005 C.ar    1  LIG1        0.1760
     17 C          -7.2810   -1.8833    0.0007 C.ar    1  LIG1       -0.0120
     18 C          -8.1764   -3.0213    0.0009 C.ar    1  LIG1       -0.0146
     19 C          -7.3807   -4.1485    0.0007 C.ar    1  LIG1        0.1424
     20 O          -6.0335   -3.7851    0.0004 O.2     1  LIG1       -0.4511
     21 H          -7.6434   -0.6348    0.0007 H       1  LIG1        0.0657
     22 H          -9.4751   -2.9636    0.0010 H       1  LIG1        0.0656
     23 C          -7.5917   -5.4313    0.0008 C.ar    1  LIG1        0.0544
     24 C          -8.8259   -6.0423    0.0005 C.ar    1  LIG1       -0.0440
     25 C          -8.7057   -7.4694   -0.0000 C.ar    1  LIG1       -0.0540
     26 C          -7.3867   -7.8653    0.0007 C.ar    1  LIG1       -0.0236
     27 S          -6.3510   -6.5524    0.0013 S.2     1  LIG1       -0.0936
     28 H          -6.9639   -9.0946    0.0011 H       1  LIG1        0.0693
     29 H          -9.9705   -5.4259    0.0005 H       1  LIG1        0.0630
     30 H          -9.7310   -8.2686   -0.0011 H       1  LIG1        0.0623
@<TRIPOS>BOND
     1    30    25    1
     2     2     8    1
     3     2     1   ar
     4     2     3   ar
     5     4    10    1
     6     4     5   ar
     7     4     3   ar
     8     6     5    1
     9    10    13   ar
    10    10    11   ar
    11    25    24   ar
    12    25    26   ar
    13    13    15   ar
    14    11    14   ar
    15     5     1   ar
    16     1     7    1
    17    14    12   ar
    18     3     9    1
    19    15    12   ar
    20    12    16    1
    21    20    16   ar
    22    20    19   ar
    23    29    24    1
    24    16    17   ar
    25    24    23   ar
    26    17    21    1
    27    17    18   ar
    28    19    23    1
    29    19    18   ar
    30    26    28    1
    31    26    27   ar
    32    23    27   ar
    33    18    22    1
