@<TRIPOS>MOLECULE
mol_data/noopt/geoms/mol2/138-8-.out
 22 24 0 0 0
SMALL
GASTEIGER

@<TRIPOS>ATOM
      1 C           1.1215   -0.3259    0.0002 C.ar    1  LIG1        0.0023
      2 C           0.7176    0.9721   -0.0005 C.ar    1  LIG1       -0.0437
      3 C          -0.7144    0.9744    0.0003 C.ar    1  LIG1       -0.0333
      4 C          -1.1226   -0.3223   -0.0003 C.ar    1  LIG1        0.0875
      5 N          -0.0018   -1.1217    0.0001 N.ar    1  LIG1       -0.3582
      6 H          -0.0034   -2.1157   -0.0003 H       1  LIG1        0.1654
      7 H           2.3167   -0.8373    0.0007 H       1  LIG1        0.0807
      8 H           1.4918    2.0164   -0.0003 H       1  LIG1        0.0633
      9 H          -1.4853    2.0212    0.0010 H       1  LIG1        0.0640
     10 C          -2.3194   -0.8299   -0.0001 C.ar    1  LIG1        0.2194
     11 N          -2.4046   -2.1883   -0.0000 N.ar    1  LIG1       -0.1236
     12 C          -4.8011   -1.8824    0.0003 C.ar    1  LIG1        0.2435
     13 N          -3.3553    0.0531   -0.0000 N.ar    1  LIG1       -0.1236
     14 N          -3.6537   -2.6991    0.0002 N.ar    1  LIG1       -0.1218
     15 N          -4.5907   -0.4899    0.0003 N.ar    1  LIG1       -0.1218
     16 C          -5.9979   -2.3900    0.0005 C.ar    1  LIG1        0.2434
     17 N          -6.0831   -3.7484    0.0006 N.ar    1  LIG1       -0.1224
     18 C          -8.4797   -3.4424    0.0009 C.ar    1  LIG1        0.1605
     19 N          -7.0338   -1.5069    0.0006 N.ar    1  LIG1       -0.1224
     20 N          -7.3322   -4.2591    0.0008 N.ar    1  LIG1       -0.1338
     21 N          -8.2692   -2.0500    0.0009 N.ar    1  LIG1       -0.1338
     22 H          -9.6765   -3.9500    0.0011 H       1  LIG1        0.1085
@<TRIPOS>BOND
     1     2     8    1
     2     2     1   ar
     3     2     3   ar
     4     4    10    1
     5     4     5   ar
     6     4     3   ar
     7     6     5    1
     8    10    11   ar
     9    10    13   ar
    10    11    14   ar
    11    13    15   ar
    12     5     1   ar
    13     1     7    1
    14    14    12   ar
    15     3     9    1
    16    15    12   ar
    17    12    16    1
    18    16    17   ar
    19    16    19   ar
    20    17    20   ar
    21    19    21   ar
    22    20    18   ar
    23    21    18   ar
    24    18    22    1
