@<TRIPOS>MOLECULE
mol_data/noopt/geoms/mol2/138-5-5-.out
 30 33 0 0 0
SMALL
GASTEIGER

@<TRIPOS>ATOM
      1 C           1.1215   -0.3259    0.0002 C.ar    1  LIG1        0.0023
      2 C           0.7176    0.9721   -0.0005 C.ar    1  LIG1       -0.0437
      3 C          -0.7144    0.9744    0.0003 C.ar    1  LIG1       -0.0333
      4 C          -1.1226   -0.3223   -0.0003 C.ar    1  LIG1        0.0875
      5 N          -0.0018   -1.1217    0.0001 N.ar    1  LIG1       -0.3582
      6 H          -0.0034   -2.1157   -0.0003 H       1  LIG1        0.1654
      7 H           2.3167   -0.8373    0.0007 H       1  LIG1        0.0807
      8 H           1.4918    2.0164   -0.0003 H       1  LIG1        0.0633
      9 H          -1.4853    2.0212    0.0010 H       1  LIG1        0.0640
     10 C          -2.3194   -0.8299   -0.0001 C.ar    1  LIG1        0.2194
     11 N          -2.4046   -2.1883   -0.0000 N.ar    1  LIG1       -0.1237
     12 C          -4.8011   -1.8824    0.0003 C.ar    1  LIG1        0.2099
     13 N          -3.3553    0.0531   -0.0000 N.ar    1  LIG1       -0.1237
     14 N          -3.6537   -2.6991    0.0002 N.ar    1  LIG1       -0.1246
     15 N          -4.5907   -0.4899    0.0003 N.ar    1  LIG1       -0.1246
     16 C          -5.9979   -2.3900    0.0005 C.ar    1  LIG1        0.0604
     17 C          -6.3006   -3.7335    0.0008 C.ar    1  LIG1       -0.0432
     18 C          -7.7158   -3.9533    0.0017 C.ar    1  LIG1       -0.0457
     19 C          -8.4116   -2.7648    0.0013 C.ar    1  LIG1        0.0266
     20 S          -7.3801   -1.4487    0.0006 S.2     1  LIG1       -0.0845
     21 H          -5.4316   -4.7004    0.0004 H       1  LIG1        0.0630
     22 H          -8.2506   -5.1382    0.0028 H       1  LIG1        0.0629
     23 C          -9.7060   -2.6439    0.0013 C.ar    1  LIG1        0.0259
     24 C         -10.6098   -3.6831    0.0015 C.ar    1  LIG1       -0.0464
     25 C         -11.9598   -3.2052    0.0022 C.ar    1  LIG1       -0.0541
     26 C         -12.0086   -1.8289    0.0018 C.ar    1  LIG1       -0.0237
     27 S         -10.4762   -1.1596    0.0013 S.2     1  LIG1       -0.0961
     28 H         -13.0907   -1.1084    0.0017 H       1  LIG1        0.0693
     29 H         -10.3035   -4.9465    0.0012 H       1  LIG1        0.0629
     30 H         -12.9928   -3.9945    0.0032 H       1  LIG1        0.0623
@<TRIPOS>BOND
     1     2     8    1
     2     2     1   ar
     3     2     3   ar
     4     4    10    1
     5     4     5   ar
     6     4     3   ar
     7     6     5    1
     8    10    11   ar
     9    10    13   ar
    10    11    14   ar
    11    13    15   ar
    12     5     1   ar
    13     1     7    1
    14    14    12   ar
    15     3     9    1
    16    15    12   ar
    17    12    16    1
    18    21    17    1
    19    16    20   ar
    20    16    17   ar
    21    20    19   ar
    22    17    18   ar
    23    29    24    1
    24    27    23   ar
    25    27    26   ar
    26    19    23    1
    27    19    18   ar
    28    23    24   ar
    29    24    25   ar
    30    18    22    1
    31    28    26    1
    32    26    25   ar
    33    25    30    1
