@<TRIPOS>MOLECULE
mol_data/noopt/geoms/mol2/13812-13.out
 31 34 0 0 0
SMALL
GASTEIGER

@<TRIPOS>ATOM
      1 C           1.1215   -0.3259    0.0002 C.ar    1  LIG1        0.0023
      2 C           0.7176    0.9721   -0.0005 C.ar    1  LIG1       -0.0437
      3 C          -0.7144    0.9744    0.0003 C.ar    1  LIG1       -0.0333
      4 C          -1.1226   -0.3223   -0.0003 C.ar    1  LIG1        0.0875
      5 N          -0.0018   -1.1217    0.0001 N.ar    1  LIG1       -0.3582
      6 H          -0.0034   -2.1157   -0.0003 H       1  LIG1        0.1654
      7 H           2.3167   -0.8373    0.0007 H       1  LIG1        0.0807
      8 H           1.4918    2.0164   -0.0003 H       1  LIG1        0.0633
      9 H          -1.4853    2.0212    0.0010 H       1  LIG1        0.0640
     10 C          -2.3194   -0.8299   -0.0001 C.ar    1  LIG1        0.2194
     11 N          -3.3552    0.0531   -0.0000 N.ar    1  LIG1       -0.1236
     12 C          -4.8011   -1.8826    0.0003 C.ar    1  LIG1        0.2381
     13 N          -2.4046   -2.1884   -0.0000 N.ar    1  LIG1       -0.1236
     14 N          -4.5906   -0.4899    0.0002 N.ar    1  LIG1       -0.1220
     15 N          -3.6537   -2.6991    0.0001 N.ar    1  LIG1       -0.1220
     16 C          -5.9978   -2.3902    0.0005 C.ar    1  LIG1        0.1760
     17 C          -6.5254   -3.6648    0.0007 C.ar    1  LIG1       -0.0120
     18 C          -7.9660   -3.5175    0.0009 C.ar    1  LIG1       -0.0137
     19 C          -8.2232   -2.1620    0.0009 C.ar    1  LIG1        0.1519
     20 O          -7.0256   -1.4460    0.0008 O.2     1  LIG1       -0.4501
     21 H          -5.8798   -4.7931    0.0006 H       1  LIG1        0.0657
     22 H          -8.8271   -4.4913    0.0011 H       1  LIG1        0.0656
     23 C          -9.2921   -1.4220    0.0010 C.ar    1  LIG1        0.0821
     24 C          -9.4285   -0.0695    0.0007 C.ar    1  LIG1       -0.0334
     25 C         -10.8312    0.2189    0.0021 C.ar    1  LIG1       -0.0437
     26 C         -11.4903   -0.9701    0.0014 C.ar    1  LIG1        0.0023
     27 N         -10.5518   -1.9773    0.0012 N.ar    1  LIG1       -0.3583
     28 H         -10.7520   -2.9509    0.0006 H       1  LIG1        0.1654
     29 H         -12.7644   -1.2283    0.0020 H       1  LIG1        0.0807
     30 H          -8.4612    0.7990    0.0007 H       1  LIG1        0.0640
     31 H         -11.3773    1.3986    0.0033 H       1  LIG1        0.0633
@<TRIPOS>BOND
     1     2     8    1
     2     2     1   ar
     3     2     3   ar
     4     4    10    1
     5     4     5   ar
     6     4     3   ar
     7     6     5    1
     8    10    11   ar
     9    10    13   ar
    10    11    14   ar
    11    13    15   ar
    12     5     1   ar
    13    15    12   ar
    14     1     7    1
    15    14    12   ar
    16     3     9    1
    17    12    16    1
    18    16    17   ar
    19    16    20   ar
    20    21    17    1
    21    28    27    1
    22    24    30    1
    23    24    23   ar
    24    24    25   ar
    25    17    18   ar
    26    20    19   ar
    27    18    19   ar
    28    18    22    1
    29    19    23    1
    30    23    27   ar
    31    27    26   ar
    32    26    29    1
    33    26    25   ar
    34    25    31    1
