@<TRIPOS>MOLECULE
mol_data/noopt/geoms/mol2/1381313-.out
 32 35 0 0 0
SMALL
GASTEIGER

@<TRIPOS>ATOM
      1 C           1.1215   -0.3259    0.0002 C.ar    1  LIG1        0.0023
      2 C           0.7176    0.9721   -0.0005 C.ar    1  LIG1       -0.0437
      3 C          -0.7144    0.9744    0.0003 C.ar    1  LIG1       -0.0333
      4 C          -1.1226   -0.3223   -0.0003 C.ar    1  LIG1        0.0875
      5 N          -0.0018   -1.1217    0.0001 N.ar    1  LIG1       -0.3582
      6 H          -0.0034   -2.1157   -0.0003 H       1  LIG1        0.1654
      7 H           2.3167   -0.8373    0.0007 H       1  LIG1        0.0807
      8 H           1.4918    2.0164   -0.0003 H       1  LIG1        0.0633
      9 H          -1.4853    2.0212    0.0010 H       1  LIG1        0.0640
     10 C          -2.3194   -0.8299   -0.0001 C.ar    1  LIG1        0.2194
     11 N          -3.3552    0.0531   -0.0000 N.ar    1  LIG1       -0.1237
     12 C          -4.8011   -1.8826    0.0003 C.ar    1  LIG1        0.2194
     13 N          -2.4046   -2.1884   -0.0000 N.ar    1  LIG1       -0.1237
     14 N          -4.5906   -0.4899    0.0002 N.ar    1  LIG1       -0.1237
     15 N          -3.6537   -2.6991    0.0001 N.ar    1  LIG1       -0.1237
     16 C          -5.9979   -2.3902    0.0005 C.ar    1  LIG1        0.0880
     17 C          -7.2137   -1.7822    0.0003 C.ar    1  LIG1       -0.0326
     18 C          -8.2075   -2.8133    0.0018 C.ar    1  LIG1       -0.0343
     19 C          -7.5552   -4.0060    0.0011 C.ar    1  LIG1        0.0634
     20 N          -6.2022   -3.7515    0.0008 N.ar    1  LIG1       -0.3505
     21 H          -5.4865   -4.4413    0.0002 H       1  LIG1        0.1660
     22 H          -7.4304   -0.5004    0.0003 H       1  LIG1        0.0640
     23 H          -9.4964   -2.6440    0.0031 H       1  LIG1        0.0639
     24 C          -8.0183   -5.2207    0.0018 C.ar    1  LIG1        0.0629
     25 C          -7.3658   -6.4133    0.0028 C.ar    1  LIG1       -0.0350
     26 C          -8.3595   -7.4444    0.0021 C.ar    1  LIG1       -0.0438
     27 C          -9.5755   -6.8366    0.0025 C.ar    1  LIG1        0.0022
     28 N          -9.3712   -5.4751    0.0019 N.ar    1  LIG1       -0.3595
     29 H         -10.0869   -4.7854    0.0021 H       1  LIG1        0.1654
     30 H         -10.7723   -7.3442    0.0023 H       1  LIG1        0.0807
     31 H          -6.0769   -6.5826    0.0027 H       1  LIG1        0.0639
     32 H          -8.1428   -8.7262    0.0016 H       1  LIG1        0.0633
@<TRIPOS>BOND
     1     2     8    1
     2     2     1   ar
     3     2     3   ar
     4     4    10    1
     5     4     5   ar
     6     4     3   ar
     7     6     5    1
     8    10    11   ar
     9    10    13   ar
    10    11    14   ar
    11    13    15   ar
    12     5     1   ar
    13    15    12   ar
    14    21    20    1
    15     1     7    1
    16    14    12   ar
    17    17    22    1
    18    17    16   ar
    19    17    18   ar
    20     3     9    1
    21    12    16    1
    22    16    20   ar
    23    20    19   ar
    24    19    18   ar
    25    19    24    1
    26    32    26    1
    27    18    23    1
    28    24    28   ar
    29    24    25   ar
    30    28    29    1
    31    28    27   ar
    32    26    27   ar
    33    26    25   ar
    34    30    27    1
    35    31    25    1
