@<TRIPOS>MOLECULE
mol_data/noopt/geoms/mol2/1384-5-.out
 33 36 0 0 0
SMALL
GASTEIGER

@<TRIPOS>ATOM
      1 C           1.1215   -0.3259    0.0002 C.ar    1  LIG1        0.0023
      2 C           0.7176    0.9721   -0.0005 C.ar    1  LIG1       -0.0437
      3 C          -0.7144    0.9744    0.0003 C.ar    1  LIG1       -0.0333
      4 C          -1.1226   -0.3223   -0.0003 C.ar    1  LIG1        0.0875
      5 N          -0.0018   -1.1217    0.0001 N.ar    1  LIG1       -0.3582
      6 H          -0.0034   -2.1157   -0.0003 H       1  LIG1        0.1654
      7 H           2.3167   -0.8373    0.0007 H       1  LIG1        0.0807
      8 H           1.4918    2.0164   -0.0003 H       1  LIG1        0.0633
      9 H          -1.4853    2.0212    0.0010 H       1  LIG1        0.0640
     10 C          -2.3194   -0.8299   -0.0001 C.ar    1  LIG1        0.2194
     11 N          -3.3552    0.0531   -0.0000 N.ar    1  LIG1       -0.1237
     12 C          -4.8011   -1.8826    0.0003 C.ar    1  LIG1        0.2034
     13 N          -2.4046   -2.1884   -0.0000 N.ar    1  LIG1       -0.1237
     14 N          -4.5906   -0.4899    0.0002 N.ar    1  LIG1       -0.1252
     15 N          -3.6537   -2.6991    0.0001 N.ar    1  LIG1       -0.1252
     16 C          -6.1672   -3.7898   -0.0001 C.ar    1  LIG1       -0.0503
     17 C          -7.4837   -4.2899   -0.0014 C.ar    1  LIG1       -0.0529
     18 C          -5.9978   -2.3901    0.0005 C.ar    1  LIG1        0.0227
     19 C          -8.5844   -3.4361   -0.0015 C.ar    1  LIG1       -0.0113
     20 H          -7.6371   -5.3668   -0.0021 H       1  LIG1        0.0624
     21 C          -7.0963   -1.5372    0.0005 C.ar    1  LIG1       -0.0503
     22 C          -8.3963   -2.0534   -0.0004 C.ar    1  LIG1       -0.0529
     23 H          -6.9396   -0.4616    0.0009 H       1  LIG1        0.0625
     24 H          -5.1805   -4.6363    0.0001 H       1  LIG1        0.0625
     25 H          -9.4194   -1.2512   -0.0006 H       1  LIG1        0.0624
     26 C          -9.7860   -3.9320   -0.0026 C.ar    1  LIG1        0.0193
     27 C         -10.1017   -5.2726   -0.0031 C.ar    1  LIG1       -0.0469
     28 C         -11.5190   -5.4786   -0.0036 C.ar    1  LIG1       -0.0541
     29 C         -12.2032   -4.2834   -0.0041 C.ar    1  LIG1       -0.0237
     30 S         -11.1590   -2.9774   -0.0034 S.2     1  LIG1       -0.0967
     31 H         -13.4964   -4.1500   -0.0052 H       1  LIG1        0.0693
     32 H          -9.2422   -6.2478   -0.0030 H       1  LIG1        0.0629
     33 H         -12.0653   -6.6582   -0.0034 H       1  LIG1        0.0623
@<TRIPOS>BOND
     1    31    29    1
     2    29    28   ar
     3    29    30   ar
     4    28    33    1
     5    28    27   ar
     6    30    26   ar
     7    27    32    1
     8    27    26   ar
     9    26    19    1
    10    20    17    1
    11    19    17   ar
    12    19    22   ar
    13    17    16   ar
    14    25    22    1
    15     2     8    1
    16     2     1   ar
    17     2     3   ar
    18    22    21   ar
    19     6     5    1
    20     4    10    1
    21     4     5   ar
    22     4     3   ar
    23    16    24    1
    24    16    18   ar
    25    10    11   ar
    26    10    13   ar
    27    11    14   ar
    28    13    15   ar
    29     5     1   ar
    30    15    12   ar
    31     1     7    1
    32    14    12   ar
    33     3     9    1
    34    12    18    1
    35    21    18   ar
    36    21    23    1
