@<TRIPOS>MOLECULE
mol_data/noopt/geoms/mol2/1384.out
 26 28 0 0 0
SMALL
GASTEIGER

@<TRIPOS>ATOM
      1 C           1.1215   -0.3259    0.0002 C.ar    1  LIG1        0.0023
      2 C           0.7176    0.9721   -0.0005 C.ar    1  LIG1       -0.0437
      3 C          -0.7144    0.9744    0.0003 C.ar    1  LIG1       -0.0333
      4 C          -1.1226   -0.3223   -0.0003 C.ar    1  LIG1        0.0875
      5 N          -0.0018   -1.1217    0.0001 N.ar    1  LIG1       -0.3582
      6 H          -0.0034   -2.1157   -0.0003 H       1  LIG1        0.1654
      7 H           2.3167   -0.8373    0.0007 H       1  LIG1        0.0807
      8 H           1.4918    2.0164   -0.0003 H       1  LIG1        0.0633
      9 H          -1.4853    2.0212    0.0010 H       1  LIG1        0.0640
     10 C          -2.3194   -0.8299   -0.0001 C.ar    1  LIG1        0.2194
     11 N          -3.3552    0.0531   -0.0000 N.ar    1  LIG1       -0.1237
     12 C          -4.8011   -1.8826    0.0003 C.ar    1  LIG1        0.2034
     13 N          -2.4046   -2.1884   -0.0000 N.ar    1  LIG1       -0.1237
     14 N          -4.5906   -0.4899    0.0002 N.ar    1  LIG1       -0.1252
     15 N          -3.6537   -2.6991    0.0001 N.ar    1  LIG1       -0.1252
     16 C          -7.1218   -1.5390    0.0014 C.ar    1  LIG1       -0.0509
     17 C          -8.3964   -2.1379    0.0031 C.ar    1  LIG1       -0.0611
     18 C          -5.9978   -2.3901    0.0005 C.ar    1  LIG1        0.0226
     19 C          -8.5476   -3.5227    0.0033 C.ar    1  LIG1       -0.0617
     20 H          -9.2772   -1.4996    0.0040 H       1  LIG1        0.0618
     21 C          -6.1482   -3.7727    0.0008 C.ar    1  LIG1       -0.0509
     22 C          -7.4229   -4.3486    0.0021 C.ar    1  LIG1       -0.0611
     23 H          -5.2659   -4.4077    0.0002 H       1  LIG1        0.0625
     24 H          -9.7395   -4.0419    0.0048 H       1  LIG1        0.0618
     25 H          -7.0446   -0.2413    0.0010 H       1  LIG1        0.0625
     26 H          -7.5572   -5.6416    0.0024 H       1  LIG1        0.0618
@<TRIPOS>BOND
     1     2     8    1
     2     2     1   ar
     3     2     3   ar
     4     4    10    1
     5     4     5   ar
     6     4     3   ar
     7     6     5    1
     8    10    11   ar
     9    10    13   ar
    10    11    14   ar
    11    13    15   ar
    12     5     1   ar
    13    15    12   ar
    14    23    21    1
    15     1     7    1
    16    14    12   ar
    17     3     9    1
    18    12    18    1
    19    18    21   ar
    20    18    16   ar
    21    21    22   ar
    22    25    16    1
    23    16    17   ar
    24    22    26    1
    25    22    19   ar
    26    17    19   ar
    27    17    20    1
    28    19    24    1
