@<TRIPOS>MOLECULE
mol_data/noopt/geoms/mol2/1385-13-.out
 31 34 0 0 0
SMALL
GASTEIGER

@<TRIPOS>ATOM
      1 C           1.1215   -0.3259    0.0002 C.ar    1  LIG1        0.0023
      2 C           0.7176    0.9721   -0.0005 C.ar    1  LIG1       -0.0437
      3 C          -0.7144    0.9744    0.0003 C.ar    1  LIG1       -0.0333
      4 C          -1.1226   -0.3223   -0.0003 C.ar    1  LIG1        0.0875
      5 N          -0.0018   -1.1217    0.0001 N.ar    1  LIG1       -0.3582
      6 H          -0.0034   -2.1157   -0.0003 H       1  LIG1        0.1654
      7 H           2.3167   -0.8373    0.0007 H       1  LIG1        0.0807
      8 H           1.4918    2.0164   -0.0003 H       1  LIG1        0.0633
      9 H          -1.4853    2.0212    0.0010 H       1  LIG1        0.0640
     10 C          -2.3194   -0.8299   -0.0001 C.ar    1  LIG1        0.2194
     11 N          -3.3552    0.0531   -0.0000 N.ar    1  LIG1       -0.1237
     12 C          -4.8011   -1.8826    0.0003 C.ar    1  LIG1        0.2099
     13 N          -2.4046   -2.1884   -0.0000 N.ar    1  LIG1       -0.1237
     14 N          -4.5906   -0.4899    0.0002 N.ar    1  LIG1       -0.1246
     15 N          -3.6537   -2.6991    0.0001 N.ar    1  LIG1       -0.1246
     16 C          -5.9979   -2.3902    0.0005 C.ar    1  LIG1        0.0604
     17 C          -6.3005   -3.7337    0.0008 C.ar    1  LIG1       -0.0432
     18 C          -7.7157   -3.9535    0.0017 C.ar    1  LIG1       -0.0448
     19 C          -8.4115   -2.7650    0.0013 C.ar    1  LIG1        0.0361
     20 S          -7.3800   -1.4489    0.0006 S.2     1  LIG1       -0.0836
     21 H          -5.4315   -4.7006    0.0004 H       1  LIG1        0.0630
     22 H          -8.2505   -5.1383    0.0028 H       1  LIG1        0.0630
     23 C          -9.7059   -2.6441    0.0013 C.ar    1  LIG1        0.0531
     24 C         -10.6802   -3.5921    0.0019 C.ar    1  LIG1       -0.0359
     25 C         -11.9398   -2.9108    0.0005 C.ar    1  LIG1       -0.0438
     26 C         -11.6798   -1.5764    0.0010 C.ar    1  LIG1        0.0022
     27 N         -10.3133   -1.4087    0.0010 N.ar    1  LIG1       -0.3603
     28 H          -9.8404   -0.5344    0.0014 H       1  LIG1        0.1653
     29 H         -12.4893   -0.5593    0.0003 H       1  LIG1        0.0807
     30 H         -10.4982   -4.8792    0.0019 H       1  LIG1        0.0639
     31 H         -13.1167   -3.4628   -0.0005 H       1  LIG1        0.0633
@<TRIPOS>BOND
     1     2     8    1
     2     2     1   ar
     3     2     3   ar
     4    31    25    1
     5     4    10    1
     6     4     5   ar
     7     4     3   ar
     8     6     5    1
     9    10    13   ar
    10    10    11   ar
    11    13    15   ar
    12    11    14   ar
    13     5     1   ar
    14    15    12   ar
    15     1     7    1
    16    14    12   ar
    17     3     9    1
    18    12    16    1
    19    29    26    1
    20    21    17    1
    21    16    20   ar
    22    16    17   ar
    23    25    26   ar
    24    25    24   ar
    25    20    19   ar
    26    17    18   ar
    27    26    27   ar
    28    27    23   ar
    29    27    28    1
    30    19    23    1
    31    19    18   ar
    32    23    24   ar
    33    18    22    1
    34    24    30    1
