@<TRIPOS>MOLECULE
mol_data/noopt/geoms/mol2/1385-.out
 23 25 0 0 0
SMALL
GASTEIGER

@<TRIPOS>ATOM
      1 C           1.1215   -0.3259    0.0002 C.ar    1  LIG1        0.0023
      2 C           0.7176    0.9721   -0.0005 C.ar    1  LIG1       -0.0437
      3 C          -0.7144    0.9744    0.0003 C.ar    1  LIG1       -0.0333
      4 C          -1.1226   -0.3223   -0.0003 C.ar    1  LIG1        0.0875
      5 N          -0.0018   -1.1217    0.0001 N.ar    1  LIG1       -0.3582
      6 H          -0.0034   -2.1157   -0.0003 H       1  LIG1        0.1654
      7 H           2.3167   -0.8373    0.0007 H       1  LIG1        0.0807
      8 H           1.4918    2.0164   -0.0003 H       1  LIG1        0.0633
      9 H          -1.4853    2.0212    0.0010 H       1  LIG1        0.0640
     10 C          -2.3194   -0.8299   -0.0001 C.ar    1  LIG1        0.2194
     11 N          -3.3552    0.0531   -0.0000 N.ar    1  LIG1       -0.1237
     12 C          -4.8011   -1.8826    0.0003 C.ar    1  LIG1        0.2099
     13 N          -2.4046   -2.1884   -0.0000 N.ar    1  LIG1       -0.1237
     14 N          -4.5906   -0.4899    0.0002 N.ar    1  LIG1       -0.1246
     15 N          -3.6537   -2.6991    0.0001 N.ar    1  LIG1       -0.1246
     16 C          -5.9979   -2.3902    0.0005 C.ar    1  LIG1        0.0598
     17 C          -6.3005   -3.7337    0.0008 C.ar    1  LIG1       -0.0438
     18 C          -7.7157   -3.9535    0.0017 C.ar    1  LIG1       -0.0540
     19 C          -8.4115   -2.7650    0.0013 C.ar    1  LIG1       -0.0236
     20 S          -7.3800   -1.4489    0.0006 S.2     1  LIG1       -0.0934
     21 H          -9.7059   -2.6441    0.0013 H       1  LIG1        0.0693
     22 H          -5.4315   -4.7006    0.0004 H       1  LIG1        0.0630
     23 H          -8.2505   -5.1383    0.0028 H       1  LIG1        0.0623
@<TRIPOS>BOND
     1     2     8    1
     2     2     1   ar
     3     2     3   ar
     4     4    10    1
     5     4     5   ar
     6     4     3   ar
     7     6     5    1
     8    10    11   ar
     9    10    13   ar
    10    11    14   ar
    11    13    15   ar
    12     5     1   ar
    13    15    12   ar
    14     1     7    1
    15    14    12   ar
    16     3     9    1
    17    12    16    1
    18    22    17    1
    19    16    20   ar
    20    16    17   ar
    21    20    19   ar
    22    17    18   ar
    23    19    21    1
    24    19    18   ar
    25    18    23    1
