@<TRIPOS>MOLECULE
mol_data/noopt/geoms/mol2/1388-12-.out
 29 32 0 0 0
SMALL
GASTEIGER

@<TRIPOS>ATOM
      1 C           1.1215   -0.3259    0.0002 C.ar    1  LIG1        0.0023
      2 C           0.7176    0.9721   -0.0005 C.ar    1  LIG1       -0.0437
      3 C          -0.7144    0.9744    0.0003 C.ar    1  LIG1       -0.0333
      4 C          -1.1226   -0.3223   -0.0003 C.ar    1  LIG1        0.0875
      5 N          -0.0018   -1.1217    0.0001 N.ar    1  LIG1       -0.3582
      6 H          -0.0034   -2.1157   -0.0003 H       1  LIG1        0.1654
      7 H           2.3167   -0.8373    0.0007 H       1  LIG1        0.0807
      8 H           1.4918    2.0164   -0.0003 H       1  LIG1        0.0633
      9 H          -1.4853    2.0212    0.0010 H       1  LIG1        0.0640
     10 C          -2.3194   -0.8299   -0.0001 C.ar    1  LIG1        0.2194
     11 N          -3.3552    0.0531   -0.0000 N.ar    1  LIG1       -0.1236
     12 C          -4.8011   -1.8826    0.0003 C.ar    1  LIG1        0.2435
     13 N          -2.4046   -2.1884   -0.0000 N.ar    1  LIG1       -0.1236
     14 N          -4.5906   -0.4899    0.0002 N.ar    1  LIG1       -0.1218
     15 N          -3.6537   -2.6991    0.0001 N.ar    1  LIG1       -0.1218
     16 C          -5.9979   -2.3902    0.0005 C.ar    1  LIG1        0.2435
     17 N          -6.0830   -3.7486    0.0006 N.ar    1  LIG1       -0.1217
     18 C          -8.4796   -3.4426    0.0009 C.ar    1  LIG1        0.2381
     19 N          -7.0337   -1.5071    0.0006 N.ar    1  LIG1       -0.1217
     20 N          -7.3321   -4.2593    0.0008 N.ar    1  LIG1       -0.1219
     21 N          -8.2691   -2.0502    0.0009 N.ar    1  LIG1       -0.1219
     22 C          -9.6764   -3.9502    0.0011 C.ar    1  LIG1        0.1751
     23 C         -10.2039   -5.2249    0.0013 C.ar    1  LIG1       -0.0126
     24 C         -11.6445   -5.0775    0.0015 C.ar    1  LIG1       -0.0232
     25 C         -11.9018   -3.7220    0.0015 C.ar    1  LIG1        0.0927
     26 O         -10.7041   -3.0061    0.0014 O.2     1  LIG1       -0.4597
     27 H         -12.9707   -2.9821    0.0016 H       1  LIG1        0.1029
     28 H          -9.5583   -6.3532    0.0012 H       1  LIG1        0.0656
     29 H         -12.5057   -6.0514    0.0017 H       1  LIG1        0.0649
@<TRIPOS>BOND
     1     2     8    1
     2     2     1   ar
     3     2     3   ar
     4     4    10    1
     5     4     5   ar
     6     4     3   ar
     7     6     5    1
     8    10    13   ar
     9    10    11   ar
    10    13    15   ar
    11    11    14   ar
    12     5     1   ar
    13    15    12   ar
    14     1     7    1
    15    14    12   ar
    16     3     9    1
    17    12    16    1
    18    16    17   ar
    19    16    19   ar
    20    17    20   ar
    21    19    21   ar
    22    20    18   ar
    23    21    18   ar
    24    18    22    1
    25    22    23   ar
    26    22    26   ar
    27    28    23    1
    28    23    24   ar
    29    26    25   ar
    30    24    25   ar
    31    24    29    1
    32    25    27    1
