@<TRIPOS>MOLECULE
mol_data/noopt/geoms/mol2/13aa4id(290)4fa(20)12dl(90).out
 47 50 0 0 0
SMALL
GASTEIGER

@<TRIPOS>ATOM
      1 C           1.1215   -0.3259    0.0002 C.ar    1  LIG1        0.0022
      2 C           0.7176    0.9721   -0.0005 C.ar    1  LIG1       -0.0438
      3 C          -0.7144    0.9744    0.0003 C.ar    1  LIG1       -0.0364
      4 C          -1.1226   -0.3223   -0.0003 C.ar    1  LIG1        0.0468
      5 N          -0.0018   -1.1217    0.0001 N.ar    1  LIG1       -0.3606
      6 H          -0.0034   -2.1157   -0.0003 H       1  LIG1        0.1653
      7 H           2.3167   -0.8373    0.0007 H       1  LIG1        0.0807
      8 H           1.4918    2.0164   -0.0003 H       1  LIG1        0.0633
      9 H          -1.4853    2.0212    0.0010 H       1  LIG1        0.0639
     10 C          -3.1297   -0.7187   -1.1484 C.ar    1  LIG1       -0.0407
     11 C          -4.4187   -1.2837   -1.0973 C.ar    1  LIG1       -0.0491
     12 C          -2.3194   -0.8299   -0.0001 C.ar    1  LIG1        0.0024
     13 C          -4.8821   -1.9319    0.0454 C.ar    1  LIG1        0.0032
     14 H          -5.0606   -1.2091   -1.9723 H       1  LIG1        0.0627
     15 C          -2.7815   -1.4768    1.1409 C.ar    1  LIG1       -0.0344
     16 C          -4.0650   -2.0321    1.1720 C.ar    1  LIG1        0.0602
     17 H          -2.1376   -1.5494    2.0137 H       1  LIG1        0.0637
     18 C          -2.7533   -0.1266   -2.2432 C.3     1  LIG1       -0.0391
     19 H          -3.1593    0.8630   -2.2713 H       1  LIG1        0.0278
     20 H          -3.1058   -0.6808   -3.0879 H       1  LIG1        0.0278
     21 H          -1.6849   -0.0746   -2.2713 H       1  LIG1        0.0278
     22 N          -4.8680   -3.1678    3.1848 N.1     1  LIG1       -0.1908
     23 C          -4.4916   -2.6356    2.2415 C.1     1  LIG1        0.0998
     24 C          -7.1709   -1.6603    0.4834 C.ar    1  LIG1        0.1252
     25 C          -8.4452   -2.2597    0.4800 C.ar    1  LIG1       -0.0089
     26 C          -6.0776   -2.4423    0.0579 C.ar    1  LIG1        0.0248
     27 C          -8.6255   -3.5790    0.0708 C.ar    1  LIG1        0.0221
     28 H          -9.3025   -1.6743    0.8047 H       1  LIG1        0.0661
     29 C          -6.2571   -3.7594   -0.3507 C.ar    1  LIG1       -0.0498
     30 C          -7.5310   -4.3369   -0.3473 C.ar    1  LIG1       -0.0502
     31 H          -5.3982   -4.3419   -0.6743 H       1  LIG1        0.0625
     32 O          -7.0657   -0.4253    0.8758 O.3     1  LIG1       -0.5061
     33 H          -7.9414   -0.0442    0.9725 H       1  LIG1        0.2922
     34 H          -7.6926   -5.5687   -0.7302 H       1  LIG1        0.0625
     35 C          -9.8162   -4.1008    0.0802 C.ar    1  LIG1        0.1559
     36 C         -10.7105   -4.4926    1.0548 C.ar    1  LIG1        0.1389
     37 C         -11.8771   -5.0038    0.3659 C.ar    1  LIG1        0.1756
     38 C         -11.6182   -4.8902   -0.9846 C.ar    1  LIG1        0.1354
     39 O         -10.3537   -4.3360   -1.1860 O.2     1  LIG1       -0.4578
     40 H         -12.2622   -5.1724   -2.0781 H       1  LIG1        0.1068
     41 N         -10.4292   -4.3696    3.4821 N.1     1  LIG1       -0.1906
     42 C         -10.5610   -4.4272    2.3445 C.1     1  LIG1        0.1067
     43 O         -12.9479   -5.4729    0.9347 O.3     1  LIG1       -0.4907
     44 C         -13.8820   -4.4105    1.1434 C.3     1  LIG1        0.0790
     45 H         -14.7631   -4.7971    1.6114 H       1  LIG1        0.0660
     46 H         -13.4409   -3.6663    1.7732 H       1  LIG1        0.0660
     47 H         -14.1409   -3.9730    0.2019 H       1  LIG1        0.0660
@<TRIPOS>BOND
     1    20    18    1
     2    19    18    1
     3    21    18    1
     4    18    10    1
     5    40    38    1
     6    14    11    1
     7    39    38   ar
     8    39    35   ar
     9    10    11   ar
    10    10    12   ar
    11    11    13   ar
    12    38    37   ar
    13    34    30    1
    14    31    29    1
    15    29    30   ar
    16    29    26   ar
    17    30    27   ar
    18     2     8    1
    19     2     1   ar
    20     2     3   ar
    21     6     5    1
    22     4    12    1
    23     4     5   ar
    24     4     3   ar
    25    12    15   ar
    26     5     1   ar
    27     1     7    1
    28     3     9    1
    29    13    26    1
    30    13    16   ar
    31    26    24   ar
    32    27    35    1
    33    27    25   ar
    34    35    36   ar
    35    47    44    1
    36    37    43    1
    37    37    36   ar
    38    25    24   ar
    39    25    28    1
    40    24    32    1
    41    32    33    1
    42    43    44    1
    43    36    42    1
    44    15    16   ar
    45    15    17    1
    46    44    45    1
    47    44    46    1
    48    16    23    1
    49    23    22    3
    50    42    41    3
