@<TRIPOS>MOLECULE
mol_data/noopt/geoms/mol2/13aa13aa13aa13aa-.out
 34 37 0 0 0
SMALL
GASTEIGER

@<TRIPOS>ATOM
      1 C           1.1215   -0.3259    0.0002 C.ar    1  LIG1        0.0022
      2 C           0.7176    0.9721   -0.0005 C.ar    1  LIG1       -0.0438
      3 C          -0.7144    0.9744    0.0003 C.ar    1  LIG1       -0.0350
      4 C          -1.1226   -0.3223   -0.0003 C.ar    1  LIG1        0.0629
      5 N          -0.0018   -1.1217    0.0001 N.ar    1  LIG1       -0.3595
      6 H          -0.0034   -2.1157   -0.0003 H       1  LIG1        0.1654
      7 H           2.3167   -0.8373    0.0007 H       1  LIG1        0.0807
      8 H           1.4918    2.0164   -0.0003 H       1  LIG1        0.0633
      9 H          -1.4853    2.0212    0.0010 H       1  LIG1        0.0639
     10 C          -2.3194   -0.8299   -0.0001 C.ar    1  LIG1        0.0633
     11 C          -3.5353   -0.2219   -0.0003 C.ar    1  LIG1       -0.0343
     12 C          -4.5290   -1.2530    0.0012 C.ar    1  LIG1       -0.0343
     13 C          -3.8767   -2.4457    0.0005 C.ar    1  LIG1        0.0634
     14 N          -2.5238   -2.1913    0.0002 N.ar    1  LIG1       -0.3519
     15 H          -1.8081   -2.8811   -0.0004 H       1  LIG1        0.1660
     16 H          -3.7520    1.0599   -0.0003 H       1  LIG1        0.0639
     17 H          -5.8179   -1.0837    0.0025 H       1  LIG1        0.0639
     18 C          -4.3398   -3.6604    0.0012 C.ar    1  LIG1        0.0634
     19 C          -5.6206   -4.1160    0.0013 C.ar    1  LIG1       -0.0343
     20 C          -5.5655   -5.5470    0.0033 C.ar    1  LIG1       -0.0343
     21 C          -4.2535   -5.9029    0.0026 C.ar    1  LIG1        0.0633
     22 N          -3.4996   -4.7510    0.0018 N.ar    1  LIG1       -0.3519
     23 H          -2.5064   -4.7127    0.0010 H       1  LIG1        0.1660
     24 H          -6.6951   -3.3843    0.0012 H       1  LIG1        0.0639
     25 H          -6.5805   -6.3592    0.0050 H       1  LIG1        0.0639
     26 C          -3.6983   -7.0784    0.0036 C.ar    1  LIG1        0.0629
     27 C          -2.3863   -7.4341    0.0038 C.ar    1  LIG1       -0.0350
     28 C          -2.3311   -8.8651    0.0062 C.ar    1  LIG1       -0.0438
     29 C          -3.6119   -9.3208    0.0056 C.ar    1  LIG1        0.0022
     30 N          -4.4521   -8.2303    0.0045 N.ar    1  LIG1       -0.3595
     31 H          -5.4454   -8.2686    0.0038 H       1  LIG1        0.1654
     32 H          -4.0750  -10.5356    0.0070 H       1  LIG1        0.0807
     33 H          -1.3713   -6.6219    0.0035 H       1  LIG1        0.0639
     34 H          -1.2566   -9.5968    0.0081 H       1  LIG1        0.0633
@<TRIPOS>BOND
     1     2     8    1
     2     2     1   ar
     3     2     3   ar
     4    15    14    1
     5    11    16    1
     6    11    10   ar
     7    11    12   ar
     8     4    10    1
     9     4     5   ar
    10     4     3   ar
    11     6     5    1
    12    10    14   ar
    13     5     1   ar
    14    14    13   ar
    15     1     7    1
    16     3     9    1
    17    13    12   ar
    18    13    18    1
    19    23    22    1
    20    12    17    1
    21    18    19   ar
    22    18    22   ar
    23    24    19    1
    24    19    20   ar
    25    22    21   ar
    26    21    20   ar
    27    21    26    1
    28    20    25    1
    29    33    27    1
    30    26    27   ar
    31    26    30   ar
    32    31    30    1
    33    27    28   ar
    34    30    29   ar
    35    29    28   ar
    36    29    32    1
    37    28    34    1
