@<TRIPOS>MOLECULE
mol_data/noopt/geoms/mol2/13aa6af13hi-12ea-.out
 42 44 0 0 0
SMALL
GASTEIGER

@<TRIPOS>ATOM
      1 C           1.1215   -0.3259    0.0002 C.ar    1  LIG1        0.0022
      2 C           0.7176    0.9721   -0.0005 C.ar    1  LIG1       -0.0438
      3 C          -0.7144    0.9744    0.0003 C.ar    1  LIG1       -0.0364
      4 C          -1.1226   -0.3223   -0.0003 C.ar    1  LIG1        0.0479
      5 N          -0.0018   -1.1217    0.0001 N.ar    1  LIG1       -0.3606
      6 H          -0.0034   -2.1157   -0.0003 H       1  LIG1        0.1653
      7 H           2.3167   -0.8373    0.0007 H       1  LIG1        0.0807
      8 H           1.4918    2.0164   -0.0003 H       1  LIG1        0.0633
      9 H          -1.4853    2.0212    0.0010 H       1  LIG1        0.0639
     10 C          -2.5001   -2.2252    0.0002 C.ar    1  LIG1        0.0374
     11 C          -2.3194   -0.8299   -0.0001 C.ar    1  LIG1        0.0170
     12 C          -3.4502   -0.0112    0.0002 C.ar    1  LIG1       -0.0413
     13 C          -4.7120   -0.6082    0.0005 C.ar    1  LIG1        0.0123
     14 C          -4.7903   -2.0130    0.0006 C.ar    1  LIG1        0.0967
     15 N          -3.7098   -2.8179    0.0005 N.ar    1  LIG1       -0.2522
     16 H          -3.3485    1.0833   -0.0010 H       1  LIG1        0.0631
     17 H          -1.4781   -3.0286    0.0000 H       1  LIG1        0.0836
     18 O          -5.7955    0.1103    0.0006 O.3     2  HOH2       -0.2528
     19 H          -6.5627   -0.4668    0.0006 H       0  HOH0        0.2528
     20 C          -5.9423   -2.6153    0.0010 C.ar    1  LIG1        0.0872
     21 C          -7.2032   -2.1073    0.0009 C.ar    1  LIG1        0.0554
     22 C          -8.1107   -3.2150    0.0026 C.ar    1  LIG1       -0.0008
     23 C          -7.3644   -4.3513    0.0019 C.ar    1  LIG1        0.0885
     24 N          -6.0364   -3.9887    0.0013 N.ar    1  LIG1       -0.3488
     25 H          -5.2674   -4.6186    0.0007 H       1  LIG1        0.1661
     26 N          -7.5225   -0.8471    0.0009 N.pl3   1  LIG1       -0.3561
     27 H          -6.8128   -0.3234   -0.4706 H       1  LIG1        0.1424
     28 H          -8.3958   -0.7245   -0.4706 H       1  LIG1        0.1424
     29 C          -9.4094   -3.1501    0.0040 C.3     1  LIG1       -0.0358
     30 H          -9.8087   -4.0049    0.5089 H       1  LIG1        0.0279
     31 H          -9.7668   -3.1323   -1.0044 H       1  LIG1        0.0279
     32 H          -9.7214   -2.2597    0.5088 H       1  LIG1        0.0279
     33 C          -7.7282   -5.5994    0.0027 C.ar    1  LIG1        0.1665
     34 C          -8.9320   -6.2728    0.0181 C.ar    1  LIG1        0.0718
     35 C          -8.6168   -7.6862    0.0082 C.ar    1  LIG1       -0.0078
     36 C          -7.2407   -7.7826   -0.0127 C.ar    1  LIG1        0.0939
     37 O          -6.6702   -6.5093   -0.0166 O.2     1  LIG1       -0.4602
     38 H          -6.3806   -8.7573   -0.0290 H       1  LIG1        0.1030
     39 C         -10.1281   -5.7640    0.0379 C.1     1  LIG1       -0.0658
     40 C         -11.2334   -5.2939    0.0561 C.1     1  LIG1       -0.1138
     41 H         -12.2179   -4.8751    0.0723 H       1  LIG1        0.1232
     42 H          -9.4829   -8.6556    0.0176 H       1  LIG1        0.0661
@<TRIPOS>BOND
     1    31    29    1
     2    28    26    1
     3    27    26    1
     4    38    36    1
     5    37    36   ar
     6    37    33   ar
     7    36    35   ar
     8    16    12    1
     9     2     8    1
    10     2     1   ar
    11     2     3   ar
    12     4    11    1
    13     4     5   ar
    14     4     3   ar
    15     6     5    1
    16    11    10   ar
    17    11    12   ar
    18    17    10    1
    19     5     1   ar
    20    10    15   ar
    21    12    13   ar
    22     1     7    1
    23     3     9    1
    24    15    14   ar
    25    13    14   ar
    26    14    20    1
    27    18    19    1
    28    25    24    1
    29    26    21    1
    30    21    20   ar
    31    21    22   ar
    32    20    24   ar
    33    24    23   ar
    34    23    22   ar
    35    23    33    1
    36    22    29    1
    37    33    34   ar
    38    29    32    1
    39    29    30    1
    40    35    42    1
    41    35    34   ar
    42    34    39    1
    43    39    40    3
    44    40    41    1
