@<TRIPOS>MOLECULE
mol_data/noopt/geoms/mol2/13aa12fe(340)4ll(180)12da(270).out
 46 49 0 0 0
SMALL
GASTEIGER

@<TRIPOS>ATOM
      1 C           1.1215   -0.3259    0.0002 C.ar    1  LIG1        0.0023
      2 C           0.7176    0.9721   -0.0005 C.ar    1  LIG1       -0.0437
      3 C          -0.7144    0.9744    0.0003 C.ar    1  LIG1       -0.0333
      4 C          -1.1226   -0.3223   -0.0003 C.ar    1  LIG1        0.0858
      5 N          -0.0018   -1.1217    0.0001 N.ar    1  LIG1       -0.3582
      6 H          -0.0034   -2.1157   -0.0003 H       1  LIG1        0.1654
      7 H           2.3167   -0.8373    0.0007 H       1  LIG1        0.0807
      8 H           1.4918    2.0164   -0.0003 H       1  LIG1        0.0633
      9 H          -1.4853    2.0212    0.0010 H       1  LIG1        0.0640
     10 C          -2.3194   -0.8299   -0.0001 C.ar    1  LIG1        0.1941
     11 C          -3.5847   -0.3653   -0.2938 C.ar    1  LIG1        0.1805
     12 C          -4.4929   -1.4730   -0.0816 C.ar    1  LIG1        0.1126
     13 C          -3.7220   -2.5415    0.3279 C.ar    1  LIG1        0.1584
     14 O          -2.3784   -2.1698    0.3857 O.2     1  LIG1       -0.4482
     15 O          -3.9234    0.8270   -0.6859 O.3     1  LIG1       -0.5023
     16 H          -4.8774    0.8736   -0.7825 H       1  LIG1        0.2923
     17 C          -5.7813   -1.4396   -0.2516 C.1     1  LIG1       -0.0622
     18 C          -6.9718   -1.4088   -0.4087 C.1     1  LIG1       -0.1137
     19 H          -8.0322   -1.3813   -0.5486 H       1  LIG1        0.1232
     20 C          -2.8766   -4.6689    0.8413 C.ar    1  LIG1        0.1317
     21 C          -3.1797   -5.9962    1.2012 C.ar    1  LIG1       -0.0050
     22 C          -3.9532   -3.7764    0.6617 C.ar    1  LIG1        0.0637
     23 C          -4.4958   -6.4184    1.3757 C.ar    1  LIG1        0.0636
     24 H          -2.3641   -6.7014    1.3447 H       1  LIG1        0.0662
     25 C          -5.2672   -4.1973    0.8357 C.ar    1  LIG1       -0.0050
     26 C          -5.5479   -5.5200    1.1937 C.ar    1  LIG1        0.1317
     27 H          -6.0801   -3.4901    0.6913 H       1  LIG1        0.0662
     28 O          -1.6292   -4.3342    0.6933 O.3     1  LIG1       -0.4944
     29 C          -0.8219   -5.5133    0.6388 C.3     1  LIG1        0.0788
     30 H           0.2047   -5.2374    0.5168 H       1  LIG1        0.0660
     31 H          -0.9369   -6.0666    1.5475 H       1  LIG1        0.0660
     32 H          -1.1294   -6.1182   -0.1884 H       1  LIG1        0.0660
     33 O          -6.7783   -5.9078    1.3548 O.3     1  LIG1       -0.4944
     34 C          -7.6352   -4.7646    1.4139 C.3     1  LIG1        0.0788
     35 H          -8.6477   -5.0842    1.5464 H       1  LIG1        0.0660
     36 H          -7.3464   -4.1445    2.2368 H       1  LIG1        0.0660
     37 H          -7.5527   -4.2095    0.5029 H       1  LIG1        0.0660
     38 C          -4.7394   -7.6513    1.7082 C.ar    1  LIG1        0.1557
     39 C          -4.9718   -8.8267    1.0245 C.ar    1  LIG1        0.0975
     40 C          -5.1749   -9.8547    2.0239 C.ar    1  LIG1       -0.0058
     41 C          -5.0531   -9.2390    3.2526 C.ar    1  LIG1        0.0939
     42 O          -4.7845   -7.8802    3.0841 O.2     1  LIG1       -0.4615
     43 H          -5.1290   -9.6226    4.4924 H       1  LIG1        0.1030
     44 N          -5.0382   -9.1618   -1.3982 N.1     1  LIG1       -0.1907
     45 C          -5.0070   -9.0047   -0.2628 C.1     1  LIG1        0.1030
     46 H          -5.4226  -11.1078    1.7823 H       1  LIG1        0.0662
@<TRIPOS>BOND
     1    44    45    3
     2    16    15    1
     3    15    11    1
     4    19    18    1
     5    18    17    3
     6    11    12   ar
     7    11    10   ar
     8    45    39    1
     9    17    12    1
    10    32    29    1
    11    12    13   ar
    12     2     8    1
    13     2     1   ar
    14     2     3   ar
    15     6     5    1
    16     4    10    1
    17     4     5   ar
    18     4     3   ar
    19    10    14   ar
    20     5     1   ar
    21     1     7    1
    22     3     9    1
    23    13    14   ar
    24    13    22    1
    25    37    34    1
    26    30    29    1
    27    29    28    1
    28    29    31    1
    29    22    25   ar
    30    22    20   ar
    31    27    25    1
    32    28    20    1
    33    25    26   ar
    34    20    21   ar
    35    39    38   ar
    36    39    40   ar
    37    26    33    1
    38    26    23   ar
    39    21    24    1
    40    21    23   ar
    41    33    34    1
    42    23    38    1
    43    34    35    1
    44    34    36    1
    45    38    42   ar
    46    46    40    1
    47    40    41   ar
    48    42    41   ar
    49    41    43    1
