@<TRIPOS>MOLECULE
mol_data/noopt/geoms/mol2/13aa13le(150)4dl(240)13ee(160).out
 51 54 0 0 0
SMALL
GASTEIGER

@<TRIPOS>ATOM
      1 C           1.1215   -0.3259    0.0002 C.ar    1  LIG1        0.0022
      2 C           0.7176    0.9721   -0.0005 C.ar    1  LIG1       -0.0438
      3 C          -0.7144    0.9744    0.0003 C.ar    1  LIG1       -0.0349
      4 C          -1.1226   -0.3223   -0.0003 C.ar    1  LIG1        0.0665
      5 N          -0.0018   -1.1217    0.0001 N.ar    1  LIG1       -0.3594
      6 H          -0.0034   -2.1157   -0.0003 H       1  LIG1        0.1654
      7 H           2.3167   -0.8373    0.0007 H       1  LIG1        0.0807
      8 H           1.4918    2.0164   -0.0003 H       1  LIG1        0.0633
      9 H          -1.4853    2.0212    0.0010 H       1  LIG1        0.0639
     10 C          -2.3194   -0.8299   -0.0001 C.ar    1  LIG1        0.1068
     11 C          -2.7747   -2.0151    0.4858 C.ar    1  LIG1        0.1626
     12 C          -4.1808   -2.0738    0.2215 C.ar    1  LIG1        0.0922
     13 C          -4.5234   -0.9212   -0.4127 C.ar    1  LIG1        0.0675
     14 N          -3.3867   -0.1570   -0.5508 N.ar    1  LIG1       -0.3491
     15 H          -3.3435    0.7388   -0.9795 H       1  LIG1        0.1661
     16 O          -2.0614   -2.9258    1.0791 O.3     1  LIG1       -0.4917
     17 C          -2.8607   -4.0913    1.2968 C.3     1  LIG1        0.0789
     18 H          -2.2732   -4.8406    1.7850 H       1  LIG1        0.0660
     19 H          -3.6993   -3.8389    1.9117 H       1  LIG1        0.0660
     20 H          -3.2078   -4.4665    0.3568 H       1  LIG1        0.0660
     21 C          -4.9849   -3.0477    0.5299 C.1     1  LIG1       -0.0638
     22 C          -5.7278   -3.9475    0.8149 C.1     1  LIG1       -0.1137
     23 H          -6.3896   -4.7491    1.0688 H       1  LIG1        0.1232
     24 C          -6.1653   -0.9849   -2.0873 C.ar    1  LIG1        0.0617
     25 C          -7.4179   -0.5091   -2.5208 C.ar    1  LIG1       -0.0310
     26 C          -5.6757   -0.5110   -0.8529 C.ar    1  LIG1        0.0205
     27 C          -8.1525    0.3979   -1.7604 C.ar    1  LIG1        0.0424
     28 H          -7.8142   -0.8617   -3.4704 H       1  LIG1        0.0638
     29 C          -6.4087    0.3945   -0.0934 C.ar    1  LIG1       -0.0089
     30 C          -7.6513    0.8551   -0.5410 C.ar    1  LIG1        0.1299
     31 H          -6.0096    0.7451    0.8550 H       1  LIG1        0.0661
     32 N          -4.9636   -2.5764   -3.5045 N.1     1  LIG1       -0.1908
     33 C          -5.5268   -1.8305   -2.8403 C.1     1  LIG1        0.0998
     34 O          -8.3319    1.7016    0.1733 O.3     1  LIG1       -0.4944
     35 C          -7.5313    2.8571    0.4354 C.3     1  LIG1        0.0788
     36 H          -8.0919    3.5537    1.0231 H       1  LIG1        0.0660
     37 H          -6.6507    2.5672    0.9697 H       1  LIG1        0.0660
     38 H          -7.2521    3.3151   -0.4904 H       1  LIG1        0.0660
     39 C          -9.3056    0.8163   -2.1910 C.ar    1  LIG1        0.0668
     40 C         -10.5248    0.2153   -2.1727 C.ar    1  LIG1        0.0654
     41 C         -11.4561    1.1188   -2.7784 C.ar    1  LIG1        0.0579
     42 C         -10.7654    2.2329   -3.1386 C.ar    1  LIG1        0.0188
     43 N          -9.4483    2.0517   -2.7812 N.ar    1  LIG1       -0.3584
     44 H          -8.7167    2.7089   -2.9258 H       1  LIG1        0.1654
     45 H         -11.1682    3.3245   -3.7184 H       1  LIG1        0.0820
     46 C         -10.7919   -0.9635   -1.6940 C.1     1  LIG1       -0.0663
     47 C         -11.0387   -2.0527   -1.2517 C.1     1  LIG1       -0.1138
     48 H         -11.2585   -3.0229   -0.8577 H       1  LIG1        0.1232
     49 C         -12.7281    0.9151   -2.9529 C.1     1  LIG1       -0.0669
     50 C         -13.9035    0.7269   -3.1142 C.1     1  LIG1       -0.1138
     51 H         -14.9504    0.5592   -3.2579 H       1  LIG1        0.1232
@<TRIPOS>BOND
     1    45    42    1
     2    32    33    3
     3    28    25    1
     4    51    50    1
     5    42    43   ar
     6    42    41   ar
     7    50    49    3
     8    49    41    1
     9    44    43    1
    10    33    24    1
    11    43    39   ar
    12    41    40   ar
    13    25    24   ar
    14    25    27   ar
    15    39    40   ar
    16    39    27    1
    17    40    46    1
    18    24    26   ar
    19    27    30   ar
    20    46    47    3
    21    47    48    1
    22    15    14    1
    23    26    13    1
    24    26    29   ar
    25    14    13   ar
    26    14    10   ar
    27    30    29   ar
    28    30    34    1
    29    38    35    1
    30    13    12   ar
    31    29    31    1
    32     2     8    1
    33     2     1   ar
    34     2     3   ar
    35     4    10    1
    36     4     5   ar
    37     4     3   ar
    38     6     5    1
    39    10    11   ar
    40     5     1   ar
    41     1     7    1
    42     3     9    1
    43    34    35    1
    44    12    11   ar
    45    12    21    1
    46    20    17    1
    47    35    37    1
    48    35    36    1
    49    11    16    1
    50    21    22    3
    51    22    23    1
    52    16    17    1
    53    17    18    1
    54    17    19    1
