@<TRIPOS>MOLECULE
mol_data/noopt/geoms/mol2/13aa13aa-13aa-13aa-.out
 34 37 0 0 0
SMALL
GASTEIGER

@<TRIPOS>ATOM
      1 C           1.1215   -0.3259    0.0002 C.ar    1  LIG1        0.0022
      2 C           0.7176    0.9721   -0.0005 C.ar    1  LIG1       -0.0438
      3 C          -0.7144    0.9744    0.0003 C.ar    1  LIG1       -0.0350
      4 C          -1.1226   -0.3223   -0.0003 C.ar    1  LIG1        0.0629
      5 N          -0.0018   -1.1217    0.0001 N.ar    1  LIG1       -0.3595
      6 H          -0.0034   -2.1157   -0.0003 H       1  LIG1        0.1654
      7 H           2.3167   -0.8373    0.0007 H       1  LIG1        0.0807
      8 H           1.4918    2.0164   -0.0003 H       1  LIG1        0.0633
      9 H          -1.4853    2.0212    0.0010 H       1  LIG1        0.0639
     10 C          -2.3194   -0.8299   -0.0001 C.ar    1  LIG1        0.0633
     11 C          -2.7274   -2.1266   -0.0005 C.ar    1  LIG1       -0.0343
     12 C          -4.1594   -2.1244    0.0011 C.ar    1  LIG1       -0.0343
     13 C          -4.5635   -0.8264    0.0006 C.ar    1  LIG1        0.0634
     14 N          -3.4402   -0.0305    0.0003 N.ar    1  LIG1       -0.3519
     15 H          -3.4386    0.9635   -0.0001 H       1  LIG1        0.1660
     16 H          -1.9565   -3.1734   -0.0006 H       1  LIG1        0.0639
     17 H          -4.9336   -3.1687    0.0023 H       1  LIG1        0.0639
     18 C          -5.7587   -0.3150    0.0014 C.ar    1  LIG1        0.0634
     19 C          -6.9765   -0.9191    0.0015 C.ar    1  LIG1       -0.0343
     20 C          -7.9670    0.1151    0.0037 C.ar    1  LIG1       -0.0343
     21 C          -7.3109    1.3057    0.0031 C.ar    1  LIG1        0.0633
     22 N          -5.9587    1.0470    0.0022 N.ar    1  LIG1       -0.3519
     23 H          -5.2408    1.7345    0.0016 H       1  LIG1        0.1660
     24 H          -7.1973   -2.2002    0.0012 H       1  LIG1        0.0639
     25 H          -9.2564   -0.0501    0.0054 H       1  LIG1        0.0639
     26 C          -7.7701    2.5219    0.0044 C.ar    1  LIG1        0.0629
     27 C          -9.0494    2.9816    0.0047 C.ar    1  LIG1       -0.0350
     28 C          -8.9898    4.4124    0.0074 C.ar    1  LIG1       -0.0438
     29 C          -7.6767    4.7641    0.0068 C.ar    1  LIG1        0.0022
     30 N          -6.9265    3.6098    0.0054 N.ar    1  LIG1       -0.3595
     31 H          -5.9333    3.5684    0.0046 H       1  LIG1        0.1654
     32 H          -7.1178    5.9378    0.0083 H       1  LIG1        0.0807
     33 H         -10.1263    2.2533    0.0043 H       1  LIG1        0.0639
     34 H         -10.0023    5.2278    0.0095 H       1  LIG1        0.0633
@<TRIPOS>BOND
     1    16    11    1
     2     2     8    1
     3     2     1   ar
     4     2     3   ar
     5    11    10   ar
     6    11    12   ar
     7     4    10    1
     8     4     5   ar
     9     4     3   ar
    10     6     5    1
    11    15    14    1
    12    10    14   ar
    13     5     1   ar
    14     1     7    1
    15     3     9    1
    16    14    13   ar
    17    13    12   ar
    18    13    18    1
    19    12    17    1
    20    24    19    1
    21    18    19   ar
    22    18    22   ar
    23    19    20   ar
    24    23    22    1
    25    22    21   ar
    26    21    20   ar
    27    21    26    1
    28    20    25    1
    29    33    27    1
    30    26    27   ar
    31    26    30   ar
    32    31    30    1
    33    27    28   ar
    34    30    29   ar
    35    29    28   ar
    36    29    32    1
    37    28    34    1
