@<TRIPOS>MOLECULE
mol_data/noopt/geoms/mol2/13aa6if12aa13hi13eh-13ff-6ah6ee.out
 89 95 0 0 0
SMALL
GASTEIGER

@<TRIPOS>ATOM
      1 C           1.1215   -0.3259    0.0002 C.ar    1  LIG1        0.0022
      2 C           0.7176    0.9721   -0.0005 C.ar    1  LIG1       -0.0438
      3 C          -0.7144    0.9744    0.0003 C.ar    1  LIG1       -0.0364
      4 C          -1.1226   -0.3223   -0.0003 C.ar    1  LIG1        0.0487
      5 N          -0.0018   -1.1217    0.0001 N.ar    1  LIG1       -0.3606
      6 H          -0.0034   -2.1157   -0.0003 H       1  LIG1        0.1653
      7 H           2.3167   -0.8373    0.0007 H       1  LIG1        0.0807
      8 H           1.4918    2.0164   -0.0003 H       1  LIG1        0.0633
      9 H          -1.4853    2.0212    0.0010 H       1  LIG1        0.0639
     10 C          -2.5001   -2.2252    0.0002 C.ar    1  LIG1        0.0999
     11 C          -2.3194   -0.8299   -0.0001 C.ar    1  LIG1        0.0293
     12 C          -3.4502   -0.0112    0.0002 C.ar    1  LIG1       -0.0067
     13 C          -4.7120   -0.6082    0.0005 C.ar    1  LIG1        0.1464
     14 C          -4.7903   -2.0130    0.0006 C.ar    1  LIG1        0.1479
     15 N          -3.7098   -2.8179    0.0005 N.ar    1  LIG1       -0.2377
     16 H          -3.3485    1.0833   -0.0010 H       1  LIG1        0.0662
     17 C          -1.4779   -3.0288    0.0000 C.3     2  LIG2       -0.0776
     18 H          -0.6575   -2.5625    0.5044 H       1  LIG1        0.0194
     19 H          -1.1975   -3.2492   -1.0089 H       1  LIG1        0.0194
     20 H          -1.7375   -3.9361    0.5044 H       1  LIG1        0.0194
     21 O          -5.7955    0.1103    0.0006 O.3     1  LIG1       -0.5045
     22 H          -6.5627   -0.4668    0.0006 H       1  LIG1        0.2922
     23 C          -5.9423   -2.6153    0.0010 C.ar    1  LIG1        0.1575
     24 C          -7.2620   -2.2137    0.0160 C.ar    1  LIG1       -0.0135
     25 C          -8.0628   -3.4201    0.0058 C.ar    1  LIG1       -0.0137
     26 C          -7.1790   -4.4794   -0.0150 C.ar    1  LIG1        0.1536
     27 O          -5.8655   -4.0087   -0.0185 O.2     1  LIG1       -0.4516
     28 H          -7.7237   -0.9987    0.0358 H       1  LIG1        0.0656
     29 H          -9.3620   -3.4672    0.0147 H       1  LIG1        0.0656
     30 C          -7.2861   -5.7749   -0.0316 C.ar    1  LIG1        0.1037
     31 C          -8.3896   -6.5686   -0.0432 C.ar    1  LIG1        0.0568
     32 C          -7.9388   -7.9277   -0.0587 C.ar    1  LIG1       -0.0024
     33 C          -6.5796   -7.9047   -0.0577 C.ar    1  LIG1        0.0694
     34 N          -6.1758   -6.5887   -0.0406 N.ar    1  LIG1       -0.3489
     35 H          -5.2323   -6.2758   -0.0362 H       1  LIG1        0.1661
     36 N          -9.6253   -6.1645   -0.0393 N.pl3   1  LIG1       -0.3560
     37 H          -9.6896   -5.2844   -0.5097 H       1  LIG1        0.1424
     38 H         -10.1972   -6.8364   -0.5097 H       1  LIG1        0.1424
     39 C          -8.6882   -8.9903   -0.0719 C.3     1  LIG1       -0.0359
     40 H          -8.1827   -9.7894    0.4289 H       1  LIG1        0.0279
     41 H          -8.8878   -9.2734   -1.0843 H       1  LIG1        0.0279
     42 H          -9.6107   -8.7824    0.4288 H       1  LIG1        0.0279
     43 C          -5.7195   -8.8795   -0.0686 C.ar    1  LIG1        0.0811
     44 C          -5.9116  -10.2252   -0.0764 C.ar    1  LIG1        0.0726
     45 C          -4.6191  -10.8417   -0.0862 C.ar    1  LIG1        0.0680
     46 C          -3.6940   -9.8455   -0.0857 C.ar    1  LIG1        0.0893
     47 N          -4.3634   -8.6426   -0.0745 N.ar    1  LIG1       -0.3493
     48 H          -3.9354   -7.7454   -0.0718 H       1  LIG1        0.1661
     49 C          -7.0590  -10.8363   -0.0738 C.1     1  LIG1       -0.0656
     50 C          -8.1192  -11.4010   -0.0714 C.1     1  LIG1       -0.1138
     51 H          -9.0636  -11.9040   -0.0692 H       1  LIG1        0.1232
     52 N          -4.3720  -12.1179   -0.0945 N.pl3   1  LIG1       -0.3553
     53 H          -5.1108  -12.5974   -0.5680 H       1  LIG1        0.1424
     54 H          -3.5076  -12.2870   -0.5680 H       1  LIG1        0.1424
     55 C          -2.3952   -9.9005   -0.0927 C.ar    1  LIG1        0.1110
     56 C          -1.5577  -10.9713   -0.0813 C.ar    1  LIG1        0.1863
     57 C          -0.2178  -10.4663   -0.0961 C.ar    1  LIG1        0.1849
     58 C          -0.2954   -9.1093   -0.1177 C.ar    1  LIG1        0.0943
     59 N          -1.6266   -8.7586   -0.1153 N.ar    1  LIG1       -0.3470
     60 H          -1.9772   -7.8286   -0.1284 H       1  LIG1        0.1662
     61 O          -1.9118  -12.2220   -0.0592 O.3     1  LIG1       -0.5019
     62 H          -1.1284  -12.7767   -0.0538 H       1  LIG1        0.2924
     63 O           0.8739  -11.1722   -0.0904 O.3     1  LIG1       -0.5019
     64 H           1.6344  -10.5862   -0.0890 H       1  LIG1        0.2924
     65 C           0.3188   -6.8421   -0.1475 C.ar    1  LIG1        0.0376
     66 C           0.6440   -8.2109   -0.1371 C.ar    1  LIG1        0.0219
     67 C           1.9914   -8.5761   -0.1477 C.ar    1  LIG1       -0.0283
     68 C           2.9600   -7.5711   -0.1684 C.ar    1  LIG1        0.0516
     69 C           2.5356   -6.2297   -0.1777 C.ar    1  LIG1        0.0942
     70 N           1.2402   -5.8595   -0.1675 N.ar    1  LIG1       -0.2524
     71 H           2.2839   -9.6357   -0.1410 H       1  LIG1        0.0644
     72 H          -0.9214   -6.4525   -0.1382 H       1  LIG1        0.0836
     73 N           4.2276   -7.8594   -0.1791 N.pl3   1  LIG1       -0.3563
     74 H           4.3677   -8.7286   -0.6532 H       1  LIG1        0.1424
     75 H           4.7299   -7.1364   -0.6533 H       1  LIG1        0.1424
     76 C           2.9652   -3.9204   -0.2071 C.ar    1  LIG1        0.1236
     77 C           3.3996   -5.2585   -0.1968 C.ar    1  LIG1        0.0371
     78 C           4.7720   -5.5140   -0.2072 C.ar    1  LIG1       -0.0330
     79 C           5.6565   -4.4342   -0.2276 C.ar    1  LIG1        0.0435
     80 C           5.1254   -3.1313   -0.2368 C.ar    1  LIG1        0.0444
     81 N           3.8044   -2.8667   -0.2268 N.ar    1  LIG1       -0.2448
     82 H           5.1490   -6.5465   -0.2007 H       1  LIG1        0.0638
     83 H           5.9083   -2.0937   -0.2557 H       1  LIG1        0.0842
     84 C           1.6976   -3.6320   -0.1979 C.1     1  LIG1       -0.0319
     85 C           0.5264   -3.3655   -0.1894 C.1     1  LIG1       -0.0076
     86 H          -0.5169   -3.1281   -0.1819 H       1  LIG1        0.0194
     87 C           6.9431   -4.6195   -0.2382 C.1     1  LIG1       -0.0681
     88 C           8.1320   -4.7907   -0.2480 C.1     1  LIG1       -0.1139
     89 H           9.1911   -4.9431   -0.2567 H       1  LIG1        0.1232
@<TRIPOS>BOND
     1    41    39    1
     2    19    17    1
     3    75    73    1
     4    74    73    1
     5    54    52    1
     6    53    52    1
     7    38    36    1
     8    37    36    1
     9    89    88    1
    10    83    80    1
    11    88    87    3
    12    87    79    1
    13    80    79   ar
    14    80    81   ar
    15    79    78   ar
    16    81    76   ar
    17    78    82    1
    18    78    77   ar
    19    76    84    1
    20    76    77   ar
    21    84    85    3
    22    77    69    1
    23    86    17    1
    24    73    68    1
    25    69    68   ar
    26    69    70   ar
    27    68    67   ar
    28    70    65   ar
    29    67    71    1
    30    67    66   ar
    31    65    72    1
    32    65    66   ar
    33    66    58    1
    34    60    59    1
    35    58    59   ar
    36    58    57   ar
    37    59    55   ar
    38    57    63    1
    39    57    56   ar
    40    52    45    1
    41    55    46    1
    42    55    56   ar
    43    63    64    1
    44    45    46   ar
    45    45    44   ar
    46    46    47   ar
    47    56    61    1
    48    44    49    1
    49    44    43   ar
    50    47    48    1
    51    47    43   ar
    52    49    50    3
    53    39    32    1
    54    39    42    1
    55    39    40    1
    56    50    51    1
    57    43    33    1
    58    61    62    1
    59    32    33   ar
    60    32    31   ar
    61    33    34   ar
    62    31    36    1
    63    31    30   ar
    64    34    35    1
    65    34    30   ar
    66    30    26    1
    67    27    26   ar
    68    27    23   ar
    69    26    25   ar
    70    16    12    1
    71     2     8    1
    72     2     1   ar
    73     2     3   ar
    74     6     5    1
    75     4    11    1
    76     4     5   ar
    77     4     3   ar
    78    11    10   ar
    79    11    12   ar
    80    17    20    1
    81    17    18    1
    82     5     1   ar
    83    10    15   ar
    84    12    13   ar
    85     1     7    1
    86     3     9    1
    87    15    14   ar
    88    13    14   ar
    89    13    21    1
    90    14    23    1
    91    21    22    1
    92    23    24   ar
    93    25    29    1
    94    25    24   ar
    95    24    28    1
