@<TRIPOS>MOLECULE
mol_data/noopt/geoms/mol2/13aa13aa-.out
 18 19 0 0 0
SMALL
GASTEIGER

@<TRIPOS>ATOM
      1 C           1.1215   -0.3259    0.0002 C.ar    1  LIG1        0.0022
      2 C           0.7176    0.9721   -0.0005 C.ar    1  LIG1       -0.0438
      3 C          -0.7144    0.9744    0.0003 C.ar    1  LIG1       -0.0350
      4 C          -1.1226   -0.3223   -0.0003 C.ar    1  LIG1        0.0629
      5 N          -0.0018   -1.1217    0.0001 N.ar    1  LIG1       -0.3595
      6 H          -0.0034   -2.1157   -0.0003 H       1  LIG1        0.1654
      7 H           2.3167   -0.8373    0.0007 H       1  LIG1        0.0807
      8 H           1.4918    2.0164   -0.0003 H       1  LIG1        0.0633
      9 H          -1.4853    2.0212    0.0010 H       1  LIG1        0.0639
     10 C          -2.3194   -0.8299   -0.0001 C.ar    1  LIG1        0.0629
     11 C          -2.7274   -2.1266   -0.0005 C.ar    1  LIG1       -0.0350
     12 C          -4.1594   -2.1244    0.0011 C.ar    1  LIG1       -0.0438
     13 C          -4.5635   -0.8264    0.0006 C.ar    1  LIG1        0.0022
     14 N          -3.4402   -0.0305    0.0003 N.ar    1  LIG1       -0.3595
     15 H          -3.4386    0.9635   -0.0001 H       1  LIG1        0.1654
     16 H          -5.7587   -0.3150    0.0014 H       1  LIG1        0.0807
     17 H          -1.9565   -3.1734   -0.0006 H       1  LIG1        0.0639
     18 H          -4.9336   -3.1687    0.0023 H       1  LIG1        0.0633
@<TRIPOS>BOND
     1    17    11    1
     2     2     8    1
     3     2     1   ar
     4     2     3   ar
     5    11    10   ar
     6    11    12   ar
     7     4    10    1
     8     4     5   ar
     9     4     3   ar
    10     6     5    1
    11    15    14    1
    12    10    14   ar
    13     5     1   ar
    14     1     7    1
    15     3     9    1
    16    14    13   ar
    17    13    12   ar
    18    13    16    1
    19    12    18    1
