@<TRIPOS>MOLECULE
mol_data/noopt/geoms/mol2/13aa.out
 10 10 0 0 0
SMALL
GASTEIGER

@<TRIPOS>ATOM
      1 C           1.1215   -0.3259    0.0002 C.ar    1  LIG1        0.0016
      2 C           0.7176    0.9721   -0.0005 C.ar    1  LIG1       -0.0444
      3 C          -0.7144    0.9744    0.0003 C.ar    1  LIG1       -0.0444
      4 C          -1.1226   -0.3223   -0.0003 C.ar    1  LIG1        0.0016
      5 N          -0.0018   -1.1217    0.0001 N.ar    1  LIG1       -0.3670
      6 H          -0.0034   -2.1157   -0.0003 H       1  LIG1        0.1648
      7 H          -2.3194   -0.8299   -0.0001 H       1  LIG1        0.0807
      8 H           2.3167   -0.8373    0.0007 H       1  LIG1        0.0807
      9 H           1.4918    2.0164   -0.0003 H       1  LIG1        0.0632
     10 H          -1.4853    2.0212    0.0010 H       1  LIG1        0.0632
@<TRIPOS>BOND
     1     2     9    1
     2     2     1   ar
     3     2     3   ar
     4     4     7    1
     5     4     5   ar
     6     4     3   ar
     7     6     5    1
     8     5     1   ar
     9     1     8    1
    10     3    10    1
