@<TRIPOS>MOLECULE
mol_data/noopt/geoms/mol2/13aa6fi(210)4hl(260)12ah(220).out
 48 51 0 0 0
SMALL
GASTEIGER

@<TRIPOS>ATOM
      1 C           1.1215   -0.3259    0.0002 C.ar    1  LIG1        0.0022
      2 C           0.7176    0.9721   -0.0005 C.ar    1  LIG1       -0.0438
      3 C          -0.7144    0.9744    0.0003 C.ar    1  LIG1       -0.0363
      4 C          -1.1226   -0.3223   -0.0003 C.ar    1  LIG1        0.0516
      5 N          -0.0018   -1.1217    0.0001 N.ar    1  LIG1       -0.3605
      6 H          -0.0034   -2.1157   -0.0003 H       1  LIG1        0.1653
      7 H           2.3167   -0.8373    0.0007 H       1  LIG1        0.0807
      8 H           1.4918    2.0164   -0.0003 H       1  LIG1        0.0633
      9 H          -1.4853    2.0212    0.0010 H       1  LIG1        0.0639
     10 C          -3.3846   -0.1394    0.6064 C.ar    1  LIG1        0.2222
     11 C          -2.3194   -0.8299   -0.0001 C.ar    1  LIG1        0.0599
     12 C          -2.5794   -2.0647   -0.5973 C.ar    1  LIG1       -0.0426
     13 C          -3.8827   -2.5639   -0.5688 C.ar    1  LIG1       -0.0236
     14 C          -4.8810   -1.7992    0.0623 C.ar    1  LIG1        0.0796
     15 N          -4.6478   -0.6061    0.6432 N.ar    1  LIG1       -0.2121
     16 H          -1.7722   -2.6337   -1.0801 H       1  LIG1        0.0629
     17 O          -3.1924    1.0136    1.1753 O.3     1  LIG1       -0.4919
     18 H          -4.0376    1.4467    1.3156 H       1  LIG1        0.2937
     19 C          -4.1760   -3.7090   -1.1106 C.3     1  LIG1       -0.0377
     20 H          -3.4622   -4.4434   -0.8007 H       1  LIG1        0.0278
     21 H          -4.1520   -3.6158   -2.1764 H       1  LIG1        0.0278
     22 H          -5.1549   -4.0098   -0.8008 H       1  LIG1        0.0278
     23 C          -6.7501   -2.6656   -1.0601 C.ar    1  LIG1        0.0347
     24 C          -8.0813   -3.1119   -0.9510 C.ar    1  LIG1       -0.0262
     25 C          -6.1093   -2.2215    0.1146 C.ar    1  LIG1        0.0248
     26 C          -8.7469   -3.1173    0.2728 C.ar    1  LIG1        0.0607
     27 H          -8.5946   -3.4586   -1.8451 H       1  LIG1        0.0644
     28 C          -6.7732   -2.2267    1.3366 C.ar    1  LIG1       -0.0083
     29 C          -8.0955   -2.6742    1.4246 C.ar    1  LIG1        0.1315
     30 H          -6.2575   -1.8793    2.2282 H       1  LIG1        0.0661
     31 N          -6.1819   -2.6844   -2.2293 N.pl3   1  LIG1       -0.3574
     32 H          -6.4870   -3.4913   -2.7352 H       1  LIG1        0.1423
     33 H          -6.4329   -1.8592   -2.7352 H       1  LIG1        0.1423
     34 O          -8.7112   -2.6767    2.5697 O.3     1  LIG1       -0.4944
     35 C          -8.9425   -1.3295    2.9900 C.3     1  LIG1        0.0788
     36 H          -9.4494   -1.3320    3.9323 H       1  LIG1        0.0660
     37 H          -8.0062   -0.8213    3.0900 H       1  LIG1        0.0660
     38 H          -9.5450   -0.8273    2.2623 H       1  LIG1        0.0660
     39 C          -9.9758   -3.5362    0.3373 C.ar    1  LIG1        0.1402
     40 C         -10.6809   -4.6001   -0.1861 C.ar    1  LIG1        0.0050
     41 C         -12.0423   -4.4698    0.2898 C.ar    1  LIG1        0.0634
     42 C         -12.0788   -3.3345    1.0729 C.ar    1  LIG1        0.1131
     43 O         -10.8167   -2.7414    1.1177 O.2     1  LIG1       -0.4609
     44 H         -12.9910   -2.7102    1.7573 H       1  LIG1        0.1049
     45 H         -10.2359   -5.5472   -0.9574 H       1  LIG1        0.0674
     46 N         -13.0212   -5.2804    0.0166 N.pl3   1  LIG1       -0.3555
     47 H         -13.7167   -4.7962   -0.5143 H       1  LIG1        0.1424
     48 H         -12.6752   -6.0539   -0.5144 H       1  LIG1        0.1424
@<TRIPOS>BOND
     1    33    31    1
     2    32    31    1
     3    31    23    1
     4    21    19    1
     5    27    24    1
     6    19    22    1
     7    19    20    1
     8    19    13    1
     9    16    12    1
    10    23    24   ar
    11    23    25   ar
    12    45    40    1
    13    24    26   ar
    14    12    13   ar
    15    12    11   ar
    16    13    14   ar
    17    48    46    1
    18    47    46    1
    19    40    41   ar
    20    40    39   ar
    21     2     8    1
    22     2     1   ar
    23     2     3   ar
    24     6     5    1
    25     4    11    1
    26     4     5   ar
    27     4     3   ar
    28    11    10   ar
    29     5     1   ar
    30     1     7    1
    31     3     9    1
    32    46    41    1
    33    14    25    1
    34    14    15   ar
    35    25    28   ar
    36    26    39    1
    37    26    29   ar
    38    41    42   ar
    39    39    43   ar
    40    10    15   ar
    41    10    17    1
    42    42    43   ar
    43    42    44    1
    44    17    18    1
    45    28    29   ar
    46    28    30    1
    47    29    34    1
    48    38    35    1
    49    34    35    1
    50    35    37    1
    51    35    36    1
