@<TRIPOS>MOLECULE
mol_data/noopt/geoms/mol2/13aa13aa-4aa13aa.out
 36 39 0 0 0
SMALL
GASTEIGER

@<TRIPOS>ATOM
      1 C           1.1215   -0.3259    0.0002 C.ar    1  LIG1        0.0022
      2 C           0.7176    0.9721   -0.0005 C.ar    1  LIG1       -0.0438
      3 C          -0.7144    0.9744    0.0003 C.ar    1  LIG1       -0.0350
      4 C          -1.1226   -0.3223   -0.0003 C.ar    1  LIG1        0.0629
      5 N          -0.0018   -1.1217    0.0001 N.ar    1  LIG1       -0.3595
      6 H          -0.0034   -2.1157   -0.0003 H       1  LIG1        0.1654
      7 H           2.3167   -0.8373    0.0007 H       1  LIG1        0.0807
      8 H           1.4918    2.0164   -0.0003 H       1  LIG1        0.0633
      9 H          -1.4853    2.0212    0.0010 H       1  LIG1        0.0639
     10 C          -2.3194   -0.8299   -0.0001 C.ar    1  LIG1        0.0633
     11 C          -2.7274   -2.1266   -0.0005 C.ar    1  LIG1       -0.0344
     12 C          -4.1594   -2.1244    0.0011 C.ar    1  LIG1       -0.0358
     13 C          -4.5635   -0.8264    0.0006 C.ar    1  LIG1        0.0469
     14 N          -3.4402   -0.0305    0.0003 N.ar    1  LIG1       -0.3530
     15 H          -3.4386    0.9635   -0.0001 H       1  LIG1        0.1659
     16 H          -1.9565   -3.1734   -0.0006 H       1  LIG1        0.0639
     17 H          -4.9336   -3.1687    0.0023 H       1  LIG1        0.0639
     18 C          -5.9236    1.0852    0.0026 C.ar    1  LIG1       -0.0520
     19 C          -7.2385    1.5895    0.0050 C.ar    1  LIG1       -0.0520
     20 C          -5.7587   -0.3150    0.0014 C.ar    1  LIG1       -0.0017
     21 C          -8.3419    0.7391    0.0056 C.ar    1  LIG1       -0.0017
     22 H          -7.3885    2.6668    0.0062 H       1  LIG1        0.0624
     23 C          -6.8598   -1.1644    0.0020 C.ar    1  LIG1       -0.0520
     24 C          -8.1582   -0.6442    0.0040 C.ar    1  LIG1       -0.0520
     25 H          -6.7065   -2.2406    0.0011 H       1  LIG1        0.0624
     26 H          -4.9343    1.9285    0.0020 H       1  LIG1        0.0624
     27 H          -9.1838   -1.4431    0.0046 H       1  LIG1        0.0624
     28 C          -9.5420    1.2389    0.0077 C.ar    1  LIG1        0.0465
     29 C          -9.9585    2.5329    0.0088 C.ar    1  LIG1       -0.0364
     30 C         -11.3904    2.5213    0.0122 C.ar    1  LIG1       -0.0438
     31 C         -11.7860    1.2207    0.0113 C.ar    1  LIG1        0.0022
     32 N         -10.6575    0.4322    0.0090 N.ar    1  LIG1       -0.3607
     33 H         -10.6495   -0.5617    0.0079 H       1  LIG1        0.1653
     34 H         -12.9778    0.7015    0.0134 H       1  LIG1        0.0807
     35 H          -9.1944    3.5847    0.0084 H       1  LIG1        0.0639
     36 H         -12.1714    3.5606    0.0152 H       1  LIG1        0.0633
@<TRIPOS>BOND
     1    16    11    1
     2     2     8    1
     3     2     1   ar
     4     2     3   ar
     5    11    10   ar
     6    11    12   ar
     7     4    10    1
     8     4     5   ar
     9     4     3   ar
    10     6     5    1
    11    15    14    1
    12    10    14   ar
    13     5     1   ar
    14     1     7    1
    15     3     9    1
    16    14    13   ar
    17    13    12   ar
    18    13    20    1
    19    12    17    1
    20    25    23    1
    21    20    23   ar
    22    20    18   ar
    23    26    18    1
    24    23    24   ar
    25    18    19   ar
    26    24    27    1
    27    24    21   ar
    28    19    21   ar
    29    19    22    1
    30    21    28    1
    31    28    29   ar
    32    28    32   ar
    33    33    32    1
    34    35    29    1
    35    29    30   ar
    36    32    31   ar
    37    31    30   ar
    38    31    34    1
    39    30    36    1
