@<TRIPOS>MOLECULE
mol_data/noopt/geoms/mol2/13aa13de(80)6ia(100)6ia(290).out
 45 48 0 0 0
SMALL
GASTEIGER

@<TRIPOS>ATOM
      1 C           1.1215   -0.3259    0.0002 C.ar    1  LIG1        0.0022
      2 C           0.7176    0.9721   -0.0005 C.ar    1  LIG1       -0.0438
      3 C          -0.7144    0.9744    0.0003 C.ar    1  LIG1       -0.0350
      4 C          -1.1226   -0.3223   -0.0003 C.ar    1  LIG1        0.0642
      5 N          -0.0018   -1.1217    0.0001 N.ar    1  LIG1       -0.3595
      6 H          -0.0034   -2.1157   -0.0003 H       1  LIG1        0.1654
      7 H           2.3167   -0.8373    0.0007 H       1  LIG1        0.0807
      8 H           1.4918    2.0164   -0.0003 H       1  LIG1        0.0633
      9 H          -1.4853    2.0212    0.0010 H       1  LIG1        0.0639
     10 C          -2.3194   -0.8299   -0.0001 C.ar    1  LIG1        0.0821
     11 C          -3.2074   -0.9945    1.0159 C.ar    1  LIG1        0.0943
     12 C          -4.3786   -1.6074    0.4652 C.ar    1  LIG1        0.0680
     13 C          -4.1554   -1.7889   -0.8635 C.ar    1  LIG1        0.0655
     14 N          -2.8957   -1.3147   -1.1525 N.ar    1  LIG1       -0.3510
     15 H          -2.4702   -1.3207   -2.0507 H       1  LIG1        0.1660
     16 N          -2.8606   -0.3605    3.3534 N.1     1  LIG1       -0.1908
     17 C          -3.0232   -0.6576    2.2579 C.1     1  LIG1        0.1026
     18 C          -5.4581   -1.9316    1.1129 C.1     1  LIG1       -0.0662
     19 C          -6.4556   -2.2312    1.7114 C.1     1  LIG1       -0.1138
     20 H          -7.3441   -2.4980    2.2445 H       1  LIG1        0.1232
     21 C          -4.7487   -1.9361   -3.1316 C.ar    1  LIG1        0.0480
     22 C          -4.9155   -2.3037   -1.7839 C.ar    1  LIG1        0.0206
     23 C          -5.9108   -3.2288   -1.4635 C.ar    1  LIG1       -0.0489
     24 C          -6.6989   -3.7508   -2.4906 C.ar    1  LIG1       -0.0350
     25 C          -6.4558   -3.3211   -3.8081 C.ar    1  LIG1        0.0730
     26 N          -5.4999   -2.4296   -4.1351 N.ar    1  LIG1       -0.2512
     27 H          -6.0713   -3.5394   -0.4213 H       1  LIG1        0.0625
     28 C          -3.8354   -1.0784   -3.4796 C.3     1  LIG1       -0.0217
     29 H          -4.0845   -0.1139   -3.0891 H       1  LIG1        0.0293
     30 H          -3.7817   -1.0279   -4.5471 H       1  LIG1        0.0293
     31 H          -2.8884   -1.3876   -3.0891 H       1  LIG1        0.0293
     32 H          -7.6385   -4.6147   -2.2440 H       1  LIG1        0.0639
     33 C          -8.0542   -4.8490   -4.6012 C.ar    1  LIG1        0.0473
     34 C          -7.1631   -3.7783   -4.7984 C.ar    1  LIG1        0.0214
     35 C          -7.0594   -3.2239   -6.0755 C.ar    1  LIG1       -0.0494
     36 C          -7.8419   -3.7529   -7.1033 C.ar    1  LIG1       -0.0430
     37 C          -8.7038   -4.8248   -6.8074 C.ar    1  LIG1        0.0279
     38 N          -8.8165   -5.3717   -5.5812 N.ar    1  LIG1       -0.2595
     39 H          -6.3732   -2.3870   -6.2680 H       1  LIG1        0.0625
     40 H          -9.4523   -5.3513   -7.7307 H       1  LIG1        0.0829
     41 C          -8.1859   -5.3985   -3.4300 C.3     1  LIG1       -0.0217
     42 H          -7.2665   -5.3110   -2.8896 H       1  LIG1        0.0293
     43 H          -8.4337   -6.4328   -3.5471 H       1  LIG1        0.0293
     44 H          -8.9657   -4.9038   -2.8897 H       1  LIG1        0.0293
     45 H          -7.7816   -3.2718   -8.3095 H       1  LIG1        0.0633
@<TRIPOS>BOND
     1    45    36    1
     2    40    37    1
     3    36    37   ar
     4    36    35   ar
     5    37    38   ar
     6    39    35    1
     7    35    34   ar
     8    38    33   ar
     9    34    33   ar
    10    34    25    1
    11    33    41    1
    12    30    28    1
    13    26    25   ar
    14    26    21   ar
    15    25    24   ar
    16    43    41    1
    17    28    21    1
    18    28    31    1
    19    28    29    1
    20    41    44    1
    21    41    42    1
    22    21    22   ar
    23    24    32    1
    24    24    23   ar
    25    15    14    1
    26    22    23   ar
    27    22    13    1
    28    23    27    1
    29    14    13   ar
    30    14    10   ar
    31    13    12   ar
    32     2     8    1
    33     2     1   ar
    34     2     3   ar
    35     4    10    1
    36     4     5   ar
    37     4     3   ar
    38     6     5    1
    39    10    11   ar
    40     5     1   ar
    41     1     7    1
    42     3     9    1
    43    12    11   ar
    44    12    18    1
    45    11    17    1
    46    18    19    3
    47    19    20    1
    48    17    16    3
