@<TRIPOS>MOLECULE
mol_data/noopt/geoms/mol2/13aa13aa-13aa13aa-.out
 34 37 0 0 0
SMALL
GASTEIGER

@<TRIPOS>ATOM
      1 C           1.1215   -0.3259    0.0002 C.ar    1  LIG1        0.0022
      2 C           0.7176    0.9721   -0.0005 C.ar    1  LIG1       -0.0438
      3 C          -0.7144    0.9744    0.0003 C.ar    1  LIG1       -0.0350
      4 C          -1.1226   -0.3223   -0.0003 C.ar    1  LIG1        0.0629
      5 N          -0.0018   -1.1217    0.0001 N.ar    1  LIG1       -0.3595
      6 H          -0.0034   -2.1157   -0.0003 H       1  LIG1        0.1654
      7 H           2.3167   -0.8373    0.0007 H       1  LIG1        0.0807
      8 H           1.4918    2.0164   -0.0003 H       1  LIG1        0.0633
      9 H          -1.4853    2.0212    0.0010 H       1  LIG1        0.0639
     10 C          -2.3194   -0.8299   -0.0001 C.ar    1  LIG1        0.0633
     11 C          -2.7274   -2.1266   -0.0005 C.ar    1  LIG1       -0.0343
     12 C          -4.1594   -2.1244    0.0011 C.ar    1  LIG1       -0.0343
     13 C          -4.5635   -0.8264    0.0006 C.ar    1  LIG1        0.0634
     14 N          -3.4402   -0.0305    0.0003 N.ar    1  LIG1       -0.3519
     15 H          -3.4386    0.9635   -0.0001 H       1  LIG1        0.1660
     16 H          -1.9565   -3.1734   -0.0006 H       1  LIG1        0.0639
     17 H          -4.9336   -3.1687    0.0023 H       1  LIG1        0.0639
     18 C          -5.7587   -0.3150    0.0014 C.ar    1  LIG1        0.0634
     19 C          -6.1626    0.9830    0.0016 C.ar    1  LIG1       -0.0343
     20 C          -7.5946    0.9853    0.0038 C.ar    1  LIG1       -0.0343
     21 C          -8.0028   -0.3114    0.0030 C.ar    1  LIG1        0.0633
     22 N          -6.8820   -1.1108    0.0021 N.ar    1  LIG1       -0.3519
     23 H          -6.8836   -2.1048    0.0013 H       1  LIG1        0.1660
     24 H          -5.3884    2.0273    0.0015 H       1  LIG1        0.0639
     25 H          -8.3655    2.0321    0.0056 H       1  LIG1        0.0639
     26 C          -9.1996   -0.8190    0.0041 C.ar    1  LIG1        0.0629
     27 C          -9.6076   -2.1157    0.0044 C.ar    1  LIG1       -0.0350
     28 C         -11.0396   -2.1135    0.0069 C.ar    1  LIG1       -0.0438
     29 C         -11.4437   -0.8155    0.0063 C.ar    1  LIG1        0.0022
     30 N         -10.3204   -0.0196    0.0051 N.ar    1  LIG1       -0.3595
     31 H         -10.3188    0.9744    0.0043 H       1  LIG1        0.1654
     32 H         -12.6389   -0.3041    0.0077 H       1  LIG1        0.0807
     33 H          -8.8367   -3.1625    0.0040 H       1  LIG1        0.0639
     34 H         -11.8138   -3.1578    0.0089 H       1  LIG1        0.0633
@<TRIPOS>BOND
     1    16    11    1
     2     2     8    1
     3     2     1   ar
     4     2     3   ar
     5    11    10   ar
     6    11    12   ar
     7     4    10    1
     8     4     5   ar
     9     4     3   ar
    10     6     5    1
    11    15    14    1
    12    10    14   ar
    13     5     1   ar
    14     1     7    1
    15     3     9    1
    16    14    13   ar
    17    13    12   ar
    18    13    18    1
    19    12    17    1
    20    23    22    1
    21    18    19   ar
    22    18    22   ar
    23    24    19    1
    24    19    20   ar
    25    22    21   ar
    26    21    20   ar
    27    21    26    1
    28    20    25    1
    29    33    27    1
    30    26    27   ar
    31    26    30   ar
    32    31    30    1
    33    27    28   ar
    34    30    29   ar
    35    29    28   ar
    36    29    32    1
    37    28    34    1
