@<TRIPOS>MOLECULE
mol_data/noopt/geoms/mol2/13ad13ad-4ad13ad.out
 40 43 0 0 0
SMALL
GASTEIGER

@<TRIPOS>ATOM
      1 C           1.1215   -0.3259    0.0002 C.ar    1  LIG1        0.0035
      2 C           0.7176    0.9721   -0.0005 C.ar    1  LIG1       -0.0263
      3 C          -0.7144    0.9744    0.0003 C.ar    1  LIG1        0.0784
      4 C          -1.1226   -0.3223   -0.0003 C.ar    1  LIG1        0.0805
      5 N          -0.0018   -1.1217    0.0001 N.ar    1  LIG1       -0.3585
      6 H          -0.0034   -2.1157   -0.0003 H       1  LIG1        0.1654
      7 H           2.3167   -0.8373    0.0007 H       1  LIG1        0.0807
      8 H           1.4918    2.0164   -0.0003 H       1  LIG1        0.0645
      9 N          -2.1652    2.9444    0.0016 N.1     1  LIG1       -0.1908
     10 C          -1.4853    2.0212    0.0010 C.1     1  LIG1        0.1013
     11 C          -2.3194   -0.8299   -0.0001 C.ar    1  LIG1        0.0658
     12 C          -2.7274   -2.1266   -0.0005 C.ar    1  LIG1       -0.0169
     13 C          -4.1594   -2.1244    0.0011 C.ar    1  LIG1        0.0776
     14 C          -4.5635   -0.8264    0.0006 C.ar    1  LIG1        0.0646
     15 N          -3.4402   -0.0305    0.0003 N.ar    1  LIG1       -0.3520
     16 H          -3.4386    0.9635   -0.0001 H       1  LIG1        0.1660
     17 H          -1.9565   -3.1734   -0.0006 H       1  LIG1        0.0652
     18 N          -5.6165   -4.0898    0.0034 N.1     1  LIG1       -0.1908
     19 C          -4.9336   -3.1687    0.0023 C.1     1  LIG1        0.1013
     20 C          -5.9236    1.0852    0.0026 C.ar    1  LIG1       -0.0519
     21 C          -7.2385    1.5895    0.0050 C.ar    1  LIG1       -0.0508
     22 C          -5.7587   -0.3150    0.0014 C.ar    1  LIG1        0.0008
     23 C          -8.3419    0.7391    0.0056 C.ar    1  LIG1        0.0157
     24 H          -7.3885    2.6668    0.0062 H       1  LIG1        0.0625
     25 C          -6.8598   -1.1644    0.0020 C.ar    1  LIG1       -0.0346
     26 C          -8.1582   -0.6442    0.0040 C.ar    1  LIG1        0.0615
     27 H          -6.7065   -2.2406    0.0011 H       1  LIG1        0.0637
     28 H          -4.9343    1.9285    0.0020 H       1  LIG1        0.0624
     29 N         -10.0883   -2.1477    0.0052 N.1     1  LIG1       -0.1908
     30 C          -9.1838   -1.4431    0.0046 C.1     1  LIG1        0.0998
     31 C          -9.5420    1.2389    0.0077 C.ar    1  LIG1        0.0490
     32 C          -9.9585    2.5329    0.0088 C.ar    1  LIG1       -0.0190
     33 C         -11.3904    2.5213    0.0122 C.ar    1  LIG1        0.0696
     34 C         -11.7860    1.2207    0.0113 C.ar    1  LIG1        0.0196
     35 N         -10.6575    0.4322    0.0090 N.ar    1  LIG1       -0.3594
     36 H         -10.6495   -0.5617    0.0079 H       1  LIG1        0.1654
     37 H         -12.9778    0.7015    0.0134 H       1  LIG1        0.0820
     38 H          -9.1944    3.5847    0.0084 H       1  LIG1        0.0652
     39 N         -12.8602    4.4772    0.0178 N.1     1  LIG1       -0.1908
     40 C         -12.1714    3.5606    0.0152 C.1     1  LIG1        0.1007
@<TRIPOS>BOND
     1    17    12    1
     2     2     8    1
     3     2     1   ar
     4     2     3   ar
     5    12    11   ar
     6    12    13   ar
     7     4    11    1
     8     4     5   ar
     9     4     3   ar
    10     6     5    1
    11    16    15    1
    12    11    15   ar
    13     5     1   ar
    14     1     7    1
    15     3    10    1
    16    15    14   ar
    17    14    13   ar
    18    14    22    1
    19    10     9    3
    20    13    19    1
    21    27    25    1
    22    22    25   ar
    23    22    20   ar
    24    28    20    1
    25    25    26   ar
    26    19    18    3
    27    20    21   ar
    28    26    30    1
    29    26    23   ar
    30    30    29    3
    31    21    23   ar
    32    21    24    1
    33    23    31    1
    34    31    32   ar
    35    31    35   ar
    36    36    35    1
    37    38    32    1
    38    32    33   ar
    39    35    34   ar
    40    34    33   ar
    41    34    37    1
    42    33    40    1
    43    40    39    3
