@<TRIPOS>MOLECULE
mol_data/noopt/geoms/mol2/13ad13ad.out
 20 21 0 0 0
SMALL
GASTEIGER

@<TRIPOS>ATOM
      1 C           1.1215   -0.3259    0.0002 C.ar    1  LIG1        0.0035
      2 C           0.7176    0.9721   -0.0005 C.ar    1  LIG1       -0.0263
      3 C          -0.7144    0.9744    0.0003 C.ar    1  LIG1        0.0784
      4 C          -1.1226   -0.3223   -0.0003 C.ar    1  LIG1        0.0805
      5 N          -0.0018   -1.1217    0.0001 N.ar    1  LIG1       -0.3585
      6 H          -0.0034   -2.1157   -0.0003 H       1  LIG1        0.1654
      7 H           2.3167   -0.8373    0.0007 H       1  LIG1        0.0807
      8 H           1.4918    2.0164   -0.0003 H       1  LIG1        0.0645
      9 N          -2.1652    2.9444    0.0016 N.1     1  LIG1       -0.1908
     10 C          -1.4853    2.0212    0.0010 C.1     1  LIG1        0.1013
     11 C          -2.3194   -0.8299   -0.0001 C.ar    1  LIG1        0.0654
     12 C          -3.5353   -0.2219   -0.0003 C.ar    1  LIG1       -0.0175
     13 C          -4.5290   -1.2530    0.0012 C.ar    1  LIG1        0.0696
     14 C          -3.8767   -2.4457    0.0005 C.ar    1  LIG1        0.0197
     15 N          -2.5238   -2.1913    0.0002 N.ar    1  LIG1       -0.3583
     16 H          -1.8081   -2.8811   -0.0004 H       1  LIG1        0.1654
     17 H          -4.3398   -3.6604    0.0012 H       1  LIG1        0.0820
     18 H          -3.7520    1.0599   -0.0003 H       1  LIG1        0.0652
     19 N          -6.9548   -0.9344    0.0036 N.1     1  LIG1       -0.1908
     20 C          -5.8179   -1.0837    0.0025 C.1     1  LIG1        0.1007
@<TRIPOS>BOND
     1     2     8    1
     2     2     1   ar
     3     2     3   ar
     4    16    15    1
     5    12    18    1
     6    12    11   ar
     7    12    13   ar
     8     4    11    1
     9     4     5   ar
    10     4     3   ar
    11     6     5    1
    12    11    15   ar
    13     5     1   ar
    14    15    14   ar
    15     1     7    1
    16     3    10    1
    17    14    13   ar
    18    14    17    1
    19    10     9    3
    20    13    20    1
    21    20    19    3
