@<TRIPOS>MOLECULE
mol_data/noopt/geoms/mol2/13ad13ie(70)4aa(80)12ei(280).out
 46 49 0 0 0
SMALL
GASTEIGER

@<TRIPOS>ATOM
      1 C           1.1215   -0.3259    0.0002 C.ar    1  LIG1        0.0035
      2 C           0.7176    0.9721   -0.0005 C.ar    1  LIG1       -0.0263
      3 C          -0.7144    0.9744    0.0003 C.ar    1  LIG1        0.0784
      4 C          -1.1226   -0.3223   -0.0003 C.ar    1  LIG1        0.0807
      5 N          -0.0018   -1.1217    0.0001 N.ar    1  LIG1       -0.3585
      6 H          -0.0034   -2.1157   -0.0003 H       1  LIG1        0.1654
      7 H           2.3167   -0.8373    0.0007 H       1  LIG1        0.0807
      8 H           1.4918    2.0164   -0.0003 H       1  LIG1        0.0645
      9 N          -2.1652    2.9444    0.0016 N.1     1  LIG1       -0.1908
     10 C          -1.4853    2.0212    0.0010 C.1     1  LIG1        0.1013
     11 C          -2.3194   -0.8299   -0.0001 C.ar    1  LIG1        0.0687
     12 C          -3.2800   -0.8235    0.9618 C.ar    1  LIG1       -0.0077
     13 C          -4.4118   -1.5291    0.4406 C.ar    1  LIG1        0.0534
     14 C          -4.0938   -1.9343   -0.8174 C.ar    1  LIG1        0.0628
     15 N          -2.8134   -1.5087   -1.0911 N.ar    1  LIG1       -0.3518
     16 H          -2.3237   -1.6660   -1.9417 H       1  LIG1        0.1660
     17 C          -3.1844   -0.2774    2.1380 C.3     1  LIG1       -0.0365
     18 H          -4.0974   -0.4264    2.6757 H       1  LIG1        0.0279
     19 H          -3.0009    0.7714    2.0305 H       1  LIG1        0.0279
     20 H          -2.3762   -0.7276    2.6756 H       1  LIG1        0.0279
     21 C          -5.5376   -1.7443    1.0541 C.1     1  LIG1       -0.0673
     22 C          -6.5778   -1.9431    1.6209 C.1     1  LIG1       -0.1138
     23 H          -7.5044   -2.1202    2.1259 H       1  LIG1        0.1232
     24 C          -5.8910   -3.3740   -1.2661 C.ar    1  LIG1       -0.0519
     25 C          -6.6098   -4.0823   -2.2483 C.ar    1  LIG1       -0.0504
     26 C          -4.7881   -2.6041   -1.6888 C.ar    1  LIG1       -0.0005
     27 C          -6.2486   -4.0275   -3.5926 C.ar    1  LIG1        0.0185
     28 H          -7.4642   -4.6828   -1.9439 H       1  LIG1        0.0625
     29 C          -4.4271   -2.5490   -3.0307 C.ar    1  LIG1       -0.0519
     30 C          -5.1540   -3.2595   -3.9916 C.ar    1  LIG1       -0.0504
     31 H          -3.5726   -1.9482   -3.3315 H       1  LIG1        0.0624
     32 H          -6.2762   -3.4641   -0.0278 H       1  LIG1        0.0624
     33 H          -4.8118   -3.2043   -5.2445 H       1  LIG1        0.0625
     34 C          -6.9346   -4.6941   -4.4730 C.ar    1  LIG1        0.1503
     35 C          -7.1260   -4.6138   -5.8368 C.ar    1  LIG1        0.0732
     36 C          -8.0319   -5.6861   -6.1924 C.ar    1  LIG1        0.0033
     37 C          -8.3341   -6.3509   -5.0217 C.ar    1  LIG1        0.0967
     38 O          -7.6695   -5.7579   -3.9477 O.2     1  LIG1       -0.4614
     39 H          -9.0729   -7.3710   -4.7001 H       1  LIG1        0.1032
     40 C          -6.6078   -3.7550   -6.6638 C.1     1  LIG1       -0.0656
     41 C          -6.1289   -2.9615   -7.4279 C.1     1  LIG1       -0.1138
     42 H          -5.7024   -2.2546   -8.1086 H       1  LIG1        0.1232
     43 C          -8.4613   -5.9492   -7.3912 C.3     1  LIG1       -0.0355
     44 H          -8.5193   -7.0092   -7.5247 H       1  LIG1        0.0279
     45 H          -7.7859   -5.5355   -8.1108 H       1  LIG1        0.0279
     46 H          -9.4320   -5.5192   -7.5247 H       1  LIG1        0.0279
@<TRIPOS>BOND
     1    45    43    1
     2    42    41    1
     3    44    43    1
     4    46    43    1
     5    41    40    3
     6    43    36    1
     7    40    35    1
     8    36    35   ar
     9    36    37   ar
    10    35    34   ar
    11    33    30    1
    12    37    39    1
    13    37    38   ar
    14    34    38   ar
    15    34    27    1
    16    30    27   ar
    17    30    29   ar
    18    27    25   ar
    19    31    29    1
    20    29    26   ar
    21    25    28    1
    22    25    24   ar
    23    16    15    1
    24    26    24   ar
    25    26    14    1
    26    24    32    1
    27    15    14   ar
    28    15    11   ar
    29    14    13   ar
    30     2     8    1
    31     2     1   ar
    32     2     3   ar
    33     4    11    1
    34     4     5   ar
    35     4     3   ar
    36     6     5    1
    37    11    12   ar
    38     5     1   ar
    39     1     7    1
    40     3    10    1
    41    10     9    3
    42    13    12   ar
    43    13    21    1
    44    12    17    1
    45    21    22    3
    46    22    23    1
    47    19    17    1
    48    17    20    1
    49    17    18    1
