@<TRIPOS>MOLECULE
mol_data/noopt/geoms/mol2/13ad13ad13ad-13ad-.out
 38 41 0 0 0
SMALL
GASTEIGER

@<TRIPOS>ATOM
      1 C           1.1215   -0.3259    0.0002 C.ar    1  LIG1        0.0035
      2 C           0.7176    0.9721   -0.0005 C.ar    1  LIG1       -0.0263
      3 C          -0.7144    0.9744    0.0003 C.ar    1  LIG1        0.0784
      4 C          -1.1226   -0.3223   -0.0003 C.ar    1  LIG1        0.0805
      5 N          -0.0018   -1.1217    0.0001 N.ar    1  LIG1       -0.3585
      6 H          -0.0034   -2.1157   -0.0003 H       1  LIG1        0.1654
      7 H           2.3167   -0.8373    0.0007 H       1  LIG1        0.0807
      8 H           1.4918    2.0164   -0.0003 H       1  LIG1        0.0645
      9 N          -2.1652    2.9444    0.0016 N.1     1  LIG1       -0.1908
     10 C          -1.4853    2.0212    0.0010 C.1     1  LIG1        0.1013
     11 C          -2.3194   -0.8299   -0.0001 C.ar    1  LIG1        0.0659
     12 C          -3.5353   -0.2219   -0.0003 C.ar    1  LIG1       -0.0169
     13 C          -4.5290   -1.2530    0.0012 C.ar    1  LIG1        0.0790
     14 C          -3.8767   -2.4457    0.0005 C.ar    1  LIG1        0.0810
     15 N          -2.5238   -2.1913    0.0002 N.ar    1  LIG1       -0.3508
     16 H          -1.8081   -2.8811   -0.0004 H       1  LIG1        0.1660
     17 H          -3.7520    1.0599   -0.0003 H       1  LIG1        0.0652
     18 N          -6.9548   -0.9344    0.0036 N.1     1  LIG1       -0.1908
     19 C          -5.8179   -1.0837    0.0025 C.1     1  LIG1        0.1013
     20 C          -4.3398   -3.6604    0.0012 C.ar    1  LIG1        0.0659
     21 C          -3.6874   -4.8530    0.0012 C.ar    1  LIG1       -0.0169
     22 C          -4.6811   -5.8841    0.0032 C.ar    1  LIG1        0.0790
     23 C          -5.8970   -5.2763    0.0027 C.ar    1  LIG1        0.0810
     24 N          -5.6927   -3.9149    0.0019 N.ar    1  LIG1       -0.3508
     25 H          -6.4084   -3.2251    0.0013 H       1  LIG1        0.1660
     26 H          -2.3984   -5.0223    0.0009 H       1  LIG1        0.0652
     27 N          -4.2732   -8.2965    0.0063 N.1     1  LIG1       -0.1908
     28 C          -4.4643   -7.1660    0.0049 C.1     1  LIG1        0.1013
     29 C          -7.0939   -5.7839    0.0038 C.ar    1  LIG1        0.0654
     30 C          -7.5019   -7.0806    0.0041 C.ar    1  LIG1       -0.0175
     31 C          -8.9339   -7.0784    0.0067 C.ar    1  LIG1        0.0696
     32 C          -9.3380   -5.7804    0.0061 C.ar    1  LIG1        0.0197
     33 N          -8.2146   -4.9846    0.0048 N.ar    1  LIG1       -0.3583
     34 H          -8.2131   -3.9906    0.0040 H       1  LIG1        0.1654
     35 H         -10.5331   -5.2690    0.0075 H       1  LIG1        0.0820
     36 H          -6.7310   -8.1274    0.0038 H       1  LIG1        0.0652
     37 N         -10.3909   -9.0438    0.0105 N.1     1  LIG1       -0.1908
     38 C          -9.7081   -8.1227    0.0087 C.1     1  LIG1        0.1007
@<TRIPOS>BOND
     1     2     8    1
     2     2     1   ar
     3     2     3   ar
     4    16    15    1
     5    12    17    1
     6    12    11   ar
     7    12    13   ar
     8     4    11    1
     9     4     5   ar
    10     4     3   ar
    11     6     5    1
    12    11    15   ar
    13     5     1   ar
    14    15    14   ar
    15     1     7    1
    16     3    10    1
    17    14    13   ar
    18    14    20    1
    19    26    21    1
    20    10     9    3
    21    21    20   ar
    22    21    22   ar
    23    13    19    1
    24    20    24   ar
    25    25    24    1
    26    24    23   ar
    27    19    18    3
    28    23    22   ar
    29    23    29    1
    30    22    28    1
    31    36    30    1
    32    29    30   ar
    33    29    33   ar
    34    34    33    1
    35    30    31   ar
    36    33    32   ar
    37    28    27    3
    38    32    31   ar
    39    32    35    1
    40    31    38    1
    41    38    37    3
