@<TRIPOS>MOLECULE
mol_data/noopt/geoms/mol2/13ad6aa(310)13al(200)13di(60).out
 44 47 0 0 0
SMALL
GASTEIGER

@<TRIPOS>ATOM
      1 C           1.1215   -0.3259    0.0002 C.ar    1  LIG1        0.0034
      2 C           0.7176    0.9721   -0.0005 C.ar    1  LIG1       -0.0264
      3 C          -0.7144    0.9744    0.0003 C.ar    1  LIG1        0.0770
      4 C          -1.1226   -0.3223   -0.0003 C.ar    1  LIG1        0.0655
      5 N          -0.0018   -1.1217    0.0001 N.ar    1  LIG1       -0.3596
      6 H          -0.0034   -2.1157   -0.0003 H       1  LIG1        0.1654
      7 H           2.3167   -0.8373    0.0007 H       1  LIG1        0.0807
      8 H           1.4918    2.0164   -0.0003 H       1  LIG1        0.0645
      9 N          -2.1652    2.9444    0.0016 N.1     1  LIG1       -0.1908
     10 C          -1.4853    2.0212    0.0010 C.1     1  LIG1        0.1013
     11 C          -2.6692   -1.8262    0.9297 C.ar    1  LIG1        0.0374
     12 C          -2.3194   -0.8299   -0.0001 C.ar    1  LIG1        0.0177
     13 C          -3.2838   -0.4038   -0.9152 C.ar    1  LIG1       -0.0491
     14 C          -4.5536   -0.9820   -0.8713 C.ar    1  LIG1       -0.0336
     15 C          -4.8077   -1.9719    0.0957 C.ar    1  LIG1        0.0872
     16 N          -3.8891   -2.3947    0.9861 N.ar    1  LIG1       -0.2529
     17 H          -3.0470    0.3719   -1.6571 H       1  LIG1        0.0625
     18 H          -1.8057   -2.2555    1.8016 H       1  LIG1        0.0836
     19 H          -5.4860   -0.6199   -1.7017 H       1  LIG1        0.0640
     20 C          -5.9744   -2.5398    0.1762 C.ar    1  LIG1        0.0690
     21 C          -6.3548   -3.8160   -0.0965 C.ar    1  LIG1        0.0076
     22 C          -7.7603   -3.9077    0.1616 C.ar    1  LIG1        0.1474
     23 C          -8.1767   -2.6840    0.5824 C.ar    1  LIG1        0.1068
     24 N          -7.0865   -1.8433    0.5924 N.ar    1  LIG1       -0.3489
     25 H          -7.1002   -0.8857    0.8585 H       1  LIG1        0.1661
     26 H          -5.5822   -4.7738   -0.5159 H       1  LIG1        0.0676
     27 O          -8.5043   -4.9646    0.0211 O.3     1  LIG1       -0.4929
     28 C          -9.8797   -4.5766   -0.0305 C.3     1  LIG1        0.0789
     29 H         -10.4916   -5.4467   -0.1463 H       1  LIG1        0.0660
     30 H         -10.1428   -4.0738    0.8766 H       1  LIG1        0.0660
     31 H         -10.0339   -3.9191   -0.8604 H       1  LIG1        0.0660
     32 C          -9.3575   -2.2698    0.9346 C.ar    1  LIG1        0.0843
     33 C          -9.7525   -1.5481    2.0168 C.ar    1  LIG1        0.0814
     34 C         -11.1697   -1.3683    1.9169 C.ar    1  LIG1       -0.0151
     35 C         -11.5781   -1.9866    0.7772 C.ar    1  LIG1        0.0064
     36 N         -10.4719   -2.5402    0.1730 N.ar    1  LIG1       -0.3581
     37 H         -10.4769   -3.0532   -0.6784 H       1  LIG1        0.1654
     38 H         -12.7643   -2.0992    0.2572 H       1  LIG1        0.0810
     39 N          -8.3038   -0.7154    3.8039 N.1     1  LIG1       -0.1908
     40 C          -8.9827   -1.1057    2.9664 C.1     1  LIG1        0.1016
     41 C         -11.9291   -0.7316    2.7587 C.3     1  LIG1       -0.0371
     42 H         -12.4486   -1.4361    3.3740 H       1  LIG1        0.0278
     43 H         -12.6379   -0.1373    2.2206 H       1  LIG1        0.0278
     44 H         -11.3258   -0.0972    3.3739 H       1  LIG1        0.0278
@<TRIPOS>BOND
     1    19    14    1
     2    17    13    1
     3    13    14   ar
     4    13    12   ar
     5    14    15   ar
     6    31    28    1
     7    37    36    1
     8    26    21    1
     9    29    28    1
    10    21    22   ar
    11    21    20   ar
    12    28    27    1
    13    28    30    1
    14     2     8    1
    15     2     1   ar
    16     2     3   ar
    17     6     5    1
    18     4    12    1
    19     4     5   ar
    20     4     3   ar
    21    12    11   ar
    22     5     1   ar
    23     1     7    1
    24     3    10    1
    25    10     9    3
    26    27    22    1
    27    15    20    1
    28    15    16   ar
    29    22    23   ar
    30    36    35   ar
    31    36    32   ar
    32    20    24   ar
    33    38    35    1
    34    23    24   ar
    35    23    32    1
    36    24    25    1
    37    35    34   ar
    38    11    16   ar
    39    11    18    1
    40    32    33   ar
    41    34    33   ar
    42    34    41    1
    43    33    40    1
    44    43    41    1
    45    41    44    1
    46    41    42    1
    47    40    39    3
