@<TRIPOS>MOLECULE
mol_data/noopt/geoms/mol2/13ad6lf(80)13le(140)6ll(220).out
 56 59 0 0 0
SMALL
GASTEIGER

@<TRIPOS>ATOM
      1 C           1.1215   -0.3259    0.0002 C.ar    1  LIG1        0.0034
      2 C           0.7176    0.9721   -0.0005 C.ar    1  LIG1       -0.0264
      3 C          -0.7144    0.9744    0.0003 C.ar    1  LIG1        0.0771
      4 C          -1.1226   -0.3223   -0.0003 C.ar    1  LIG1        0.0693
      5 N          -0.0018   -1.1217    0.0001 N.ar    1  LIG1       -0.3595
      6 H          -0.0034   -2.1157   -0.0003 H       1  LIG1        0.1654
      7 H           2.3167   -0.8373    0.0007 H       1  LIG1        0.0807
      8 H           1.4918    2.0164   -0.0003 H       1  LIG1        0.0645
      9 N          -2.1652    2.9444    0.0016 N.1     1  LIG1       -0.1908
     10 C          -1.4853    2.0212    0.0010 C.1     1  LIG1        0.1013
     11 C          -2.8918   -1.3020   -1.1954 C.ar    1  LIG1        0.2247
     12 C          -2.3194   -0.8299   -0.0001 C.ar    1  LIG1        0.0645
     13 C          -3.0644   -0.9204    1.1771 C.ar    1  LIG1       -0.0037
     14 C          -4.3445   -1.4742    1.1213 C.ar    1  LIG1        0.1451
     15 C          -4.8303   -1.9186   -0.1221 C.ar    1  LIG1        0.1358
     16 N          -4.1252   -1.8391   -1.2674 N.ar    1  LIG1       -0.2070
     17 H          -2.6507   -0.5610    2.1300 H       1  LIG1        0.0663
     18 O          -2.2374   -1.2394   -2.3170 O.3     1  LIG1       -0.4792
     19 C          -1.8688   -2.5583   -2.7288 C.3     1  LIG1        0.0804
     20 H          -1.3303   -2.5063   -3.6520 H       1  LIG1        0.0660
     21 H          -1.2497   -3.0060   -1.9795 H       1  LIG1        0.0660
     22 H          -2.7504   -3.1496   -2.8629 H       1  LIG1        0.0660
     23 O          -5.0780   -1.5805    2.1894 O.3     1  LIG1       -0.5045
     24 H          -5.1290   -2.5023    2.4527 H       1  LIG1        0.2922
     25 C          -6.0161   -2.4415   -0.2250 C.ar    1  LIG1        0.1126
     26 C          -6.5361   -3.5654    0.3358 C.ar    1  LIG1        0.1628
     27 C          -7.8917   -3.6786   -0.1115 C.ar    1  LIG1        0.0923
     28 C          -8.1411   -2.6180   -0.9245 C.ar    1  LIG1        0.0714
     29 N          -6.9953   -1.8583   -0.9971 N.ar    1  LIG1       -0.3488
     30 H          -6.8917   -1.0212   -1.5230 H       1  LIG1        0.1661
     31 O          -5.9136   -4.3849    1.1301 O.3     1  LIG1       -0.4917
     32 C          -6.7585   -5.5012    1.4217 C.3     1  LIG1        0.0789
     33 H          -6.2458   -6.1755    2.0753 H       1  LIG1        0.0660
     34 H          -7.6538   -5.1566    1.8957 H       1  LIG1        0.0660
     35 H          -7.0082   -6.0066    0.5123 H       1  LIG1        0.0660
     36 C          -8.7321   -4.6201    0.2006 C.1     1  LIG1       -0.0638
     37 C          -9.5086   -5.4901    0.4889 C.1     1  LIG1       -0.1137
     38 H         -10.2003   -6.2650    0.7457 H       1  LIG1        0.1232
     39 C          -9.9034   -1.0974   -1.2413 C.ar    1  LIG1        0.2241
     40 C          -9.2203   -2.2834   -1.5674 C.ar    1  LIG1        0.0646
     41 C          -9.7277   -3.0849   -2.5916 C.ar    1  LIG1       -0.0042
     42 C         -10.8898   -2.6788   -3.2497 C.ar    1  LIG1        0.1390
     43 C         -11.5016   -1.4760   -2.8515 C.ar    1  LIG1        0.0730
     44 N         -11.0256   -0.6905   -1.8657 N.ar    1  LIG1       -0.2171
     45 H          -9.2217   -4.0192   -2.8737 H       1  LIG1        0.0663
     46 H         -12.5851   -1.0559   -3.4339 H       1  LIG1        0.0868
     47 O          -9.4699   -0.3182   -0.2953 O.3     1  LIG1       -0.4792
     48 C          -8.1327   -0.6874    0.0520 C.3     1  LIG1        0.0804
     49 H          -7.7763   -0.0457    0.8305 H       1  LIG1        0.0660
     50 H          -8.1197   -1.7019    0.3920 H       1  LIG1        0.0660
     51 H          -7.5016   -0.5909   -0.8067 H       1  LIG1        0.0660
     52 O         -11.4020   -3.3902   -4.2098 O.3     1  LIG1       -0.4936
     53 C         -12.6840   -2.8636   -4.5623 C.3     1  LIG1        0.0789
     54 H         -13.1051   -3.4492   -5.3526 H       1  LIG1        0.0660
     55 H         -13.3301   -2.8974   -3.7100 H       1  LIG1        0.0660
     56 H         -12.5760   -1.8501   -4.8880 H       1  LIG1        0.0660
@<TRIPOS>BOND
     1    54    53    1
     2    56    53    1
     3    53    52    1
     4    53    55    1
     5    52    42    1
     6    20    19    1
     7    46    43    1
     8    42    43   ar
     9    42    41   ar
    10    45    41    1
    11    22    19    1
    12    43    44   ar
    13    19    18    1
    14    19    21    1
    15    41    40   ar
    16    18    11    1
    17    44    39   ar
    18    40    39   ar
    19    40    28    1
    20    30    29    1
    21    16    11   ar
    22    16    15   ar
    23    39    47    1
    24    11    12   ar
    25    29    28   ar
    26    29    25   ar
    27    28    27   ar
    28    51    48    1
    29    47    48    1
    30    25    15    1
    31    25    26   ar
    32    15    14   ar
    33    27    36    1
    34    27    26   ar
    35     2     8    1
    36     2     1   ar
    37     2     3   ar
    38     4    12    1
    39     4     5   ar
    40     4     3   ar
    41     6     5    1
    42    12    13   ar
    43     5     1   ar
    44     1     7    1
    45     3    10    1
    46    10     9    3
    47    48    50    1
    48    48    49    1
    49    36    37    3
    50    26    31    1
    51    37    38    1
    52    35    32    1
    53    14    13   ar
    54    14    23    1
    55    31    32    1
    56    13    17    1
    57    32    34    1
    58    32    33    1
    59    23    24    1
