@<TRIPOS>MOLECULE
mol_data/noopt/geoms/mol2/13ad13ad-13ad.out
 29 31 0 0 0
SMALL
GASTEIGER

@<TRIPOS>ATOM
      1 C           1.1215   -0.3259    0.0002 C.ar    1  LIG1        0.0035
      2 C           0.7176    0.9721   -0.0005 C.ar    1  LIG1       -0.0263
      3 C          -0.7144    0.9744    0.0003 C.ar    1  LIG1        0.0784
      4 C          -1.1226   -0.3223   -0.0003 C.ar    1  LIG1        0.0805
      5 N          -0.0018   -1.1217    0.0001 N.ar    1  LIG1       -0.3585
      6 H          -0.0034   -2.1157   -0.0003 H       1  LIG1        0.1654
      7 H           2.3167   -0.8373    0.0007 H       1  LIG1        0.0807
      8 H           1.4918    2.0164   -0.0003 H       1  LIG1        0.0645
      9 N          -2.1652    2.9444    0.0016 N.1     1  LIG1       -0.1908
     10 C          -1.4853    2.0212    0.0010 C.1     1  LIG1        0.1013
     11 C          -2.3194   -0.8299   -0.0001 C.ar    1  LIG1        0.0659
     12 C          -2.7274   -2.1266   -0.0005 C.ar    1  LIG1       -0.0169
     13 C          -4.1594   -2.1244    0.0011 C.ar    1  LIG1        0.0790
     14 C          -4.5635   -0.8264    0.0006 C.ar    1  LIG1        0.0810
     15 N          -3.4402   -0.0305    0.0003 N.ar    1  LIG1       -0.3508
     16 H          -3.4386    0.9635   -0.0001 H       1  LIG1        0.1660
     17 H          -1.9565   -3.1734   -0.0006 H       1  LIG1        0.0652
     18 N          -5.6165   -4.0898    0.0034 N.1     1  LIG1       -0.1908
     19 C          -4.9336   -3.1687    0.0023 C.1     1  LIG1        0.1013
     20 C          -5.7587   -0.3150    0.0014 C.ar    1  LIG1        0.0654
     21 C          -6.1626    0.9830    0.0016 C.ar    1  LIG1       -0.0175
     22 C          -7.5946    0.9853    0.0038 C.ar    1  LIG1        0.0696
     23 C          -8.0028   -0.3114    0.0030 C.ar    1  LIG1        0.0197
     24 N          -6.8820   -1.1108    0.0021 N.ar    1  LIG1       -0.3583
     25 H          -6.8836   -2.1048    0.0013 H       1  LIG1        0.1654
     26 H          -9.1996   -0.8190    0.0041 H       1  LIG1        0.0820
     27 H          -5.3884    2.0273    0.0015 H       1  LIG1        0.0652
     28 N          -9.0454    2.9553    0.0072 N.1     1  LIG1       -0.1908
     29 C          -8.3655    2.0321    0.0056 C.1     1  LIG1        0.1007
@<TRIPOS>BOND
     1    17    12    1
     2     2     8    1
     3     2     1   ar
     4     2     3   ar
     5    12    11   ar
     6    12    13   ar
     7     4    11    1
     8     4     5   ar
     9     4     3   ar
    10     6     5    1
    11    16    15    1
    12    11    15   ar
    13     5     1   ar
    14     1     7    1
    15     3    10    1
    16    15    14   ar
    17    14    13   ar
    18    14    20    1
    19    10     9    3
    20    13    19    1
    21    25    24    1
    22    20    21   ar
    23    20    24   ar
    24    27    21    1
    25    21    22   ar
    26    24    23   ar
    27    19    18    3
    28    23    22   ar
    29    23    26    1
    30    22    29    1
    31    29    28    3
