@<TRIPOS>MOLECULE
mol_data/noopt/geoms/mol2/13ad12hh12ih12ea.out
 43 46 0 0 0
SMALL
GASTEIGER

@<TRIPOS>ATOM
      1 C           1.1215   -0.3259    0.0002 C.ar    1  LIG1        0.0035
      2 C           0.7176    0.9721   -0.0005 C.ar    1  LIG1       -0.0263
      3 C          -0.7144    0.9744    0.0003 C.ar    1  LIG1        0.0800
      4 C          -1.1226   -0.3223   -0.0003 C.ar    1  LIG1        0.1016
      5 N          -0.0018   -1.1217    0.0001 N.ar    1  LIG1       -0.3572
      6 H          -0.0034   -2.1157   -0.0003 H       1  LIG1        0.1655
      7 H           2.3167   -0.8373    0.0007 H       1  LIG1        0.0807
      8 H           1.4918    2.0164   -0.0003 H       1  LIG1        0.0645
      9 N          -2.1652    2.9444    0.0016 N.1     1  LIG1       -0.1908
     10 C          -1.4853    2.0212    0.0010 C.1     1  LIG1        0.1014
     11 C          -2.3194   -0.8299   -0.0001 C.ar    1  LIG1        0.1755
     12 C          -3.6024   -0.3233    0.0148 C.ar    1  LIG1        0.0942
     13 C          -4.4979   -1.4613    0.0044 C.ar    1  LIG1        0.0958
     14 C          -3.7022   -2.5883   -0.0164 C.ar    1  LIG1        0.1933
     15 O          -2.3551   -2.2249   -0.0196 O.2     1  LIG1       -0.4464
     16 N          -3.9648    0.9250    0.0347 N.pl3   1  LIG1       -0.3535
     17 H          -3.2756    1.4796   -0.4316 H       1  LIG1        0.1425
     18 H          -4.8438    1.0244   -0.4317 H       1  LIG1        0.1425
     19 N          -5.7966   -1.4036    0.0131 N.pl3   1  LIG1       -0.3535
     20 H          -6.0965   -0.5730   -0.4560 H       1  LIG1        0.1425
     21 H          -6.1690   -2.2043   -0.4561 H       1  LIG1        0.1425
     22 C          -3.9133   -3.8709   -0.0331 C.ar    1  LIG1        0.1773
     23 C          -5.0275   -4.6841   -0.0457 C.ar    1  LIG1        0.0199
     24 C          -4.5447   -6.0492   -0.0620 C.ar    1  LIG1        0.0778
     25 C          -3.1667   -5.9796   -0.0583 C.ar    1  LIG1        0.1927
     26 O          -2.7534   -4.6471   -0.0407 O.2     1  LIG1       -0.4463
     27 C          -6.2766   -4.3227   -0.0436 C.3     1  LIG1       -0.0342
     28 H          -6.8613   -5.0630    0.4614 H       1  LIG1        0.0279
     29 H          -6.6208   -4.2232   -1.0519 H       1  LIG1        0.0279
     30 H          -6.3756   -3.3845    0.4613 H       1  LIG1        0.0279
     31 N          -5.2880   -7.1157   -0.0771 N.pl3   1  LIG1       -0.3547
     32 H          -6.1453   -6.9177   -0.5523 H       1  LIG1        0.1424
     33 H          -4.8056   -7.8515   -0.5523 H       1  LIG1        0.1424
     34 C          -2.1956   -6.8438   -0.0673 C.ar    1  LIG1        0.1868
     35 C          -2.1040   -8.2202   -0.0592 C.ar    1  LIG1        0.0735
     36 C          -0.6923   -8.5422   -0.0786 C.ar    1  LIG1       -0.0077
     37 C          -0.0146   -7.3405   -0.0973 C.ar    1  LIG1        0.0939
     38 O          -0.9198   -6.2787   -0.0909 O.2     1  LIG1       -0.4585
     39 H           1.2348   -6.9820   -0.1189 H       1  LIG1        0.1030
     40 C          -3.0769   -9.0823   -0.0383 C.1     1  LIG1       -0.0658
     41 C          -3.9758   -9.8788   -0.0190 C.1     1  LIG1       -0.1138
     42 H          -4.7765  -10.5884   -0.0018 H       1  LIG1        0.1232
     43 H          -0.1884   -9.7405   -0.0781 H       1  LIG1        0.0661
@<TRIPOS>BOND
     1    29    27    1
     2    33    31    1
     3    32    31    1
     4    21    19    1
     5    20    19    1
     6    18    16    1
     7    17    16    1
     8    39    37    1
     9    37    38   ar
    10    37    36   ar
    11    38    34   ar
    12    36    43    1
    13    36    35   ar
    14    31    24    1
    15    34    35   ar
    16    34    25    1
    17    24    25   ar
    18    24    23   ar
    19    35    40    1
    20    25    26   ar
    21    23    27    1
    22    23    22   ar
    23    27    30    1
    24    27    28    1
    25    26    22   ar
    26    40    41    3
    27    22    14    1
    28    15    14   ar
    29    15    11   ar
    30    41    42    1
    31    14    13   ar
    32     2     8    1
    33     2     1   ar
    34     2     3   ar
    35     4    11    1
    36     4     5   ar
    37     4     3   ar
    38     6     5    1
    39    11    12   ar
    40     5     1   ar
    41     1     7    1
    42     3    10    1
    43    10     9    3
    44    13    19    1
    45    13    12   ar
    46    12    16    1
