@<TRIPOS>MOLECULE
mol_data/noopt/geoms/mol2/13ae13ae-13ae.out
 32 34 0 0 0
SMALL
GASTEIGER

@<TRIPOS>ATOM
      1 C           1.1215   -0.3259    0.0002 C.ar    1  LIG1        0.0034
      2 C           0.7176    0.9721   -0.0005 C.ar    1  LIG1       -0.0283
      3 C          -0.7144    0.9744    0.0003 C.ar    1  LIG1        0.0513
      4 C          -1.1226   -0.3223   -0.0003 C.ar    1  LIG1        0.0785
      5 N          -0.0018   -1.1217    0.0001 N.ar    1  LIG1       -0.3585
      6 H          -0.0034   -2.1157   -0.0003 H       1  LIG1        0.1654
      7 H           2.3167   -0.8373    0.0007 H       1  LIG1        0.0807
      8 H           1.4918    2.0164   -0.0003 H       1  LIG1        0.0645
      9 C          -1.4853    2.0212    0.0010 C.1     1  LIG1       -0.0675
     10 C          -2.1976    2.9884    0.0016 C.1     1  LIG1       -0.1138
     11 H          -2.8321    3.8500    0.0022 H       1  LIG1        0.1232
     12 C          -2.3194   -0.8299   -0.0001 C.ar    1  LIG1        0.0657
     13 C          -2.7274   -2.1266   -0.0005 C.ar    1  LIG1       -0.0189
     14 C          -4.1594   -2.1244    0.0011 C.ar    1  LIG1        0.0520
     15 C          -4.5635   -0.8264    0.0006 C.ar    1  LIG1        0.0790
     16 N          -3.4402   -0.0305    0.0003 N.ar    1  LIG1       -0.3509
     17 H          -3.4386    0.9635   -0.0001 H       1  LIG1        0.1660
     18 H          -1.9565   -3.1734   -0.0006 H       1  LIG1        0.0652
     19 C          -4.9336   -3.1687    0.0023 C.1     1  LIG1       -0.0675
     20 C          -5.6490   -4.1337    0.0035 C.1     1  LIG1       -0.1138
     21 H          -6.2862   -4.9932    0.0045 H       1  LIG1        0.1232
     22 C          -5.7587   -0.3150    0.0014 C.ar    1  LIG1        0.0653
     23 C          -6.1626    0.9830    0.0016 C.ar    1  LIG1       -0.0195
     24 C          -7.5946    0.9853    0.0038 C.ar    1  LIG1        0.0426
     25 C          -8.0028   -0.3114    0.0030 C.ar    1  LIG1        0.0177
     26 N          -6.8820   -1.1108    0.0021 N.ar    1  LIG1       -0.3584
     27 H          -6.8836   -2.1048    0.0013 H       1  LIG1        0.1654
     28 H          -9.1996   -0.8190    0.0041 H       1  LIG1        0.0819
     29 H          -5.3884    2.0273    0.0015 H       1  LIG1        0.0651
     30 C          -8.3655    2.0321    0.0056 C.1     1  LIG1       -0.0682
     31 C          -9.0778    2.9993    0.0073 C.1     1  LIG1       -0.1139
     32 H          -9.7123    3.8609    0.0088 H       1  LIG1        0.1232
@<TRIPOS>BOND
     1    18    13    1
     2     2     8    1
     3     2     1   ar
     4     2     3   ar
     5    13    12   ar
     6    13    14   ar
     7     4    12    1
     8     4     5   ar
     9     4     3   ar
    10     6     5    1
    11    17    16    1
    12    12    16   ar
    13     5     1   ar
    14     1     7    1
    15     3     9    1
    16    16    15   ar
    17    15    14   ar
    18    15    22    1
    19     9    10    3
    20    14    19    1
    21    27    26    1
    22    22    23   ar
    23    22    26   ar
    24    29    23    1
    25    23    24   ar
    26    10    11    1
    27    26    25   ar
    28    19    20    3
    29    25    24   ar
    30    25    28    1
    31    20    21    1
    32    24    30    1
    33    30    31    3
    34    31    32    1
