@<TRIPOS>MOLECULE
mol_data/noopt/geoms/mol2/13ae4ae(170)4fi(190)12ef(280).out
 48 51 0 0 0
SMALL
GASTEIGER

@<TRIPOS>ATOM
      1 C           1.1215   -0.3259    0.0002 C.ar    1  LIG1        0.0034
      2 C           0.7176    0.9721   -0.0005 C.ar    1  LIG1       -0.0284
      3 C          -0.7144    0.9744    0.0003 C.ar    1  LIG1        0.0499
      4 C          -1.1226   -0.3223   -0.0003 C.ar    1  LIG1        0.0621
      5 N          -0.0018   -1.1217    0.0001 N.ar    1  LIG1       -0.3597
      6 H          -0.0034   -2.1157   -0.0003 H       1  LIG1        0.1654
      7 H           2.3167   -0.8373    0.0007 H       1  LIG1        0.0807
      8 H           1.4918    2.0164   -0.0003 H       1  LIG1        0.0645
      9 C          -1.4853    2.0212    0.0010 C.1     1  LIG1       -0.0675
     10 C          -2.1976    2.9884    0.0016 C.1     1  LIG1       -0.1138
     11 H          -2.8321    3.8500    0.0022 H       1  LIG1        0.1232
     12 C          -2.4959   -2.2126    0.2115 C.ar    1  LIG1       -0.0519
     13 C          -3.8120   -2.7137    0.2009 C.ar    1  LIG1       -0.0521
     14 C          -2.3194   -0.8299   -0.0001 C.ar    1  LIG1        0.0007
     15 C          -4.9055   -1.8768   -0.0102 C.ar    1  LIG1        0.0010
     16 H          -3.9708   -3.7776    0.3620 H       1  LIG1        0.0624
     17 C          -3.4107    0.0060   -0.2109 C.ar    1  LIG1       -0.0366
     18 C          -4.7104   -0.5108   -0.2175 C.ar    1  LIG1        0.0331
     19 H          -3.2485    1.0687   -0.3719 H       1  LIG1        0.0636
     20 H          -1.5161   -3.0427    0.4140 H       1  LIG1        0.0624
     21 C          -5.7267    0.2754   -0.4152 C.1     1  LIG1       -0.0690
     22 C          -6.6658    1.0018   -0.5980 C.1     1  LIG1       -0.1139
     23 H          -7.5022    1.6489   -0.7608 H       1  LIG1        0.1232
     24 C          -6.2961   -3.7537   -0.2282 C.ar    1  LIG1        0.1253
     25 C          -7.6170   -4.2420   -0.2240 C.ar    1  LIG1       -0.0086
     26 C          -6.1069   -2.3732   -0.0135 C.ar    1  LIG1        0.0250
     27 C          -8.7031   -3.3951   -0.0147 C.ar    1  LIG1        0.0250
     28 H          -7.7856   -5.3040   -0.3879 H       1  LIG1        0.0661
     29 C          -7.1908   -1.5272    0.1955 C.ar    1  LIG1       -0.0469
     30 C          -8.4955   -2.0314    0.1965 C.ar    1  LIG1       -0.0390
     31 H          -7.0190   -0.4664    0.3587 H       1  LIG1        0.0628
     32 O          -5.3236   -4.5929   -0.4287 O.3     1  LIG1       -0.5061
     33 H          -4.4927   -4.1147   -0.4781 H       1  LIG1        0.2922
     34 C          -9.5051   -1.2357    0.3923 C.3     1  LIG1       -0.0390
     35 H         -10.2632   -1.7505    0.9447 H       1  LIG1        0.0278
     36 H          -9.9014   -0.9234   -0.5514 H       1  LIG1        0.0278
     37 H          -9.1815   -0.3782    0.9446 H       1  LIG1        0.0278
     38 C          -9.9093   -3.8797   -0.0171 C.ar    1  LIG1        0.1542
     39 C         -10.8914   -4.0685   -0.9673 C.ar    1  LIG1        0.1117
     40 C         -12.0184   -4.6698   -0.2852 C.ar    1  LIG1        0.1708
     41 C         -11.6501   -4.8087    1.0372 C.ar    1  LIG1        0.1351
     42 O         -10.3538   -4.3287    1.2273 O.2     1  LIG1       -0.4579
     43 H         -12.2161   -5.2697    2.1128 H       1  LIG1        0.1068
     44 C         -10.8416   -3.7739   -2.2325 C.1     1  LIG1       -0.0622
     45 C         -10.7955   -3.5016   -3.4015 C.1     1  LIG1       -0.1137
     46 H         -10.7545   -3.2591   -4.4428 H       1  LIG1        0.1232
     47 O         -13.1473   -5.0042   -0.8366 O.3     1  LIG1       -0.5028
     48 H         -13.1685   -5.9543   -0.9725 H       1  LIG1        0.2923
@<TRIPOS>BOND
     1    46    45    1
     2    45    44    3
     3    44    39    1
     4    48    47    1
     5    39    40   ar
     6    39    38   ar
     7    47    40    1
     8    23    22    1
     9    22    21    3
    10    36    34    1
    11    33    32    1
    12    32    24    1
    13    21    18    1
    14    28    25    1
    15    19    17    1
    16    40    41   ar
    17    24    25   ar
    18    24    26   ar
    19    25    27   ar
    20    18    17   ar
    21    18    15   ar
    22    17    14   ar
    23    38    27    1
    24    38    42   ar
    25    27    30   ar
    26    26    15    1
    27    26    29   ar
    28    15    13   ar
    29     2     8    1
    30     2     1   ar
    31     2     3   ar
    32     4    14    1
    33     4     5   ar
    34     4     3   ar
    35     6     5    1
    36    14    12   ar
    37     5     1   ar
    38     1     7    1
    39     3     9    1
    40     9    10    3
    41    10    11    1
    42    29    30   ar
    43    29    31    1
    44    30    34    1
    45    13    12   ar
    46    13    16    1
    47    12    20    1
    48    34    37    1
    49    34    35    1
    50    41    42   ar
    51    41    43    1
