@<TRIPOS>MOLECULE
mol_data/noopt/geoms/mol2/13ae13fi-12ia6fl.out
 48 50 0 0 0
SMALL
GASTEIGER

@<TRIPOS>ATOM
      1 C           1.1215   -0.3259    0.0002 C.ar    1  LIG1        0.0034
      2 C           0.7176    0.9721   -0.0005 C.ar    1  LIG1       -0.0283
      3 C          -0.7144    0.9744    0.0003 C.ar    1  LIG1        0.0514
      4 C          -1.1226   -0.3223   -0.0003 C.ar    1  LIG1        0.0821
      5 N          -0.0018   -1.1217    0.0001 N.ar    1  LIG1       -0.3584
      6 H          -0.0034   -2.1157   -0.0003 H       1  LIG1        0.1654
      7 H           2.3167   -0.8373    0.0007 H       1  LIG1        0.0807
      8 H           1.4918    2.0164   -0.0003 H       1  LIG1        0.0645
      9 C          -1.4853    2.0212    0.0010 C.1     1  LIG1       -0.0675
     10 C          -2.1976    2.9884    0.0016 C.1     1  LIG1       -0.1138
     11 H          -2.8321    3.8500    0.0022 H       1  LIG1        0.1232
     12 C          -2.3194   -0.8299   -0.0001 C.ar    1  LIG1        0.1068
     13 C          -3.5353   -0.2219   -0.0003 C.ar    1  LIG1        0.1470
     14 C          -4.5290   -1.2530    0.0012 C.ar    1  LIG1        0.0169
     15 C          -3.8767   -2.4457    0.0005 C.ar    1  LIG1        0.0544
     16 N          -2.5238   -2.1913    0.0002 N.ar    1  LIG1       -0.3498
     17 H          -1.8081   -2.8811   -0.0004 H       1  LIG1        0.1661
     18 O          -3.7520    1.0599   -0.0003 O.3     1  LIG1       -0.5043
     19 H          -4.6977    1.2250   -0.0003 H       1  LIG1        0.2922
     20 C          -5.8182   -1.0837    0.0025 C.3     1  LIG1       -0.0342
     21 H          -6.2852   -1.9035    0.5073 H       1  LIG1        0.0279
     22 H          -6.1729   -1.0372   -1.0060 H       1  LIG1        0.0279
     23 H          -6.0576   -0.1710    0.5072 H       1  LIG1        0.0279
     24 C          -4.3398   -3.6604    0.0012 C.2     1  LIG1        0.0111
     25 C          -5.5941   -4.2347    0.0017 C.2     1  LIG1       -0.0371
     26 C          -5.3937   -5.6688    0.0024 C.2     1  LIG1       -0.0106
     27 C          -4.0296   -5.8759    0.0021 C.2     1  LIG1        0.1915
     28 O          -3.3584   -4.6527    0.0013 O.2     1  LIG1       -0.2871
     29 C          -6.7458   -3.6310    0.0017 C.3     1  LIG1       -0.0389
     30 H          -7.4673   -4.2392    0.5062 H       1  LIG1        0.0278
     31 H          -7.0617   -3.4654   -1.0071 H       1  LIG1        0.0278
     32 H          -6.6560   -2.6916    0.5061 H       1  LIG1        0.0278
     33 H          -6.3351   -6.5653    0.0030 H       1  LIG1        0.0659
     34 C          -1.8528   -6.7588    0.0029 C.ar    1  LIG1        0.2236
     35 C          -3.2508   -6.9167    0.0025 C.ar    1  LIG1        0.0864
     36 C          -3.7756   -8.2104    0.0029 C.ar    1  LIG1       -0.0025
     37 C          -2.8944   -9.2930    0.0034 C.ar    1  LIG1        0.1390
     38 C          -1.5116   -9.0334    0.0035 C.ar    1  LIG1        0.0730
     39 N          -0.9881   -7.7919    0.0033 N.ar    1  LIG1       -0.2172
     40 H          -4.8627   -8.3732    0.0016 H       1  LIG1        0.0663
     41 H          -0.6514  -10.0081    0.0041 H       1  LIG1        0.0868
     42 O          -1.3167   -5.5744    0.0026 O.3     1  LIG1       -0.4919
     43 H          -2.0090   -4.9094    0.0026 H       1  LIG1        0.2937
     44 O          -3.3332  -10.5168    0.0035 O.3     1  LIG1       -0.4936
     45 C          -4.7632  -10.5110    0.0035 C.3     1  LIG1        0.0789
     46 H          -5.1239  -11.5184    0.0035 H       1  LIG1        0.0660
     47 H          -5.1179  -10.0052    0.8772 H       1  LIG1        0.0660
     48 H          -5.1178  -10.0052   -0.8701 H       1  LIG1        0.0660
@<TRIPOS>BOND
     1    31    29    1
     2    22    20    1
     3    48    45    1
     4     2     8    1
     5     2     1   ar
     6     2     3   ar
     7    17    16    1
     8    13    18    1
     9    13    12   ar
    10    13    14   ar
    11     4    12    1
    12     4     5   ar
    13     4     3   ar
    14     6     5    1
    15    18    19    1
    16    12    16   ar
    17     5     1   ar
    18    16    15   ar
    19     1     7    1
    20     3     9    1
    21    15    14   ar
    22    15    24    1
    23     9    10    3
    24    14    20    1
    25    24    25    2
    26    28    27    1
    27    40    36    1
    28    10    11    1
    29    25    29    1
    30    25    26    1
    31    29    32    1
    32    29    30    1
    33    27    26    2
    34    27    35    1
    35    26    33    1
    36    20    23    1
    37    20    21    1
    38    35    34   ar
    39    35    36   ar
    40    43    42    1
    41    42    34    1
    42    34    39   ar
    43    36    37   ar
    44    39    38   ar
    45    37    38   ar
    46    37    44    1
    47    38    41    1
    48    46    45    1
    49    45    44    1
    50    45    47    1
