@<TRIPOS>MOLECULE
mol_data/noopt/geoms/mol2/13ae6al(330)4la4ih(30).out
 54 53 0 0 0
SMALL
GASTEIGER

@<TRIPOS>ATOM
      1 C           1.1215   -0.3259    0.0002 C.ar    1  LIG1        0.0034
      2 C           0.7176    0.9721   -0.0005 C.ar    1  LIG1       -0.0284
      3 C          -0.7144    0.9744    0.0003 C.ar    1  LIG1        0.0496
      4 C          -1.1226   -0.3223   -0.0003 C.ar    1  LIG1        0.0601
      5 N          -0.0018   -1.1217    0.0001 N.ar    1  LIG1       -0.3599
      6 H          -0.0034   -2.1157   -0.0003 H       1  LIG1        0.1654
      7 H           2.3167   -0.8373    0.0007 H       1  LIG1        0.0807
      8 H           1.4918    2.0164   -0.0003 H       1  LIG1        0.0645
      9 C          -1.4853    2.0212    0.0010 C.1     1  LIG1       -0.0676
     10 C          -2.1976    2.9884    0.0016 C.1     1  LIG1       -0.1138
     11 H          -2.8321    3.8500    0.0022 H       1  LIG1        0.1232
     12 C          -2.5634   -2.0755    0.6067 C.3     1  LIG1        0.1048
     13 C          -2.3194   -0.8299   -0.0001 C.2     1  LIG1        0.0037
     14 C          -3.3879   -0.1584   -0.5971 C.2     1  LIG1       -0.0541
     15 C          -4.6527   -0.7483   -0.5683 C.3     2  LIG2       -0.0309
     16 C          -4.7968   -1.9975    0.0627 C.2     1  LIG1        0.0956
     17 N          -3.7770   -2.6592    0.6436 N.2     1  LIG1       -0.2706
     18 H          -3.2355    0.8164   -1.0817 H       1  LIG1        0.0622
     19 H          -1.6009   -2.7388    1.1756 H       1  LIG1        0.0620
     20 O          -5.6796   -0.1634   -1.1101 O.3     2  LIG2       -0.2383
     21 C          -5.3894    1.2227   -1.3091 C.3     2  LIG2        0.0718
     22 H          -6.2347    1.7036   -1.7552 H       2  LIG2        0.0555
     23 H          -5.1746    1.6810   -0.3664 H       2  LIG2        0.0555
     24 H          -4.5416    1.3205   -1.9546 H       2  LIG2        0.0555
     25 C          -7.1344   -1.8160    0.1446 C.ar    1  LIG1        0.1887
     26 C          -8.3631   -2.5017    0.2031 C.ar    1  LIG1       -0.0066
     27 C          -5.9543   -2.5869    0.1153 C.ar    1  LIG1        0.0487
     28 C          -8.4168   -3.8935    0.2308 C.ar    1  LIG1       -0.0139
     29 H          -9.2858   -1.9263    0.2267 H       1  LIG1        0.0662
     30 C          -6.0074   -3.9763    0.1430 C.ar    1  LIG1       -0.0483
     31 C          -7.2377   -4.6392    0.2008 C.ar    1  LIG1       -0.0532
     32 H          -5.0834   -4.5484    0.1196 H       1  LIG1        0.0625
     33 O          -7.1483   -0.5162    0.1208 O.3     1  LIG1       -0.2872
     34 C          -5.8055   -0.0246    0.1120 C.3     3  LIG3       -0.0531
     35 H          -5.8174    1.0451    0.0923 H       3  LIG3        0.0265
     36 H          -5.2973   -0.3595    0.9922 H       3  LIG3        0.0265
     37 H          -5.2969   -0.3917   -0.7548 H       1  LIG1        0.0309
     38 H          -7.2811   -5.9382    0.2265 H       1  LIG1        0.0624
     39 C         -10.6575   -3.8684    0.9253 C.ar    1  LIG1       -0.0426
     40 C         -11.8834   -4.5608    0.9583 C.ar    1  LIG1       -0.0565
     41 C          -9.5684   -4.4940    0.2848 C.ar    1  LIG1       -0.0131
     42 C         -12.0212   -5.8203    0.3792 C.ar    1  LIG1       -0.0408
     43 H         -12.7366   -4.0964    1.4476 H       1  LIG1        0.0621
     44 C          -9.7055   -5.7514   -0.2934 C.ar    1  LIG1       -0.0331
     45 C         -10.9317   -6.4231   -0.2506 C.ar    1  LIG1        0.0251
     46 H          -8.8508   -6.2128   -0.7814 H       1  LIG1        0.0642
     47 H         -13.1677   -6.4312    0.4281 H       1  LIG1        0.0636
     48 C         -10.5906   -2.6956    1.4829 C.3     1  LIG1       -0.0391
     49 H         -11.4567   -2.5400    2.0915 H       1  LIG1        0.0278
     50 H         -10.5476   -1.9420    0.7245 H       1  LIG1        0.0278
     51 H          -9.7123   -2.6397    2.0915 H       1  LIG1        0.0278
     52 N         -11.0538   -7.5983   -0.7927 N.pl3   1  LIG1       -0.3579
     53 H         -11.8769   -7.6197   -1.3602 H       1  LIG1        0.1423
     54 H         -10.2527   -7.7885   -1.3602 H       1  LIG1        0.1423
@<TRIPOS>BOND
     1    24    21    1
     2    22    21    1
     3    54    52    1
     4    53    52    1
     5    21    20    1
     6    21    23    1
     7    18    14    1
     8    52    45    1
     9    46    44    1
    10    37    15    1
    11    14    13    2
    12    44    45   ar
    13    44    41   ar
    14    45    42   ar
    15     2     8    1
    16     2     1   ar
    17     2     3   ar
    18     6     5    1
    19     4    13    1
    20     4     5   ar
    21     4     3   ar
    22    13    12    1
    23     5     1   ar
    24     1     7    1
    25     3     9    1
    26     9    10    3
    27    10    11    1
    28    16    27    1
    29    16    17    2
    30    35    34    1
    31    34    36    1
    32    27    30   ar
    33    27    25   ar
    34    32    30    1
    35    33    25    1
    36    30    31   ar
    37    25    26   ar
    38    31    38    1
    39    31    28   ar
    40    26    29    1
    41    26    28   ar
    42    28    41    1
    43    41    39   ar
    44    42    47    1
    45    42    40   ar
    46    12    17    1
    47    12    19    1
    48    50    48    1
    49    39    40   ar
    50    39    48    1
    51    40    43    1
    52    48    51    1
    53    48    49    1
