@<TRIPOS>MOLECULE
mol_data/noopt/geoms/mol2/13ae13hi(20)4ff(140)4li(190).out
 54 57 0 0 0
SMALL
GASTEIGER

@<TRIPOS>ATOM
      1 C           1.1215   -0.3259    0.0002 C.ar    1  LIG1        0.0034
      2 C           0.7176    0.9721   -0.0005 C.ar    1  LIG1       -0.0283
      3 C          -0.7144    0.9744    0.0003 C.ar    1  LIG1        0.0514
      4 C          -1.1226   -0.3223   -0.0003 C.ar    1  LIG1        0.0803
      5 N          -0.0018   -1.1217    0.0001 N.ar    1  LIG1       -0.3585
      6 H          -0.0034   -2.1157   -0.0003 H       1  LIG1        0.1654
      7 H           2.3167   -0.8373    0.0007 H       1  LIG1        0.0807
      8 H           1.4918    2.0164   -0.0003 H       1  LIG1        0.0645
      9 C          -1.4853    2.0212    0.0010 C.1     1  LIG1       -0.0675
     10 C          -2.1976    2.9884    0.0016 C.1     1  LIG1       -0.1138
     11 H          -2.8321    3.8500    0.0022 H       1  LIG1        0.1232
     12 C          -2.3194   -0.8299   -0.0001 C.ar    1  LIG1        0.0857
     13 C          -3.5144   -0.2711    0.3281 C.ar    1  LIG1        0.0552
     14 C          -4.5193   -1.2758    0.1514 C.ar    1  LIG1       -0.0038
     15 C          -3.8945   -2.4039   -0.2787 C.ar    1  LIG1        0.0553
     16 N          -2.5475   -2.1355   -0.3724 N.ar    1  LIG1       -0.3512
     17 H          -1.8504   -2.7815   -0.6634 H       1  LIG1        0.1660
     18 N          -3.7055    0.9505    0.7297 N.pl3   1  LIG1       -0.3561
     19 H          -2.9703    1.5338    0.3843 H       1  LIG1        0.1424
     20 H          -4.5836    1.2814    0.3843 H       1  LIG1        0.1424
     21 C          -5.7951   -1.1382    0.3620 C.3     1  LIG1       -0.0359
     22 H          -6.1575   -1.9778    0.9175 H       1  LIG1        0.0279
     23 H          -6.3075   -1.0830   -0.5758 H       1  LIG1        0.0279
     24 H          -5.9701   -0.2406    0.9174 H       1  LIG1        0.0279
     25 C          -3.8389   -4.7291    0.0282 C.ar    1  LIG1        0.1268
     26 C          -4.3947   -5.9732   -0.3280 C.ar    1  LIG1       -0.0082
     27 C          -4.3765   -3.5741   -0.5757 C.ar    1  LIG1        0.0435
     28 C          -5.4399   -6.0654   -1.2443 C.ar    1  LIG1        0.0305
     29 H          -3.9947   -6.8771    0.1260 H       1  LIG1        0.0661
     30 C          -5.4199   -3.6656   -1.4906 C.ar    1  LIG1       -0.0070
     31 C          -5.9589   -4.9106   -1.8312 C.ar    1  LIG1        0.1255
     32 H          -5.8172   -2.7604   -1.9426 H       1  LIG1        0.0662
     33 O          -2.8651   -4.7068    0.8892 O.3     1  LIG1       -0.5061
     34 H          -2.6458   -3.7966    1.1014 H       1  LIG1        0.2922
     35 O          -6.9342   -4.9900   -2.6871 O.3     1  LIG1       -0.5061
     36 H          -7.1011   -5.9115   -2.8981 H       1  LIG1        0.2922
     37 C          -5.0644   -8.2797   -1.9224 C.ar    1  LIG1        0.1279
     38 C          -5.6438   -9.5218   -2.2459 C.ar    1  LIG1       -0.0191
     39 C          -5.9292   -7.2302   -1.5502 C.ar    1  LIG1        0.0276
     40 C          -7.0229   -9.7131   -2.2008 C.ar    1  LIG1       -0.0553
     41 H          -4.9948  -10.3451   -2.5360 H       1  LIG1        0.0654
     42 C          -7.3061   -7.4206   -1.5050 C.ar    1  LIG1       -0.0475
     43 C          -7.8626   -8.6622   -1.8295 C.ar    1  LIG1       -0.0496
     44 H          -7.9519   -6.5957   -1.2149 H       1  LIG1        0.0627
     45 H          -7.5240  -10.8733   -2.5058 H       1  LIG1        0.0621
     46 O          -3.7711   -8.1623   -1.9827 O.3     1  LIG1       -0.4945
     47 C          -3.1745   -9.4617   -2.0049 C.3     1  LIG1        0.0788
     48 H          -2.1100   -9.3646   -2.0547 H       1  LIG1        0.0660
     49 H          -3.4430   -9.9927   -1.1156 H       1  LIG1        0.0660
     50 H          -3.5239  -10.0001   -2.8610 H       1  LIG1        0.0660
     51 C          -9.1507   -8.8343   -1.7857 C.3     1  LIG1       -0.0397
     52 H          -9.3715   -9.7452   -1.2695 H       1  LIG1        0.0278
     53 H          -9.5378   -8.8860   -2.7819 H       1  LIG1        0.0278
     54 H          -9.6028   -8.0132   -1.2695 H       1  LIG1        0.0278
@<TRIPOS>BOND
     1    36    35    1
     2    50    47    1
     3    53    51    1
     4    35    31    1
     5    41    38    1
     6    45    40    1
     7    38    40   ar
     8    38    37   ar
     9    40    43   ar
    10    48    47    1
    11    47    46    1
    12    47    49    1
    13    46    37    1
    14    32    30    1
    15    37    39   ar
    16    31    30   ar
    17    31    28   ar
    18    43    51    1
    19    43    42   ar
    20    51    54    1
    21    51    52    1
    22    39    42   ar
    23    39    28    1
    24    42    44    1
    25    30    27   ar
    26    28    26   ar
    27    17    16    1
    28    23    21    1
    29    27    15    1
    30    27    25   ar
    31    16    15   ar
    32    16    12   ar
    33    26    25   ar
    34    26    29    1
    35    15    14   ar
    36     2     8    1
    37     2     1   ar
    38     2     3   ar
    39     4    12    1
    40     4     5   ar
    41     4     3   ar
    42     6     5    1
    43    12    13   ar
    44     5     1   ar
    45     1     7    1
    46     3     9    1
    47     9    10    3
    48    10    11    1
    49    25    33    1
    50    14    13   ar
    51    14    21    1
    52    13    18    1
    53    21    24    1
    54    21    22    1
    55    20    18    1
    56    19    18    1
    57    33    34    1
