@<TRIPOS>MOLECULE
mol_data/noopt/geoms/mol2/13ae13ae13ae13ae-.out
 42 45 0 0 0
SMALL
GASTEIGER

@<TRIPOS>ATOM
      1 C           1.1215   -0.3259    0.0002 C.ar    1  LIG1        0.0034
      2 C           0.7176    0.9721   -0.0005 C.ar    1  LIG1       -0.0283
      3 C          -0.7144    0.9744    0.0003 C.ar    1  LIG1        0.0513
      4 C          -1.1226   -0.3223   -0.0003 C.ar    1  LIG1        0.0785
      5 N          -0.0018   -1.1217    0.0001 N.ar    1  LIG1       -0.3585
      6 H          -0.0034   -2.1157   -0.0003 H       1  LIG1        0.1654
      7 H           2.3167   -0.8373    0.0007 H       1  LIG1        0.0807
      8 H           1.4918    2.0164   -0.0003 H       1  LIG1        0.0645
      9 C          -1.4853    2.0212    0.0010 C.1     1  LIG1       -0.0675
     10 C          -2.1976    2.9884    0.0016 C.1     1  LIG1       -0.1138
     11 H          -2.8321    3.8500    0.0022 H       1  LIG1        0.1232
     12 C          -2.3194   -0.8299   -0.0001 C.ar    1  LIG1        0.0657
     13 C          -3.5353   -0.2219   -0.0003 C.ar    1  LIG1       -0.0189
     14 C          -4.5290   -1.2530    0.0012 C.ar    1  LIG1        0.0520
     15 C          -3.8767   -2.4457    0.0005 C.ar    1  LIG1        0.0790
     16 N          -2.5238   -2.1913    0.0002 N.ar    1  LIG1       -0.3509
     17 H          -1.8081   -2.8811   -0.0004 H       1  LIG1        0.1660
     18 H          -3.7520    1.0599   -0.0003 H       1  LIG1        0.0652
     19 C          -5.8179   -1.0837    0.0025 C.1     1  LIG1       -0.0675
     20 C          -7.0089   -0.9273    0.0037 C.1     1  LIG1       -0.1138
     21 H          -8.0698   -0.7879    0.0048 H       1  LIG1        0.1232
     22 C          -4.3398   -3.6604    0.0012 C.ar    1  LIG1        0.0658
     23 C          -5.6206   -4.1160    0.0013 C.ar    1  LIG1       -0.0189
     24 C          -5.5655   -5.5470    0.0033 C.ar    1  LIG1        0.0520
     25 C          -4.2535   -5.9029    0.0026 C.ar    1  LIG1        0.0790
     26 N          -3.4996   -4.7510    0.0018 N.ar    1  LIG1       -0.3509
     27 H          -2.5064   -4.7127    0.0010 H       1  LIG1        0.1660
     28 H          -6.6951   -3.3843    0.0012 H       1  LIG1        0.0652
     29 C          -6.5805   -6.3592    0.0050 C.1     1  LIG1       -0.0675
     30 C          -7.5184   -7.1097    0.0066 C.1     1  LIG1       -0.1138
     31 H          -8.3539   -7.7782    0.0080 H       1  LIG1        0.1232
     32 C          -3.6983   -7.0784    0.0036 C.ar    1  LIG1        0.0653
     33 C          -2.3863   -7.4341    0.0038 C.ar    1  LIG1       -0.0195
     34 C          -2.3311   -8.8651    0.0062 C.ar    1  LIG1        0.0426
     35 C          -3.6119   -9.3208    0.0056 C.ar    1  LIG1        0.0177
     36 N          -4.4521   -8.2303    0.0045 N.ar    1  LIG1       -0.3584
     37 H          -5.4454   -8.2686    0.0038 H       1  LIG1        0.1654
     38 H          -4.0750  -10.5356    0.0070 H       1  LIG1        0.0819
     39 H          -1.3713   -6.6219    0.0035 H       1  LIG1        0.0651
     40 C          -1.2566   -9.5968    0.0081 C.1     1  LIG1       -0.0682
     41 C          -0.2638  -10.2729    0.0099 C.1     1  LIG1       -0.1139
     42 H           0.6206  -10.8752    0.0115 H       1  LIG1        0.1232
@<TRIPOS>BOND
     1     2     8    1
     2     2     1   ar
     3     2     3   ar
     4    17    16    1
     5    13    18    1
     6    13    12   ar
     7    13    14   ar
     8     4    12    1
     9     4     5   ar
    10     4     3   ar
    11     6     5    1
    12    12    16   ar
    13     5     1   ar
    14    16    15   ar
    15     1     7    1
    16     3     9    1
    17    15    14   ar
    18    15    22    1
    19    27    26    1
    20     9    10    3
    21    14    19    1
    22    22    23   ar
    23    22    26   ar
    24    28    23    1
    25    23    24   ar
    26    10    11    1
    27    26    25   ar
    28    19    20    3
    29    25    24   ar
    30    25    32    1
    31    24    29    1
    32    39    33    1
    33    32    33   ar
    34    32    36   ar
    35    20    21    1
    36    37    36    1
    37    33    34   ar
    38    36    35   ar
    39    29    30    3
    40    35    34   ar
    41    35    38    1
    42    34    40    1
    43    30    31    1
    44    40    41    3
    45    41    42    1
