@<TRIPOS>MOLECULE
mol_data/noopt/geoms/mol2/13ae13ae13ae-13ae-.out
 42 45 0 0 0
SMALL
GASTEIGER

@<TRIPOS>ATOM
      1 C           1.1215   -0.3259    0.0002 C.ar    1  LIG1        0.0034
      2 C           0.7176    0.9721   -0.0005 C.ar    1  LIG1       -0.0283
      3 C          -0.7144    0.9744    0.0003 C.ar    1  LIG1        0.0513
      4 C          -1.1226   -0.3223   -0.0003 C.ar    1  LIG1        0.0785
      5 N          -0.0018   -1.1217    0.0001 N.ar    1  LIG1       -0.3585
      6 H          -0.0034   -2.1157   -0.0003 H       1  LIG1        0.1654
      7 H           2.3167   -0.8373    0.0007 H       1  LIG1        0.0807
      8 H           1.4918    2.0164   -0.0003 H       1  LIG1        0.0645
      9 C          -1.4853    2.0212    0.0010 C.1     1  LIG1       -0.0675
     10 C          -2.1976    2.9884    0.0016 C.1     1  LIG1       -0.1138
     11 H          -2.8321    3.8500    0.0022 H       1  LIG1        0.1232
     12 C          -2.3194   -0.8299   -0.0001 C.ar    1  LIG1        0.0657
     13 C          -3.5353   -0.2219   -0.0003 C.ar    1  LIG1       -0.0189
     14 C          -4.5290   -1.2530    0.0012 C.ar    1  LIG1        0.0520
     15 C          -3.8767   -2.4457    0.0005 C.ar    1  LIG1        0.0790
     16 N          -2.5238   -2.1913    0.0002 N.ar    1  LIG1       -0.3509
     17 H          -1.8081   -2.8811   -0.0004 H       1  LIG1        0.1660
     18 H          -3.7520    1.0599   -0.0003 H       1  LIG1        0.0652
     19 C          -5.8179   -1.0837    0.0025 C.1     1  LIG1       -0.0675
     20 C          -7.0089   -0.9273    0.0037 C.1     1  LIG1       -0.1138
     21 H          -8.0698   -0.7879    0.0048 H       1  LIG1        0.1232
     22 C          -4.3398   -3.6604    0.0012 C.ar    1  LIG1        0.0658
     23 C          -3.6874   -4.8530    0.0012 C.ar    1  LIG1       -0.0189
     24 C          -4.6811   -5.8841    0.0032 C.ar    1  LIG1        0.0520
     25 C          -5.8970   -5.2763    0.0027 C.ar    1  LIG1        0.0790
     26 N          -5.6927   -3.9149    0.0019 N.ar    1  LIG1       -0.3509
     27 H          -6.4084   -3.2251    0.0013 H       1  LIG1        0.1660
     28 H          -2.3984   -5.0223    0.0009 H       1  LIG1        0.0652
     29 C          -4.4643   -7.1660    0.0049 C.1     1  LIG1       -0.0675
     30 C          -4.2641   -8.3503    0.0064 C.1     1  LIG1       -0.1138
     31 H          -4.0857   -9.4054    0.0077 H       1  LIG1        0.1232
     32 C          -7.0939   -5.7839    0.0038 C.ar    1  LIG1        0.0653
     33 C          -7.5019   -7.0806    0.0041 C.ar    1  LIG1       -0.0195
     34 C          -8.9339   -7.0784    0.0067 C.ar    1  LIG1        0.0426
     35 C          -9.3380   -5.7804    0.0061 C.ar    1  LIG1        0.0177
     36 N          -8.2146   -4.9846    0.0048 N.ar    1  LIG1       -0.3584
     37 H          -8.2131   -3.9906    0.0040 H       1  LIG1        0.1654
     38 H         -10.5331   -5.2690    0.0075 H       1  LIG1        0.0819
     39 H          -6.7310   -8.1274    0.0038 H       1  LIG1        0.0651
     40 C          -9.7081   -8.1227    0.0087 C.1     1  LIG1       -0.0682
     41 C         -10.4234   -9.0877    0.0106 C.1     1  LIG1       -0.1139
     42 H         -11.0606   -9.9472    0.0122 H       1  LIG1        0.1232
@<TRIPOS>BOND
     1     2     8    1
     2     2     1   ar
     3     2     3   ar
     4    17    16    1
     5    13    18    1
     6    13    12   ar
     7    13    14   ar
     8     4    12    1
     9     4     5   ar
    10     4     3   ar
    11     6     5    1
    12    12    16   ar
    13     5     1   ar
    14    16    15   ar
    15     1     7    1
    16     3     9    1
    17    15    14   ar
    18    15    22    1
    19    28    23    1
    20     9    10    3
    21    23    22   ar
    22    23    24   ar
    23    14    19    1
    24    22    26   ar
    25    27    26    1
    26    10    11    1
    27    26    25   ar
    28    19    20    3
    29    25    24   ar
    30    25    32    1
    31    24    29    1
    32    20    21    1
    33    39    33    1
    34    32    33   ar
    35    32    36   ar
    36    37    36    1
    37    33    34   ar
    38    36    35   ar
    39    29    30    3
    40    35    34   ar
    41    35    38    1
    42    30    31    1
    43    34    40    1
    44    40    41    3
    45    41    42    1
