@<TRIPOS>MOLECULE
mol_data/noopt/geoms/mol2/13ae13da(280)4lh(90)4hh(80).out
 51 54 0 0 0
SMALL
GASTEIGER

@<TRIPOS>ATOM
      1 C           1.1215   -0.3259    0.0002 C.ar    1  LIG1        0.0034
      2 C           0.7176    0.9721   -0.0005 C.ar    1  LIG1       -0.0283
      3 C          -0.7144    0.9744    0.0003 C.ar    1  LIG1        0.0513
      4 C          -1.1226   -0.3223   -0.0003 C.ar    1  LIG1        0.0797
      5 N          -0.0018   -1.1217    0.0001 N.ar    1  LIG1       -0.3585
      6 H          -0.0034   -2.1157   -0.0003 H       1  LIG1        0.1654
      7 H           2.3167   -0.8373    0.0007 H       1  LIG1        0.0807
      8 H           1.4918    2.0164   -0.0003 H       1  LIG1        0.0645
      9 C          -1.4853    2.0212    0.0010 C.1     1  LIG1       -0.0675
     10 C          -2.1976    2.9884    0.0016 C.1     1  LIG1       -0.1138
     11 H          -2.8321    3.8500    0.0022 H       1  LIG1        0.1232
     12 C          -2.3194   -0.8299   -0.0001 C.ar    1  LIG1        0.0821
     13 C          -3.2073   -0.9955   -1.0160 C.ar    1  LIG1        0.0790
     14 C          -4.3794   -1.6059   -0.4644 C.ar    1  LIG1       -0.0182
     15 C          -4.1555   -1.7880    0.8641 C.ar    1  LIG1        0.0518
     16 N          -2.8957   -1.3139    1.1526 N.ar    1  LIG1       -0.3519
     17 H          -2.4696   -1.3206    2.0506 H       1  LIG1        0.1660
     18 N          -2.8610   -0.3622   -3.3537 N.1     1  LIG1       -0.1908
     19 C          -3.0233   -0.6590   -2.2582 C.1     1  LIG1        0.1013
     20 H          -5.4599   -1.9283   -1.1114 H       1  LIG1        0.0652
     21 C          -4.6086   -2.0949    3.1454 C.ar    1  LIG1        0.1299
     22 C          -5.4623   -2.6732    4.1045 C.ar    1  LIG1       -0.0098
     23 C          -4.9158   -2.3014    1.7850 C.ar    1  LIG1        0.0417
     24 C          -6.5738   -3.4239    3.7281 C.ar    1  LIG1        0.0081
     25 H          -5.2435   -2.5264    5.1599 H       1  LIG1        0.0661
     26 C          -6.0253   -3.0508    1.4086 C.ar    1  LIG1       -0.0278
     27 C          -6.8617   -3.6169    2.3764 C.ar    1  LIG1        0.0333
     28 H          -6.2410   -3.1959    0.3532 H       1  LIG1        0.0644
     29 O          -3.5870   -1.4046    3.5579 O.3     1  LIG1       -0.4944
     30 C          -2.4573   -2.2682    3.7093 C.3     1  LIG1        0.0788
     31 H          -1.6167   -1.6997    4.0487 H       1  LIG1        0.0660
     32 H          -2.6845   -3.0307    4.4249 H       1  LIG1        0.0660
     33 H          -2.2253   -2.7204    2.7678 H       1  LIG1        0.0660
     34 N          -7.8973   -4.3166    2.0186 N.pl3   1  LIG1       -0.3575
     35 H          -8.5124   -3.7467    1.4737 H       1  LIG1        0.1423
     36 H          -7.5983   -5.0999    1.4737 H       1  LIG1        0.1423
     37 C          -7.1745   -3.5752    5.9909 C.ar    1  LIG1        0.0325
     38 C          -8.0292   -4.1672    6.9408 C.ar    1  LIG1       -0.0387
     39 C          -7.3408   -3.9434    4.6401 C.ar    1  LIG1        0.0064
     40 C          -9.0074   -5.0849    6.5645 C.ar    1  LIG1       -0.0393
     41 H          -7.9180   -3.8974    7.9886 H       1  LIG1        0.0637
     42 C          -8.3171   -4.8595    4.2639 C.ar    1  LIG1       -0.0315
     43 C          -9.1569   -5.4364    5.2224 C.ar    1  LIG1        0.0252
     44 H          -8.4255   -5.1272    3.2160 H       1  LIG1        0.0643
     45 H          -9.7795   -5.6121    7.4678 H       1  LIG1        0.0636
     46 N          -6.2810   -2.7254    6.4027 N.pl3   1  LIG1       -0.3575
     47 H          -5.3810   -2.9963    6.0612 H       1  LIG1        0.1423
     48 H          -6.5064   -1.8130    6.0611 H       1  LIG1        0.1423
     49 N         -10.0677   -6.2923    4.8648 N.pl3   1  LIG1       -0.3579
     50 H         -10.7659   -5.8280    4.3199 H       1  LIG1        0.1423
     51 H          -9.6477   -7.0179    4.3199 H       1  LIG1        0.1423
@<TRIPOS>BOND
     1    18    19    3
     2    19    13    1
     3    20    14    1
     4    13    14   ar
     5    13    12   ar
     6    14    15   ar
     7     2     8    1
     8     2     1   ar
     9     2     3   ar
    10     4    12    1
    11     4     5   ar
    12     4     3   ar
    13     6     5    1
    14    12    16   ar
    15     5     1   ar
    16     1     7    1
    17     3     9    1
    18     9    10    3
    19    10    11    1
    20    28    26    1
    21    15    16   ar
    22    15    23    1
    23    16    17    1
    24    26    23   ar
    25    26    27   ar
    26    36    34    1
    27    35    34    1
    28    23    21   ar
    29    34    27    1
    30    27    24   ar
    31    33    30    1
    32    21    29    1
    33    21    22   ar
    34    44    42    1
    35    29    30    1
    36    30    31    1
    37    30    32    1
    38    24    22   ar
    39    24    39    1
    40    22    25    1
    41    42    39   ar
    42    42    43   ar
    43    51    49    1
    44    50    49    1
    45    39    37   ar
    46    49    43    1
    47    43    40   ar
    48    37    46    1
    49    37    38   ar
    50    48    46    1
    51    47    46    1
    52    40    38   ar
    53    40    45    1
    54    38    41    1
