@<TRIPOS>MOLECULE
mol_data/noopt/geoms/mol2/13ae13ae-4ae13ae.out
 44 47 0 0 0
SMALL
GASTEIGER

@<TRIPOS>ATOM
      1 C           1.1215   -0.3259    0.0002 C.ar    1  LIG1        0.0034
      2 C           0.7176    0.9721   -0.0005 C.ar    1  LIG1       -0.0283
      3 C          -0.7144    0.9744    0.0003 C.ar    1  LIG1        0.0513
      4 C          -1.1226   -0.3223   -0.0003 C.ar    1  LIG1        0.0785
      5 N          -0.0018   -1.1217    0.0001 N.ar    1  LIG1       -0.3585
      6 H          -0.0034   -2.1157   -0.0003 H       1  LIG1        0.1654
      7 H           2.3167   -0.8373    0.0007 H       1  LIG1        0.0807
      8 H           1.4918    2.0164   -0.0003 H       1  LIG1        0.0645
      9 C          -1.4853    2.0212    0.0010 C.1     1  LIG1       -0.0675
     10 C          -2.1976    2.9884    0.0016 C.1     1  LIG1       -0.1138
     11 H          -2.8321    3.8500    0.0022 H       1  LIG1        0.1232
     12 C          -2.3194   -0.8299   -0.0001 C.ar    1  LIG1        0.0657
     13 C          -2.7274   -2.1266   -0.0005 C.ar    1  LIG1       -0.0189
     14 C          -4.1594   -2.1244    0.0011 C.ar    1  LIG1        0.0505
     15 C          -4.5635   -0.8264    0.0006 C.ar    1  LIG1        0.0626
     16 N          -3.4402   -0.0305    0.0003 N.ar    1  LIG1       -0.3520
     17 H          -3.4386    0.9635   -0.0001 H       1  LIG1        0.1660
     18 H          -1.9565   -3.1734   -0.0006 H       1  LIG1        0.0652
     19 C          -4.9336   -3.1687    0.0023 C.1     1  LIG1       -0.0675
     20 C          -5.6490   -4.1337    0.0035 C.1     1  LIG1       -0.1138
     21 H          -6.2862   -4.9932    0.0045 H       1  LIG1        0.1232
     22 C          -5.9236    1.0852    0.0026 C.ar    1  LIG1       -0.0519
     23 C          -7.2385    1.5895    0.0050 C.ar    1  LIG1       -0.0508
     24 C          -5.7587   -0.3150    0.0014 C.ar    1  LIG1        0.0007
     25 C          -8.3419    0.7391    0.0056 C.ar    1  LIG1        0.0137
     26 H          -7.3885    2.6668    0.0062 H       1  LIG1        0.0625
     27 C          -6.8598   -1.1644    0.0020 C.ar    1  LIG1       -0.0365
     28 C          -8.1582   -0.6442    0.0040 C.ar    1  LIG1        0.0344
     29 H          -6.7065   -2.2406    0.0011 H       1  LIG1        0.0636
     30 H          -4.9343    1.9285    0.0020 H       1  LIG1        0.0624
     31 C          -9.1838   -1.4431    0.0046 C.1     1  LIG1       -0.0690
     32 C         -10.1314   -2.1813    0.0053 C.1     1  LIG1       -0.1139
     33 H         -10.9755   -2.8388    0.0058 H       1  LIG1        0.1232
     34 C          -9.5420    1.2389    0.0077 C.ar    1  LIG1        0.0488
     35 C          -9.9585    2.5329    0.0088 C.ar    1  LIG1       -0.0210
     36 C         -11.3904    2.5213    0.0122 C.ar    1  LIG1        0.0425
     37 C         -11.7860    1.2207    0.0113 C.ar    1  LIG1        0.0176
     38 N         -10.6575    0.4322    0.0090 N.ar    1  LIG1       -0.3595
     39 H         -10.6495   -0.5617    0.0079 H       1  LIG1        0.1654
     40 H         -12.9778    0.7015    0.0134 H       1  LIG1        0.0819
     41 H          -9.1944    3.5847    0.0084 H       1  LIG1        0.0651
     42 C         -12.1714    3.5606    0.0152 C.1     1  LIG1       -0.0682
     43 C         -12.8930    4.5208    0.0179 C.1     1  LIG1       -0.1139
     44 H         -13.5359    5.3762    0.0203 H       1  LIG1        0.1232
@<TRIPOS>BOND
     1    18    13    1
     2     2     8    1
     3     2     1   ar
     4     2     3   ar
     5    13    12   ar
     6    13    14   ar
     7     4    12    1
     8     4     5   ar
     9     4     3   ar
    10     6     5    1
    11    17    16    1
    12    12    16   ar
    13     5     1   ar
    14     1     7    1
    15     3     9    1
    16    16    15   ar
    17    15    14   ar
    18    15    24    1
    19     9    10    3
    20    14    19    1
    21    29    27    1
    22    24    27   ar
    23    24    22   ar
    24    10    11    1
    25    30    22    1
    26    27    28   ar
    27    19    20    3
    28    22    23   ar
    29    20    21    1
    30    28    31    1
    31    28    25   ar
    32    31    32    3
    33    23    25   ar
    34    23    26    1
    35    32    33    1
    36    25    34    1
    37    34    35   ar
    38    34    38   ar
    39    39    38    1
    40    41    35    1
    41    35    36   ar
    42    38    37   ar
    43    37    36   ar
    44    37    40    1
    45    36    42    1
    46    42    43    3
    47    43    44    1
