@<TRIPOS>MOLECULE
mol_data/noopt/geoms/mol2/13ae13ae-13ae-13ae.out
 42 45 0 0 0
SMALL
GASTEIGER

@<TRIPOS>ATOM
      1 C           1.1215   -0.3259    0.0002 C.ar    1  LIG1        0.0034
      2 C           0.7176    0.9721   -0.0005 C.ar    1  LIG1       -0.0283
      3 C          -0.7144    0.9744    0.0003 C.ar    1  LIG1        0.0513
      4 C          -1.1226   -0.3223   -0.0003 C.ar    1  LIG1        0.0785
      5 N          -0.0018   -1.1217    0.0001 N.ar    1  LIG1       -0.3585
      6 H          -0.0034   -2.1157   -0.0003 H       1  LIG1        0.1654
      7 H           2.3167   -0.8373    0.0007 H       1  LIG1        0.0807
      8 H           1.4918    2.0164   -0.0003 H       1  LIG1        0.0645
      9 C          -1.4853    2.0212    0.0010 C.1     1  LIG1       -0.0675
     10 C          -2.1976    2.9884    0.0016 C.1     1  LIG1       -0.1138
     11 H          -2.8321    3.8500    0.0022 H       1  LIG1        0.1232
     12 C          -2.3194   -0.8299   -0.0001 C.ar    1  LIG1        0.0657
     13 C          -2.7274   -2.1266   -0.0005 C.ar    1  LIG1       -0.0189
     14 C          -4.1594   -2.1244    0.0011 C.ar    1  LIG1        0.0520
     15 C          -4.5635   -0.8264    0.0006 C.ar    1  LIG1        0.0790
     16 N          -3.4402   -0.0305    0.0003 N.ar    1  LIG1       -0.3509
     17 H          -3.4386    0.9635   -0.0001 H       1  LIG1        0.1660
     18 H          -1.9565   -3.1734   -0.0006 H       1  LIG1        0.0652
     19 C          -4.9336   -3.1687    0.0023 C.1     1  LIG1       -0.0675
     20 C          -5.6490   -4.1337    0.0035 C.1     1  LIG1       -0.1138
     21 H          -6.2862   -4.9932    0.0045 H       1  LIG1        0.1232
     22 C          -5.7587   -0.3150    0.0014 C.ar    1  LIG1        0.0658
     23 C          -6.9765   -0.9191    0.0015 C.ar    1  LIG1       -0.0189
     24 C          -7.9670    0.1151    0.0037 C.ar    1  LIG1        0.0520
     25 C          -7.3109    1.3057    0.0031 C.ar    1  LIG1        0.0790
     26 N          -5.9587    1.0470    0.0022 N.ar    1  LIG1       -0.3509
     27 H          -5.2408    1.7345    0.0016 H       1  LIG1        0.1660
     28 H          -7.1973   -2.2002    0.0012 H       1  LIG1        0.0652
     29 C          -9.2564   -0.0501    0.0054 C.1     1  LIG1       -0.0675
     30 C         -10.4479   -0.2027    0.0070 C.1     1  LIG1       -0.1138
     31 H         -11.5092   -0.3387    0.0085 H       1  LIG1        0.1232
     32 C          -7.7701    2.5219    0.0044 C.ar    1  LIG1        0.0653
     33 C          -7.1139    3.7125    0.0049 C.ar    1  LIG1       -0.0195
     34 C          -8.1043    4.7467    0.0074 C.ar    1  LIG1        0.0426
     35 C          -9.3222    4.1427    0.0066 C.ar    1  LIG1        0.0177
     36 N          -9.1222    2.7807    0.0052 N.ar    1  LIG1       -0.3584
     37 H          -9.8401    2.0932    0.0043 H       1  LIG1        0.1654
     38 H         -10.5174    4.6541    0.0080 H       1  LIG1        0.0819
     39 H          -5.8244    3.8776    0.0047 H       1  LIG1        0.0651
     40 C          -7.8835    6.0278    0.0096 C.1     1  LIG1       -0.0682
     41 C          -7.6795    7.2116    0.0116 C.1     1  LIG1       -0.1139
     42 H          -7.4977    8.2660    0.0134 H       1  LIG1        0.1232
@<TRIPOS>BOND
     1    18    13    1
     2     2     8    1
     3     2     1   ar
     4     2     3   ar
     5    13    12   ar
     6    13    14   ar
     7     4    12    1
     8     4     5   ar
     9     4     3   ar
    10     6     5    1
    11    17    16    1
    12    12    16   ar
    13     5     1   ar
    14     1     7    1
    15     3     9    1
    16    16    15   ar
    17    15    14   ar
    18    15    22    1
    19     9    10    3
    20    14    19    1
    21    28    23    1
    22    22    23   ar
    23    22    26   ar
    24    23    24   ar
    25    27    26    1
    26    10    11    1
    27    26    25   ar
    28    19    20    3
    29    25    24   ar
    30    25    32    1
    31    20    21    1
    32    24    29    1
    33    37    36    1
    34    32    33   ar
    35    32    36   ar
    36    39    33    1
    37    33    34   ar
    38    36    35   ar
    39    29    30    3
    40    35    34   ar
    41    35    38    1
    42    30    31    1
    43    34    40    1
    44    40    41    3
    45    41    42    1
