@<TRIPOS>MOLECULE
mol_data/noopt/geoms/mol2/13ae4he(30)4fe(280)6da(300).out
 49 54 0 0 0
SMALL
GASTEIGER

@<TRIPOS>ATOM
      1 C           1.1215   -0.3259    0.0002 C.ar    1  LIG1        0.0034
      2 C           0.7176    0.9721   -0.0005 C.ar    1  LIG1       -0.0284
      3 C          -0.7144    0.9744    0.0003 C.ar    1  LIG1        0.0499
      4 C          -1.1226   -0.3223   -0.0003 C.ar    1  LIG1        0.0638
      5 N          -0.0018   -1.1217    0.0001 N.ar    1  LIG1       -0.3596
      6 H          -0.0034   -2.1157   -0.0003 H       1  LIG1        0.1654
      7 H           2.3167   -0.8373    0.0007 H       1  LIG1        0.0807
      8 H           1.4918    2.0164   -0.0003 H       1  LIG1        0.0645
      9 C          -1.4853    2.0212    0.0010 C.1     1  LIG1       -0.0675
     10 C          -2.1976    2.9884    0.0016 C.1     1  LIG1       -0.1138
     11 H          -2.8321    3.8500    0.0022 H       1  LIG1        0.1232
     12 C          -3.3792   -0.1298    0.6119 C.ar    1  LIG1        0.0345
     13 C          -4.6563   -0.7228    0.5866 C.ar    1  LIG1       -0.0314
     14 C          -2.3194   -0.8299   -0.0001 C.ar    1  LIG1        0.0213
     15 C          -4.8712   -1.9578   -0.0211 C.ar    1  LIG1        0.0028
     16 H          -5.4882   -0.1998    1.0531 H       1  LIG1        0.0643
     17 C          -2.5333   -2.0628   -0.6069 C.ar    1  LIG1       -0.0348
     18 C          -3.8095   -2.6352   -0.6220 C.ar    1  LIG1        0.0332
     19 H          -1.6998   -2.5830   -1.0720 H       1  LIG1        0.0637
     20 N          -3.2410    1.0245    1.1937 N.pl3   1  LIG1       -0.3574
     21 H          -2.3698    1.4328    0.9214 H       1  LIG1        0.1423
     22 H          -3.9912    1.6270    0.9213 H       1  LIG1        0.1423
     23 C          -4.0034   -3.7881   -1.1906 C.1     1  LIG1       -0.0690
     24 C          -4.1826   -4.8533   -1.7159 C.1     1  LIG1       -0.1139
     25 H          -4.3422   -5.8022   -2.1839 H       1  LIG1        0.1232
     26 C          -6.7883   -2.5588   -1.2325 C.ar    1  LIG1        0.1252
     27 C          -8.0759   -3.1270   -1.1848 C.ar    1  LIG1       -0.0112
     28 C          -6.0633   -2.4760   -0.0261 C.ar    1  LIG1        0.0254
     29 C          -8.6196   -3.5934    0.0100 C.ar    1  LIG1       -0.0048
     30 H          -8.6526   -3.2005   -2.1042 H       1  LIG1        0.0660
     31 C          -6.6056   -2.9414    1.1670 C.ar    1  LIG1       -0.0424
     32 C          -7.8863   -3.5031    1.1938 C.ar    1  LIG1       -0.0095
     33 H          -6.0268   -2.8663    2.0840 H       1  LIG1        0.0631
     34 O          -6.3348   -2.1415   -2.3772 O.3     1  LIG1       -0.5061
     35 H          -6.8358   -1.3727   -2.6593 H       1  LIG1        0.2922
     36 C          -8.3881   -3.9363    2.3121 C.ar    1  LIG1        0.0092
     37 C          -8.8517   -4.3367    3.3453 C.3     1  LIG1        0.0943
     38 H          -9.2647   -4.6933    4.2658 H       1  LIG1        0.0591
     39 C         -10.2152   -4.9507    1.0730 C.ar    1  LIG1        0.0944
     40 C          -9.8114   -4.1125    0.0176 C.ar    1  LIG1        0.0101
     41 C         -10.7172   -3.8545   -1.0129 C.ar    1  LIG1       -0.0505
     42 C         -11.9844   -4.4373   -0.9553 C.ar    1  LIG1       -0.0430
     43 C         -12.2951   -5.2618    0.1416 C.ar    1  LIG1        0.0283
     44 N         -11.4335   -5.5212    1.1444 N.ar    1  LIG1       -0.2530
     45 H         -10.4371   -3.2053   -1.8545 H       1  LIG1        0.0625
     46 H         -13.4617   -5.8268    0.2400 H       1  LIG1        0.0830
     47 N          -8.6950   -5.4582    2.9215 N.pl3   1  LIG1       -0.2379
     48 C          -9.4075   -5.2204    2.0552 C.ar    1  LIG1        0.0801
     49 H         -12.8633   -4.2283   -1.8901 H       1  LIG1        0.0633
@<TRIPOS>BOND
     1    35    34    1
     2    34    26    1
     3    25    24    1
     4    30    27    1
     5    49    42    1
     6    45    41    1
     7    24    23    3
     8    26    27   ar
     9    26    28   ar
    10    23    18    1
    11    27    29   ar
    12    19    17    1
    13    41    42   ar
    14    41    40   ar
    15    42    43   ar
    16    18    17   ar
    17    18    15   ar
    18    17    14   ar
    19    28    15    1
    20    28    31   ar
    21    15    13   ar
    22     2     8    1
    23     2     1   ar
    24     2     3   ar
    25     6     5    1
    26     4    14    1
    27     4     5   ar
    28     4     3   ar
    29    14    12   ar
    30     5     1   ar
    31     1     7    1
    32     3     9    1
    33     9    10    3
    34    10    11    1
    35    29    40   ar
    36    29    32   ar
    37    40    39   ar
    38    43    46    1
    39    43    44   ar
    40    13    12   ar
    41    13    16    1
    42    12    20    1
    43    22    20    1
    44    21    20    1
    45    39    44   ar
    46    39    48   ar
    47    31    32   ar
    48    31    33    1
    49    32    36   ar
    50    48    36   ar
    51    48    47    1
    52    36    37    1
    53    47    37    1
    54    37    38    1
