@<TRIPOS>MOLECULE
mol_data/noopt/geoms/mol2/13af6hi(330)13eh(230)12li(10).out
 51 54 0 0 0
SMALL
GASTEIGER

@<TRIPOS>ATOM
      1 C           1.1215   -0.3259    0.0002 C.ar    1  LIG1        0.0057
      2 C           0.7176    0.9721   -0.0005 C.ar    1  LIG1       -0.0022
      3 C          -0.7144    0.9744    0.0003 C.ar    1  LIG1        0.1421
      4 C          -1.1226   -0.3223   -0.0003 C.ar    1  LIG1        0.0918
      5 N          -0.0018   -1.1217    0.0001 N.ar    1  LIG1       -0.3576
      6 H          -0.0034   -2.1157   -0.0003 H       1  LIG1        0.1654
      7 H           2.3167   -0.8373    0.0007 H       1  LIG1        0.0808
      8 H           1.4918    2.0164   -0.0003 H       1  LIG1        0.0669
      9 O          -1.4853    2.0212    0.0010 O.3     1  LIG1       -0.5046
     10 H          -2.4040    1.7426    0.0012 H       1  LIG1        0.2922
     11 C          -2.5634   -2.0755    0.6067 C.ar    1  LIG1        0.1262
     12 C          -2.3194   -0.8299   -0.0001 C.ar    1  LIG1        0.0417
     13 C          -3.3879   -0.1584   -0.5971 C.ar    1  LIG1       -0.0442
     14 C          -4.6527   -0.7483   -0.5683 C.ar    1  LIG1       -0.0223
     15 C          -4.7968   -1.9975    0.0627 C.ar    1  LIG1        0.0934
     16 N          -3.7770   -2.6592    0.6436 N.ar    1  LIG1       -0.2300
     17 H          -3.2355    0.8164   -1.0817 H       1  LIG1        0.0628
     18 N          -1.6009   -2.7388    1.1756 N.pl3   1  LIG1       -0.3426
     19 H          -1.6475   -3.6982    0.8975 H       1  LIG1        0.1437
     20 H          -0.7209   -2.3536    0.8975 H       1  LIG1        0.1437
     21 C          -5.6798   -0.1633   -1.1102 C.3     1  LIG1       -0.0376
     22 H          -6.5766   -0.6579   -0.8004 H       1  LIG1        0.0278
     23 H          -5.5962   -0.2109   -2.1759 H       1  LIG1        0.0278
     24 H          -5.7117    0.8604   -0.8004 H       1  LIG1        0.0278
     25 C          -5.9544   -2.5869    0.1153 C.ar    1  LIG1        0.0832
     26 C          -6.4508   -3.6224   -0.6122 C.ar    1  LIG1        0.0727
     27 C          -7.7810   -3.8741   -0.1455 C.ar    1  LIG1        0.0696
     28 C          -8.0383   -2.9825    0.8480 C.ar    1  LIG1        0.1084
     29 N          -6.9228   -2.1923    1.0106 N.ar    1  LIG1       -0.3480
     30 H          -6.8310   -1.4543    1.6702 H       1  LIG1        0.1661
     31 C          -5.8298   -4.2626   -1.5580 C.1     1  LIG1       -0.0656
     32 C          -5.2560   -4.8542   -2.4318 C.1     1  LIG1       -0.1138
     33 H          -4.7449   -5.3812   -3.2103 H       1  LIG1        0.1232
     34 N          -8.5951   -4.7862   -0.5873 N.pl3   1  LIG1       -0.3553
     35 H          -9.3063   -4.3568   -1.1440 H       1  LIG1        0.1424
     36 H          -8.0881   -5.4442   -1.1440 H       1  LIG1        0.1424
     37 C          -9.1021   -2.8147    1.5761 C.ar    1  LIG1        0.1943
     38 C          -9.6761   -1.7562    2.2492 C.ar    1  LIG1        0.1700
     39 C         -10.8807   -2.2645    2.8715 C.ar    1  LIG1        0.0297
     40 C         -10.9631   -3.6006    2.5371 C.ar    1  LIG1        0.0992
     41 O          -9.8778   -3.9634    1.7388 O.2     1  LIG1       -0.4573
     42 H         -11.7939   -4.5686    2.7875 H       1  LIG1        0.1033
     43 O          -9.2423   -0.5330    2.3264 O.3     1  LIG1       -0.4910
     44 C          -7.8126   -0.5346    2.3547 C.3     1  LIG1        0.0790
     45 H          -7.4560    0.4723    2.4181 H       1  LIG1        0.0660
     46 H          -7.4732   -1.0873    3.2057 H       1  LIG1        0.0660
     47 H          -7.4386   -0.9898    1.4615 H       1  LIG1        0.0660
     48 C         -11.7072   -1.5734    3.5996 C.3     1  LIG1       -0.0332
     49 H         -12.2777   -2.2352    4.2172 H       1  LIG1        0.0280
     50 H         -12.3673   -1.0215    2.9634 H       1  LIG1        0.0280
     51 H         -11.1568   -0.8948    4.2171 H       1  LIG1        0.0280
@<TRIPOS>BOND
     1    33    32    1
     2    32    31    3
     3    23    21    1
     4    31    26    1
     5    36    34    1
     6    35    34    1
     7    21    24    1
     8    21    22    1
     9    21    14    1
    10    17    13    1
    11    26    27   ar
    12    26    25   ar
    13    13    14   ar
    14    13    12   ar
    15    34    27    1
    16    14    15   ar
    17    27    28   ar
    18     2     8    1
    19     2     1   ar
    20     2     3   ar
    21     4    12    1
    22     4     5   ar
    23     4     3   ar
    24     6     5    1
    25    12    11   ar
    26     5     1   ar
    27     1     7    1
    28     3     9    1
    29     9    10    1
    30    15    25    1
    31    15    16   ar
    32    25    29   ar
    33    11    16   ar
    34    11    18    1
    35    28    29   ar
    36    28    37    1
    37    20    18    1
    38    19    18    1
    39    29    30    1
    40    47    44    1
    41    37    41   ar
    42    37    38   ar
    43    41    40   ar
    44    38    43    1
    45    38    39   ar
    46    43    44    1
    47    44    45    1
    48    44    46    1
    49    40    42    1
    50    40    39   ar
    51    39    48    1
    52    50    48    1
    53    48    51    1
    54    48    49    1
