@<TRIPOS>MOLECULE
mol_data/noopt/geoms/mol2/13af13af.out
 20 21 0 0 0
SMALL
GASTEIGER

@<TRIPOS>ATOM
      1 C           1.1215   -0.3259    0.0002 C.ar    1  LIG1        0.0058
      2 C           0.7176    0.9721   -0.0005 C.ar    1  LIG1       -0.0021
      3 C          -0.7144    0.9744    0.0003 C.ar    1  LIG1        0.1434
      4 C          -1.1226   -0.3223   -0.0003 C.ar    1  LIG1        0.1050
      5 N          -0.0018   -1.1217    0.0001 N.ar    1  LIG1       -0.3566
      6 H          -0.0034   -2.1157   -0.0003 H       1  LIG1        0.1655
      7 H           2.3167   -0.8373    0.0007 H       1  LIG1        0.0808
      8 H           1.4918    2.0164   -0.0003 H       1  LIG1        0.0669
      9 O          -1.4853    2.0212    0.0010 O.3     1  LIG1       -0.5046
     10 H          -2.4040    1.7426    0.0012 H       1  LIG1        0.2922
     11 C          -2.3194   -0.8299   -0.0001 C.ar    1  LIG1        0.0700
     12 C          -3.5353   -0.2219   -0.0003 C.ar    1  LIG1        0.0067
     13 C          -4.5290   -1.2530    0.0012 C.ar    1  LIG1        0.1347
     14 C          -3.8767   -2.4457    0.0005 C.ar    1  LIG1        0.0442
     15 N          -2.5238   -2.1913    0.0002 N.ar    1  LIG1       -0.3564
     16 H          -1.8081   -2.8811   -0.0004 H       1  LIG1        0.1655
     17 H          -4.3398   -3.6604    0.0012 H       1  LIG1        0.0844
     18 H          -3.7520    1.0599   -0.0003 H       1  LIG1        0.0676
     19 O          -5.8180   -1.0837    0.0025 O.3     1  LIG1       -0.5053
     20 H          -6.2535   -1.9392    0.0028 H       1  LIG1        0.2922
@<TRIPOS>BOND
     1     2     8    1
     2     2     1   ar
     3     2     3   ar
     4    16    15    1
     5    12    18    1
     6    12    11   ar
     7    12    13   ar
     8     4    11    1
     9     4     5   ar
    10     4     3   ar
    11     6     5    1
    12    11    15   ar
    13     5     1   ar
    14    15    14   ar
    15     1     7    1
    16     3     9    1
    17    14    13   ar
    18    14    17    1
    19     9    10    1
    20    13    19    1
    21    19    20    1
