@<TRIPOS>MOLECULE
mol_data/noopt/geoms/mol2/13af13af-.out
 20 21 0 0 0
SMALL
GASTEIGER

@<TRIPOS>ATOM
      1 C           1.1215   -0.3259    0.0002 C.ar    1  LIG1        0.0058
      2 C           0.7176    0.9721   -0.0005 C.ar    1  LIG1       -0.0021
      3 C          -0.7144    0.9744    0.0003 C.ar    1  LIG1        0.1434
      4 C          -1.1226   -0.3223   -0.0003 C.ar    1  LIG1        0.1050
      5 N          -0.0018   -1.1217    0.0001 N.ar    1  LIG1       -0.3566
      6 H          -0.0034   -2.1157   -0.0003 H       1  LIG1        0.1655
      7 H           2.3167   -0.8373    0.0007 H       1  LIG1        0.0808
      8 H           1.4918    2.0164   -0.0003 H       1  LIG1        0.0669
      9 O          -1.4853    2.0212    0.0010 O.3     1  LIG1       -0.5046
     10 H          -2.4040    1.7426    0.0012 H       1  LIG1        0.2922
     11 C          -2.3194   -0.8299   -0.0001 C.ar    1  LIG1        0.0700
     12 C          -2.7274   -2.1266   -0.0005 C.ar    1  LIG1        0.0067
     13 C          -4.1594   -2.1244    0.0011 C.ar    1  LIG1        0.1347
     14 C          -4.5635   -0.8264    0.0006 C.ar    1  LIG1        0.0442
     15 N          -3.4402   -0.0305    0.0003 N.ar    1  LIG1       -0.3564
     16 H          -3.4386    0.9635   -0.0001 H       1  LIG1        0.1655
     17 H          -5.7587   -0.3150    0.0014 H       1  LIG1        0.0844
     18 H          -1.9565   -3.1734   -0.0006 H       1  LIG1        0.0676
     19 O          -4.9337   -3.1687    0.0023 O.3     1  LIG1       -0.5053
     20 H          -4.3975   -3.9651    0.0026 H       1  LIG1        0.2922
@<TRIPOS>BOND
     1    18    12    1
     2     2     8    1
     3     2     1   ar
     4     2     3   ar
     5    12    11   ar
     6    12    13   ar
     7     4    11    1
     8     4     5   ar
     9     4     3   ar
    10     6     5    1
    11    16    15    1
    12    11    15   ar
    13     5     1   ar
    14     1     7    1
    15     3     9    1
    16    15    14   ar
    17    14    13   ar
    18    14    17    1
    19     9    10    1
    20    13    19    1
    21    19    20    1
