@<TRIPOS>MOLECULE
mol_data/noopt/geoms/mol2/13af13af-13af-13af.out
 38 41 0 0 0
SMALL
GASTEIGER

@<TRIPOS>ATOM
      1 C           1.1215   -0.3259    0.0002 C.ar    1  LIG1        0.0058
      2 C           0.7176    0.9721   -0.0005 C.ar    1  LIG1       -0.0021
      3 C          -0.7144    0.9744    0.0003 C.ar    1  LIG1        0.1434
      4 C          -1.1226   -0.3223   -0.0003 C.ar    1  LIG1        0.1050
      5 N          -0.0018   -1.1217    0.0001 N.ar    1  LIG1       -0.3566
      6 H          -0.0034   -2.1157   -0.0003 H       1  LIG1        0.1655
      7 H           2.3167   -0.8373    0.0007 H       1  LIG1        0.0808
      8 H           1.4918    2.0164   -0.0003 H       1  LIG1        0.0669
      9 O          -1.4853    2.0212    0.0010 O.3     1  LIG1       -0.5046
     10 H          -2.4040    1.7426    0.0012 H       1  LIG1        0.2922
     11 C          -2.3194   -0.8299   -0.0001 C.ar    1  LIG1        0.0705
     12 C          -2.7274   -2.1266   -0.0005 C.ar    1  LIG1        0.0074
     13 C          -4.1594   -2.1244    0.0011 C.ar    1  LIG1        0.1441
     14 C          -4.5635   -0.8264    0.0006 C.ar    1  LIG1        0.1055
     15 N          -3.4402   -0.0305    0.0003 N.ar    1  LIG1       -0.3488
     16 H          -3.4386    0.9635   -0.0001 H       1  LIG1        0.1661
     17 H          -1.9565   -3.1734   -0.0006 H       1  LIG1        0.0676
     18 O          -4.9337   -3.1687    0.0023 O.3     1  LIG1       -0.5046
     19 H          -4.3975   -3.9651    0.0026 H       1  LIG1        0.2922
     20 C          -5.7587   -0.3150    0.0014 C.ar    1  LIG1        0.0705
     21 C          -6.9765   -0.9191    0.0015 C.ar    1  LIG1        0.0074
     22 C          -7.9670    0.1151    0.0037 C.ar    1  LIG1        0.1441
     23 C          -7.3109    1.3057    0.0031 C.ar    1  LIG1        0.1054
     24 N          -5.9587    1.0470    0.0022 N.ar    1  LIG1       -0.3488
     25 H          -5.2408    1.7345    0.0016 H       1  LIG1        0.1661
     26 H          -7.1973   -2.2002    0.0012 H       1  LIG1        0.0676
     27 O          -9.2565   -0.0501    0.0054 O.3     1  LIG1       -0.5046
     28 H          -9.4593   -0.9884    0.0059 H       1  LIG1        0.2922
     29 C          -7.7701    2.5219    0.0044 C.ar    1  LIG1        0.0701
     30 C          -7.1139    3.7125    0.0049 C.ar    1  LIG1        0.0067
     31 C          -8.1043    4.7467    0.0074 C.ar    1  LIG1        0.1347
     32 C          -9.3222    4.1427    0.0066 C.ar    1  LIG1        0.0442
     33 N          -9.1222    2.7807    0.0052 N.ar    1  LIG1       -0.3564
     34 H          -9.8401    2.0932    0.0043 H       1  LIG1        0.1655
     35 H         -10.5174    4.6541    0.0080 H       1  LIG1        0.0844
     36 H          -5.8244    3.8776    0.0047 H       1  LIG1        0.0676
     37 O          -7.8835    6.0279    0.0096 O.3     1  LIG1       -0.5053
     38 H          -8.7209    6.4973    0.0102 H       1  LIG1        0.2922
@<TRIPOS>BOND
     1    17    12    1
     2     2     8    1
     3     2     1   ar
     4     2     3   ar
     5    12    11   ar
     6    12    13   ar
     7     4    11    1
     8     4     5   ar
     9     4     3   ar
    10     6     5    1
    11    16    15    1
    12    11    15   ar
    13     5     1   ar
    14     1     7    1
    15     3     9    1
    16    15    14   ar
    17    14    13   ar
    18    14    20    1
    19     9    10    1
    20    13    18    1
    21    26    21    1
    22    20    21   ar
    23    20    24   ar
    24    21    22   ar
    25    25    24    1
    26    24    23   ar
    27    18    19    1
    28    23    22   ar
    29    23    29    1
    30    22    27    1
    31    34    33    1
    32    29    30   ar
    33    29    33   ar
    34    36    30    1
    35    30    31   ar
    36    33    32   ar
    37    27    28    1
    38    32    31   ar
    39    32    35    1
    40    31    37    1
    41    37    38    1
