@<TRIPOS>MOLECULE
mol_data/noopt/geoms/mol2/13af13af13af13af-.out
 38 41 0 0 0
SMALL
GASTEIGER

@<TRIPOS>ATOM
      1 C           1.1215   -0.3259    0.0002 C.ar    1  LIG1        0.0058
      2 C           0.7176    0.9721   -0.0005 C.ar    1  LIG1       -0.0021
      3 C          -0.7144    0.9744    0.0003 C.ar    1  LIG1        0.1434
      4 C          -1.1226   -0.3223   -0.0003 C.ar    1  LIG1        0.1050
      5 N          -0.0018   -1.1217    0.0001 N.ar    1  LIG1       -0.3566
      6 H          -0.0034   -2.1157   -0.0003 H       1  LIG1        0.1655
      7 H           2.3167   -0.8373    0.0007 H       1  LIG1        0.0808
      8 H           1.4918    2.0164   -0.0003 H       1  LIG1        0.0669
      9 O          -1.4853    2.0212    0.0010 O.3     1  LIG1       -0.5046
     10 H          -2.4040    1.7426    0.0012 H       1  LIG1        0.2922
     11 C          -2.3194   -0.8299   -0.0001 C.ar    1  LIG1        0.0705
     12 C          -3.5353   -0.2219   -0.0003 C.ar    1  LIG1        0.0074
     13 C          -4.5290   -1.2530    0.0012 C.ar    1  LIG1        0.1441
     14 C          -3.8767   -2.4457    0.0005 C.ar    1  LIG1        0.1055
     15 N          -2.5238   -2.1913    0.0002 N.ar    1  LIG1       -0.3488
     16 H          -1.8081   -2.8811   -0.0004 H       1  LIG1        0.1661
     17 H          -3.7520    1.0599   -0.0003 H       1  LIG1        0.0676
     18 O          -5.8180   -1.0837    0.0025 O.3     1  LIG1       -0.5046
     19 H          -6.2535   -1.9392    0.0028 H       1  LIG1        0.2922
     20 C          -4.3398   -3.6604    0.0012 C.ar    1  LIG1        0.0705
     21 C          -5.6206   -4.1160    0.0013 C.ar    1  LIG1        0.0074
     22 C          -5.5655   -5.5470    0.0033 C.ar    1  LIG1        0.1441
     23 C          -4.2535   -5.9029    0.0026 C.ar    1  LIG1        0.1054
     24 N          -3.4996   -4.7510    0.0018 N.ar    1  LIG1       -0.3488
     25 H          -2.5064   -4.7127    0.0010 H       1  LIG1        0.1661
     26 H          -6.6951   -3.3843    0.0012 H       1  LIG1        0.0676
     27 O          -6.5806   -6.3592    0.0050 O.3     1  LIG1       -0.5046
     28 H          -6.2653   -7.2660    0.0054 H       1  LIG1        0.2922
     29 C          -3.6983   -7.0784    0.0036 C.ar    1  LIG1        0.0701
     30 C          -2.3863   -7.4341    0.0038 C.ar    1  LIG1        0.0067
     31 C          -2.3311   -8.8651    0.0062 C.ar    1  LIG1        0.1347
     32 C          -3.6119   -9.3208    0.0056 C.ar    1  LIG1        0.0442
     33 N          -4.4521   -8.2303    0.0045 N.ar    1  LIG1       -0.3564
     34 H          -5.4454   -8.2686    0.0038 H       1  LIG1        0.1655
     35 H          -4.0750  -10.5356    0.0070 H       1  LIG1        0.0844
     36 H          -1.3713   -6.6219    0.0035 H       1  LIG1        0.0676
     37 O          -1.2566   -9.5968    0.0081 O.3     1  LIG1       -0.5053
     38 H          -0.4824   -9.0292    0.0086 H       1  LIG1        0.2922
@<TRIPOS>BOND
     1     2     8    1
     2     2     1   ar
     3     2     3   ar
     4    16    15    1
     5    12    17    1
     6    12    11   ar
     7    12    13   ar
     8     4    11    1
     9     4     5   ar
    10     4     3   ar
    11     6     5    1
    12    11    15   ar
    13     5     1   ar
    14    15    14   ar
    15     1     7    1
    16     3     9    1
    17    14    13   ar
    18    14    20    1
    19    25    24    1
    20     9    10    1
    21    13    18    1
    22    20    21   ar
    23    20    24   ar
    24    26    21    1
    25    21    22   ar
    26    24    23   ar
    27    18    19    1
    28    23    22   ar
    29    23    29    1
    30    22    27    1
    31    36    30    1
    32    29    30   ar
    33    29    33   ar
    34    34    33    1
    35    30    31   ar
    36    33    32   ar
    37    27    28    1
    38    32    31   ar
    39    32    35    1
    40    31    37    1
    41    37    38    1
