@<TRIPOS>MOLECULE
mol_data/noopt/geoms/mol2/13ag13ag-13ag-.out
 29 31 0 0 0
SMALL
GASTEIGER

@<TRIPOS>ATOM
      1 C           1.1215   -0.3259    0.0002 C.ar    1  LIG1        0.0033
      2 C           0.7176    0.9721   -0.0005 C.ar    1  LIG1       -0.0305
      3 C          -0.7144    0.9744    0.0003 C.ar    1  LIG1        0.0315
      4 C          -1.1226   -0.3223   -0.0003 C.ar    1  LIG1        0.0762
      5 N          -0.0018   -1.1217    0.0001 N.ar    1  LIG1       -0.3586
      6 H          -0.0034   -2.1157   -0.0003 H       1  LIG1        0.1654
      7 H           2.3167   -0.8373    0.0007 H       1  LIG1        0.0807
      8 H           1.4918    2.0164   -0.0003 H       1  LIG1        0.0644
      9 S          -1.4853    2.0211    0.0010 S.3     1  LIG1       -0.1405
     10 H          -2.7389    1.6410    0.0012 H       1  LIG1        0.1072
     11 C          -2.3194   -0.8299   -0.0001 C.ar    1  LIG1        0.0655
     12 C          -3.5353   -0.2219   -0.0003 C.ar    1  LIG1       -0.0211
     13 C          -4.5290   -1.2530    0.0012 C.ar    1  LIG1        0.0321
     14 C          -3.8767   -2.4457    0.0005 C.ar    1  LIG1        0.0767
     15 N          -2.5238   -2.1913    0.0002 N.ar    1  LIG1       -0.3510
     16 H          -1.8081   -2.8811   -0.0004 H       1  LIG1        0.1660
     17 H          -3.7520    1.0599   -0.0003 H       1  LIG1        0.0650
     18 S          -5.8179   -1.0837    0.0025 S.3     1  LIG1       -0.1405
     19 H          -6.4122   -2.2511    0.0029 H       1  LIG1        0.1072
     20 C          -4.3398   -3.6604    0.0012 C.ar    1  LIG1        0.0650
     21 C          -5.6205   -4.1161    0.0179 C.ar    1  LIG1       -0.0218
     22 C          -5.5654   -5.5470    0.0109 C.ar    1  LIG1        0.0227
     23 C          -4.2536   -5.9029   -0.0115 C.ar    1  LIG1        0.0154
     24 N          -3.4998   -4.7509   -0.0171 N.ar    1  LIG1       -0.3585
     25 H          -2.5066   -4.7126   -0.0325 H       1  LIG1        0.1654
     26 H          -3.6985   -7.0783   -0.0256 H       1  LIG1        0.0818
     27 H          -6.6948   -3.3844    0.0381 H       1  LIG1        0.0650
     28 S          -6.5803   -6.3592    0.0232 S.3     1  LIG1       -0.1412
     29 H          -6.1501   -7.5966    0.0273 H       1  LIG1        0.1072
@<TRIPOS>BOND
     1    25    24    1
     2    26    23    1
     3    24    23   ar
     4    24    20   ar
     5    23    22   ar
     6     2     8    1
     7     2     1   ar
     8     2     3   ar
     9    16    15    1
    10    12    17    1
    11    12    11   ar
    12    12    13   ar
    13     4    11    1
    14     4     5   ar
    15     4     3   ar
    16     6     5    1
    17    11    15   ar
    18     5     1   ar
    19    15    14   ar
    20     1     7    1
    21     3     9    1
    22    14    13   ar
    23    14    20    1
    24     9    10    1
    25    13    18    1
    26    20    21   ar
    27    18    19    1
    28    22    21   ar
    29    22    28    1
    30    21    27    1
    31    28    29    1
