@<TRIPOS>MOLECULE
mol_data/noopt/geoms/mol2/13ag13ag13ag-13ag-.out
 38 41 0 0 0
SMALL
GASTEIGER

@<TRIPOS>ATOM
      1 C           1.1215   -0.3259    0.0002 C.ar    1  LIG1        0.0033
      2 C           0.7176    0.9721   -0.0005 C.ar    1  LIG1       -0.0305
      3 C          -0.7144    0.9744    0.0003 C.ar    1  LIG1        0.0315
      4 C          -1.1226   -0.3223   -0.0003 C.ar    1  LIG1        0.0762
      5 N          -0.0018   -1.1217    0.0001 N.ar    1  LIG1       -0.3586
      6 H          -0.0034   -2.1157   -0.0003 H       1  LIG1        0.1654
      7 H           2.3167   -0.8373    0.0007 H       1  LIG1        0.0807
      8 H           1.4918    2.0164   -0.0003 H       1  LIG1        0.0644
      9 S          -1.4853    2.0211    0.0010 S.3     1  LIG1       -0.1405
     10 H          -2.7389    1.6410    0.0012 H       1  LIG1        0.1072
     11 C          -2.3194   -0.8299   -0.0001 C.ar    1  LIG1        0.0655
     12 C          -3.5352   -0.2220    0.0163 C.ar    1  LIG1       -0.0211
     13 C          -4.5290   -1.2531    0.0088 C.ar    1  LIG1        0.0321
     14 C          -3.8768   -2.4456   -0.0136 C.ar    1  LIG1        0.0767
     15 N          -2.5238   -2.1911   -0.0187 N.ar    1  LIG1       -0.3510
     16 H          -1.8082   -2.8808   -0.0339 H       1  LIG1        0.1660
     17 H          -3.7519    1.0596    0.0366 H       1  LIG1        0.0650
     18 S          -5.8178   -1.0839    0.0207 S.3     1  LIG1       -0.1405
     19 H          -6.4121   -2.2513    0.0247 H       1  LIG1        0.1072
     20 C          -4.3399   -3.6602   -0.0280 C.ar    1  LIG1        0.0655
     21 C          -5.6206   -4.1159   -0.0215 C.ar    1  LIG1       -0.0211
     22 C          -5.5656   -5.5467   -0.0437 C.ar    1  LIG1        0.0321
     23 C          -4.2537   -5.9024   -0.0646 C.ar    1  LIG1        0.0767
     24 N          -3.4998   -4.7505   -0.0546 N.ar    1  LIG1       -0.3510
     25 H          -2.5066   -4.7122   -0.0655 H       1  LIG1        0.1660
     26 H          -6.6950   -3.3844    0.0022 H       1  LIG1        0.0650
     27 S          -6.5806   -6.3589   -0.0444 S.3     1  LIG1       -0.1405
     28 H          -6.1504   -7.5963   -0.0446 H       1  LIG1        0.1072
     29 C          -3.6986   -7.0777   -0.0891 C.ar    1  LIG1        0.0650
     30 C          -4.2575   -8.3168   -0.1060 C.ar    1  LIG1       -0.0218
     31 C          -3.1875   -9.2682   -0.1295 C.ar    1  LIG1        0.0227
     32 C          -2.0219   -8.5687   -0.1276 C.ar    1  LIG1        0.0154
     33 N          -2.3302   -7.2272   -0.1024 N.ar    1  LIG1       -0.3585
     34 H          -1.6696   -6.4845   -0.0957 H       1  LIG1        0.1654
     35 H          -0.7896   -8.9826   -0.1440 H       1  LIG1        0.0818
     36 H          -5.5295   -8.5848   -0.1003 H       1  LIG1        0.0650
     37 S          -3.3051  -10.5627   -0.1495 S.3     1  LIG1       -0.1412
     38 H          -2.1148  -11.1098   -0.1562 H       1  LIG1        0.1072
@<TRIPOS>BOND
     1    38    37    1
     2    37    31    1
     3    35    32    1
     4    31    32   ar
     5    31    30   ar
     6    32    33   ar
     7    30    36    1
     8    30    29   ar
     9    33    34    1
    10    33    29   ar
    11    29    23    1
    12    25    24    1
    13    23    24   ar
    14    23    22   ar
    15    24    20   ar
    16    28    27    1
    17    27    22    1
    18    22    21   ar
    19    16    15    1
    20    20    21   ar
    21    20    14    1
    22    21    26    1
    23    15    14   ar
    24    15    11   ar
    25    14    13   ar
    26     2     8    1
    27     2     1   ar
    28     2     3   ar
    29     4    11    1
    30     4     5   ar
    31     4     3   ar
    32     6     5    1
    33    11    12   ar
    34     5     1   ar
    35     1     7    1
    36     3     9    1
    37     9    10    1
    38    13    12   ar
    39    13    18    1
    40    12    17    1
    41    18    19    1
