@<TRIPOS>MOLECULE
mol_data/noopt/geoms/mol2/13ag13ag.out
 20 21 0 0 0
SMALL
GASTEIGER

@<TRIPOS>ATOM
      1 C           1.1215   -0.3259    0.0002 C.ar    1  LIG1        0.0033
      2 C           0.7176    0.9721   -0.0005 C.ar    1  LIG1       -0.0305
      3 C          -0.7144    0.9744    0.0003 C.ar    1  LIG1        0.0315
      4 C          -1.1226   -0.3223   -0.0003 C.ar    1  LIG1        0.0762
      5 N          -0.0018   -1.1217    0.0001 N.ar    1  LIG1       -0.3586
      6 H          -0.0034   -2.1157   -0.0003 H       1  LIG1        0.1654
      7 H           2.3167   -0.8373    0.0007 H       1  LIG1        0.0807
      8 H           1.4918    2.0164   -0.0003 H       1  LIG1        0.0644
      9 S          -1.4853    2.0211    0.0010 S.3     1  LIG1       -0.1405
     10 H          -2.7389    1.6410    0.0012 H       1  LIG1        0.1072
     11 C          -2.3194   -0.8299   -0.0001 C.ar    1  LIG1        0.0650
     12 C          -3.5352   -0.2220    0.0163 C.ar    1  LIG1       -0.0218
     13 C          -4.5290   -1.2531    0.0088 C.ar    1  LIG1        0.0227
     14 C          -3.8768   -2.4456   -0.0136 C.ar    1  LIG1        0.0154
     15 N          -2.5238   -2.1911   -0.0187 N.ar    1  LIG1       -0.3585
     16 H          -1.8082   -2.8808   -0.0339 H       1  LIG1        0.1654
     17 H          -4.3399   -3.6602   -0.0280 H       1  LIG1        0.0818
     18 H          -3.7519    1.0596    0.0366 H       1  LIG1        0.0650
     19 S          -5.8178   -1.0839    0.0207 S.3     1  LIG1       -0.1412
     20 H          -6.4121   -2.2513    0.0247 H       1  LIG1        0.1072
@<TRIPOS>BOND
     1    16    15    1
     2    17    14    1
     3    15    14   ar
     4    15    11   ar
     5    14    13   ar
     6     2     8    1
     7     2     1   ar
     8     2     3   ar
     9     4    11    1
    10     4     5   ar
    11     4     3   ar
    12     6     5    1
    13    11    12   ar
    14     5     1   ar
    15     1     7    1
    16     3     9    1
    17     9    10    1
    18    13    12   ar
    19    13    19    1
    20    12    18    1
    21    19    20    1
