@<TRIPOS>MOLECULE
mol_data/noopt/geoms/mol2/13ag13ag-13ag-13ag.out
 38 41 0 0 0
SMALL
GASTEIGER

@<TRIPOS>ATOM
      1 C           1.1215   -0.3259    0.0002 C.ar    1  LIG1        0.0033
      2 C           0.7176    0.9721   -0.0005 C.ar    1  LIG1       -0.0305
      3 C          -0.7144    0.9744    0.0003 C.ar    1  LIG1        0.0315
      4 C          -1.1226   -0.3223   -0.0003 C.ar    1  LIG1        0.0762
      5 N          -0.0018   -1.1217    0.0001 N.ar    1  LIG1       -0.3586
      6 H          -0.0034   -2.1157   -0.0003 H       1  LIG1        0.1654
      7 H           2.3167   -0.8373    0.0007 H       1  LIG1        0.0807
      8 H           1.4918    2.0164   -0.0003 H       1  LIG1        0.0644
      9 S          -1.4853    2.0211    0.0010 S.3     1  LIG1       -0.1405
     10 H          -2.7389    1.6410    0.0012 H       1  LIG1        0.1072
     11 C          -2.3194   -0.8299   -0.0001 C.ar    1  LIG1        0.0655
     12 C          -3.5353   -0.2219   -0.0003 C.ar    1  LIG1       -0.0211
     13 C          -4.5290   -1.2530    0.0012 C.ar    1  LIG1        0.0321
     14 C          -3.8767   -2.4457    0.0005 C.ar    1  LIG1        0.0767
     15 N          -2.5238   -2.1913    0.0002 N.ar    1  LIG1       -0.3510
     16 H          -1.8081   -2.8811   -0.0004 H       1  LIG1        0.1660
     17 H          -3.7520    1.0599   -0.0003 H       1  LIG1        0.0650
     18 S          -5.8179   -1.0837    0.0025 S.3     1  LIG1       -0.1405
     19 H          -6.4122   -2.2511    0.0029 H       1  LIG1        0.1072
     20 C          -4.3398   -3.6604    0.0012 C.ar    1  LIG1        0.0655
     21 C          -5.6205   -4.1161    0.0179 C.ar    1  LIG1       -0.0211
     22 C          -5.5654   -5.5470    0.0109 C.ar    1  LIG1        0.0321
     23 C          -4.2536   -5.9029   -0.0115 C.ar    1  LIG1        0.0767
     24 N          -3.4998   -4.7509   -0.0171 N.ar    1  LIG1       -0.3510
     25 H          -2.5066   -4.7126   -0.0325 H       1  LIG1        0.1660
     26 H          -6.6948   -3.3844    0.0381 H       1  LIG1        0.0650
     27 S          -6.5803   -6.3592    0.0232 S.3     1  LIG1       -0.1405
     28 H          -6.1501   -7.5966    0.0273 H       1  LIG1        0.1072
     29 C          -3.6985   -7.0783   -0.0256 C.ar    1  LIG1        0.0650
     30 C          -4.2572   -8.3176   -0.0188 C.ar    1  LIG1       -0.0218
     31 C          -3.1873   -9.2692   -0.0408 C.ar    1  LIG1        0.0227
     32 C          -2.0219   -8.5695   -0.0617 C.ar    1  LIG1        0.0154
     33 N          -2.3303   -7.2279   -0.0520 N.ar    1  LIG1       -0.3585
     34 H          -1.6699   -6.4851   -0.0630 H       1  LIG1        0.1654
     35 H          -0.7898   -8.9835   -0.0859 H       1  LIG1        0.0818
     36 H          -5.5291   -8.5856    0.0048 H       1  LIG1        0.0650
     37 S          -3.3048  -10.5638   -0.0412 S.3     1  LIG1       -0.1412
     38 H          -2.1145  -11.1108   -0.0413 H       1  LIG1        0.1072
@<TRIPOS>BOND
     1    35    32    1
     2    34    33    1
     3    32    33   ar
     4    32    31   ar
     5    33    29   ar
     6    38    37    1
     7    37    31    1
     8    31    30   ar
     9    25    24    1
    10    29    30   ar
    11    29    23    1
    12    30    36    1
    13    24    23   ar
    14    24    20   ar
    15    23    22   ar
    16     2     8    1
    17     2     1   ar
    18     2     3   ar
    19    16    15    1
    20    12    17    1
    21    12    11   ar
    22    12    13   ar
    23     6     5    1
    24     4    11    1
    25     4     5   ar
    26     4     3   ar
    27    11    15   ar
    28     5     1   ar
    29    15    14   ar
    30     1     7    1
    31     3     9    1
    32    14    13   ar
    33    14    20    1
    34     9    10    1
    35    13    18    1
    36    20    21   ar
    37    18    19    1
    38    22    21   ar
    39    22    27    1
    40    21    26    1
    41    27    28    1
