@<TRIPOS>MOLECULE
mol_data/noopt/geoms/mol2/13ag13ag-.out
 20 21 0 0 0
SMALL
GASTEIGER

@<TRIPOS>ATOM
      1 C           1.1215   -0.3259    0.0002 C.ar    1  LIG1        0.0033
      2 C           0.7176    0.9721   -0.0005 C.ar    1  LIG1       -0.0305
      3 C          -0.7144    0.9744    0.0003 C.ar    1  LIG1        0.0315
      4 C          -1.1226   -0.3223   -0.0003 C.ar    1  LIG1        0.0762
      5 N          -0.0018   -1.1217    0.0001 N.ar    1  LIG1       -0.3586
      6 H          -0.0034   -2.1157   -0.0003 H       1  LIG1        0.1654
      7 H           2.3167   -0.8373    0.0007 H       1  LIG1        0.0807
      8 H           1.4918    2.0164   -0.0003 H       1  LIG1        0.0644
      9 S          -1.4853    2.0211    0.0010 S.3     1  LIG1       -0.1405
     10 H          -2.7389    1.6410    0.0012 H       1  LIG1        0.1072
     11 C          -2.3194   -0.8299   -0.0001 C.ar    1  LIG1        0.0650
     12 C          -3.5353   -0.2219   -0.0003 C.ar    1  LIG1       -0.0218
     13 C          -4.5290   -1.2530    0.0012 C.ar    1  LIG1        0.0227
     14 C          -3.8767   -2.4457    0.0005 C.ar    1  LIG1        0.0154
     15 N          -2.5238   -2.1913    0.0002 N.ar    1  LIG1       -0.3585
     16 H          -1.8081   -2.8811   -0.0004 H       1  LIG1        0.1654
     17 H          -4.3398   -3.6604    0.0012 H       1  LIG1        0.0818
     18 H          -3.7520    1.0599   -0.0003 H       1  LIG1        0.0650
     19 S          -5.8179   -1.0837    0.0025 S.3     1  LIG1       -0.1412
     20 H          -6.4122   -2.2511    0.0029 H       1  LIG1        0.1072
@<TRIPOS>BOND
     1     2     8    1
     2     2     1   ar
     3     2     3   ar
     4    16    15    1
     5    12    18    1
     6    12    11   ar
     7    12    13   ar
     8     4    11    1
     9     4     5   ar
    10     4     3   ar
    11     6     5    1
    12    11    15   ar
    13     5     1   ar
    14    15    14   ar
    15     1     7    1
    16     3     9    1
    17    14    13   ar
    18    14    17    1
    19     9    10    1
    20    13    19    1
    21    19    20    1
