@<TRIPOS>MOLECULE
mol_data/noopt/geoms/mol2/13ag13ag13ag13ag.out
 38 41 0 0 0
SMALL
GASTEIGER

@<TRIPOS>ATOM
      1 C           1.1215   -0.3259    0.0002 C.ar    1  LIG1        0.0033
      2 C           0.7176    0.9721   -0.0005 C.ar    1  LIG1       -0.0305
      3 C          -0.7144    0.9744    0.0003 C.ar    1  LIG1        0.0315
      4 C          -1.1226   -0.3223   -0.0003 C.ar    1  LIG1        0.0762
      5 N          -0.0018   -1.1217    0.0001 N.ar    1  LIG1       -0.3586
      6 H          -0.0034   -2.1157   -0.0003 H       1  LIG1        0.1654
      7 H           2.3167   -0.8373    0.0007 H       1  LIG1        0.0807
      8 H           1.4918    2.0164   -0.0003 H       1  LIG1        0.0644
      9 S          -1.4853    2.0211    0.0010 S.3     1  LIG1       -0.1405
     10 H          -2.7389    1.6410    0.0012 H       1  LIG1        0.1072
     11 C          -2.3194   -0.8299   -0.0001 C.ar    1  LIG1        0.0655
     12 C          -3.5352   -0.2220    0.0163 C.ar    1  LIG1       -0.0211
     13 C          -4.5290   -1.2531    0.0088 C.ar    1  LIG1        0.0321
     14 C          -3.8768   -2.4456   -0.0136 C.ar    1  LIG1        0.0767
     15 N          -2.5238   -2.1911   -0.0187 N.ar    1  LIG1       -0.3510
     16 H          -1.8082   -2.8808   -0.0339 H       1  LIG1        0.1660
     17 H          -3.7519    1.0596    0.0366 H       1  LIG1        0.0650
     18 S          -5.8178   -1.0839    0.0207 S.3     1  LIG1       -0.1405
     19 H          -6.4121   -2.2513    0.0247 H       1  LIG1        0.1072
     20 C          -4.3399   -3.6602   -0.0280 C.ar    1  LIG1        0.0655
     21 C          -5.6207   -4.1157   -0.0381 C.ar    1  LIG1       -0.0211
     22 C          -5.5656   -5.5466   -0.0513 C.ar    1  LIG1        0.0321
     23 C          -4.2537   -5.9026   -0.0505 C.ar    1  LIG1        0.0767
     24 N          -3.4998   -4.7508   -0.0358 N.ar    1  LIG1       -0.3510
     25 H          -2.5065   -4.7126   -0.0320 H       1  LIG1        0.1660
     26 H          -6.6951   -3.3839   -0.0347 H       1  LIG1        0.0650
     27 S          -6.5807   -6.3587   -0.0626 S.3     1  LIG1       -0.1405
     28 H          -6.1507   -7.5961   -0.0664 H       1  LIG1        0.1072
     29 C          -3.6985   -7.0781   -0.0599 C.ar    1  LIG1        0.0650
     30 C          -4.2572   -8.3173   -0.0500 C.ar    1  LIG1       -0.0218
     31 C          -3.1873   -9.2689   -0.0673 C.ar    1  LIG1        0.0227
     32 C          -2.0218   -8.5693   -0.0887 C.ar    1  LIG1        0.0154
     33 N          -2.3303   -7.2277   -0.0838 N.ar    1  LIG1       -0.3585
     34 H          -1.6699   -6.4849   -0.0962 H       1  LIG1        0.1654
     35 H          -0.7897   -8.9833   -0.1097 H       1  LIG1        0.0818
     36 H          -5.5291   -8.5853   -0.0275 H       1  LIG1        0.0650
     37 S          -3.3047  -10.5636   -0.0637 S.3     1  LIG1       -0.1412
     38 H          -2.1143  -11.1106   -0.0625 H       1  LIG1        0.1072
@<TRIPOS>BOND
     1    35    32    1
     2    34    33    1
     3    32    33   ar
     4    32    31   ar
     5    33    29   ar
     6    31    37    1
     7    31    30   ar
     8    28    27    1
     9    37    38    1
    10    27    22    1
    11    29    23    1
    12    29    30   ar
    13    22    23   ar
    14    22    21   ar
    15    23    24   ar
    16    30    36    1
    17    21    26    1
    18    21    20   ar
    19    24    25    1
    20    24    20   ar
    21    16    15    1
    22    20    14    1
    23    15    14   ar
    24    15    11   ar
    25    14    13   ar
    26     2     8    1
    27     2     1   ar
    28     2     3   ar
    29     4    11    1
    30     4     5   ar
    31     4     3   ar
    32     6     5    1
    33    11    12   ar
    34     5     1   ar
    35     1     7    1
    36     3     9    1
    37     9    10    1
    38    13    12   ar
    39    13    18    1
    40    12    17    1
    41    18    19    1
