@<TRIPOS>MOLECULE
mol_data/noopt/geoms/mol2/13ag13ag13ag-.out
 29 31 0 0 0
SMALL
GASTEIGER

@<TRIPOS>ATOM
      1 C           1.1215   -0.3259    0.0002 C.ar    1  LIG1        0.0033
      2 C           0.7176    0.9721   -0.0005 C.ar    1  LIG1       -0.0305
      3 C          -0.7144    0.9744    0.0003 C.ar    1  LIG1        0.0315
      4 C          -1.1226   -0.3223   -0.0003 C.ar    1  LIG1        0.0762
      5 N          -0.0018   -1.1217    0.0001 N.ar    1  LIG1       -0.3586
      6 H          -0.0034   -2.1157   -0.0003 H       1  LIG1        0.1654
      7 H           2.3167   -0.8373    0.0007 H       1  LIG1        0.0807
      8 H           1.4918    2.0164   -0.0003 H       1  LIG1        0.0644
      9 S          -1.4853    2.0211    0.0010 S.3     1  LIG1       -0.1405
     10 H          -2.7389    1.6410    0.0012 H       1  LIG1        0.1072
     11 C          -2.3194   -0.8299   -0.0001 C.ar    1  LIG1        0.0655
     12 C          -3.5352   -0.2220    0.0163 C.ar    1  LIG1       -0.0211
     13 C          -4.5290   -1.2531    0.0088 C.ar    1  LIG1        0.0321
     14 C          -3.8768   -2.4456   -0.0136 C.ar    1  LIG1        0.0767
     15 N          -2.5238   -2.1911   -0.0187 N.ar    1  LIG1       -0.3510
     16 H          -1.8082   -2.8808   -0.0339 H       1  LIG1        0.1660
     17 H          -3.7519    1.0596    0.0366 H       1  LIG1        0.0650
     18 S          -5.8178   -1.0839    0.0207 S.3     1  LIG1       -0.1405
     19 H          -6.4121   -2.2513    0.0247 H       1  LIG1        0.1072
     20 C          -4.3399   -3.6602   -0.0280 C.ar    1  LIG1        0.0650
     21 C          -5.6206   -4.1159   -0.0215 C.ar    1  LIG1       -0.0218
     22 C          -5.5656   -5.5467   -0.0437 C.ar    1  LIG1        0.0227
     23 C          -4.2537   -5.9024   -0.0646 C.ar    1  LIG1        0.0154
     24 N          -3.4998   -4.7505   -0.0546 N.ar    1  LIG1       -0.3585
     25 H          -2.5066   -4.7122   -0.0655 H       1  LIG1        0.1654
     26 H          -3.6986   -7.0777   -0.0891 H       1  LIG1        0.0818
     27 H          -6.6950   -3.3844    0.0022 H       1  LIG1        0.0650
     28 S          -6.5806   -6.3589   -0.0444 S.3     1  LIG1       -0.1412
     29 H          -6.1504   -7.5963   -0.0446 H       1  LIG1        0.1072
@<TRIPOS>BOND
     1    26    23    1
     2    25    24    1
     3    23    24   ar
     4    23    22   ar
     5    24    20   ar
     6    29    28    1
     7    28    22    1
     8    22    21   ar
     9    16    15    1
    10    20    21   ar
    11    20    14    1
    12    21    27    1
    13    15    14   ar
    14    15    11   ar
    15    14    13   ar
    16     2     8    1
    17     2     1   ar
    18     2     3   ar
    19     4    11    1
    20     4     5   ar
    21     4     3   ar
    22     6     5    1
    23    11    12   ar
    24     5     1   ar
    25     1     7    1
    26     3     9    1
    27     9    10    1
    28    13    12   ar
    29    13    18    1
    30    12    17    1
    31    18    19    1
