@<TRIPOS>MOLECULE
mol_data/noopt/geoms/mol2/13ah13ah13ah13ah-.out
 42 45 0 0 0
SMALL
GASTEIGER

@<TRIPOS>ATOM
      1 C           1.1215   -0.3259    0.0002 C.ar    1  LIG1        0.0040
      2 C           0.7176    0.9721   -0.0005 C.ar    1  LIG1       -0.0230
      3 C          -0.7144    0.9744    0.0003 C.ar    1  LIG1        0.0516
      4 C          -1.1226   -0.3223   -0.0003 C.ar    1  LIG1        0.0839
      5 N          -0.0018   -1.1217    0.0001 N.ar    1  LIG1       -0.3580
      6 H          -0.0034   -2.1157   -0.0003 H       1  LIG1        0.1654
      7 H           2.3167   -0.8373    0.0007 H       1  LIG1        0.0807
      8 H           1.4918    2.0164   -0.0003 H       1  LIG1        0.0651
      9 N          -1.4853    2.0212    0.0010 N.pl3   1  LIG1       -0.3563
     10 H          -1.0256    2.7740   -0.4702 H       1  LIG1        0.1424
     11 H          -2.3405    1.8056   -0.4703 H       1  LIG1        0.1424
     12 C          -2.3194   -0.8299   -0.0001 C.ar    1  LIG1        0.0670
     13 C          -3.5353   -0.2219   -0.0003 C.ar    1  LIG1       -0.0135
     14 C          -4.5290   -1.2530    0.0012 C.ar    1  LIG1        0.0523
     15 C          -3.8767   -2.4457    0.0005 C.ar    1  LIG1        0.0843
     16 N          -2.5238   -2.1913    0.0002 N.ar    1  LIG1       -0.3504
     17 H          -1.8081   -2.8811   -0.0004 H       1  LIG1        0.1660
     18 H          -3.7520    1.0599   -0.0003 H       1  LIG1        0.0658
     19 N          -5.8180   -1.0837    0.0025 N.pl3   1  LIG1       -0.3563
     20 H          -6.0426   -0.2307   -0.4686 H       1  LIG1        0.1424
     21 H          -6.2552   -1.8497   -0.4686 H       1  LIG1        0.1424
     22 C          -4.3398   -3.6604    0.0012 C.ar    1  LIG1        0.0670
     23 C          -5.6206   -4.1160    0.0013 C.ar    1  LIG1       -0.0135
     24 C          -5.5655   -5.5470    0.0033 C.ar    1  LIG1        0.0523
     25 C          -4.2535   -5.9029    0.0026 C.ar    1  LIG1        0.0843
     26 N          -3.4996   -4.7510    0.0018 N.ar    1  LIG1       -0.3504
     27 H          -2.5064   -4.7127    0.0010 H       1  LIG1        0.1660
     28 H          -6.6951   -3.3843    0.0012 H       1  LIG1        0.0658
     29 N          -6.5805   -6.3592    0.0050 N.pl3   1  LIG1       -0.3563
     30 H          -7.3514   -5.9303   -0.4659 H       1  LIG1        0.1424
     31 H          -6.3312   -7.2053   -0.4660 H       1  LIG1        0.1424
     32 C          -3.6983   -7.0784    0.0036 C.ar    1  LIG1        0.0665
     33 C          -2.3863   -7.4341    0.0038 C.ar    1  LIG1       -0.0142
     34 C          -2.3311   -8.8651    0.0062 C.ar    1  LIG1        0.0427
     35 C          -3.6119   -9.3208    0.0056 C.ar    1  LIG1        0.0230
     36 N          -4.4521   -8.2303    0.0045 N.ar    1  LIG1       -0.3578
     37 H          -5.4454   -8.2686    0.0038 H       1  LIG1        0.1654
     38 H          -4.0750  -10.5356    0.0070 H       1  LIG1        0.0826
     39 H          -1.3713   -6.6219    0.0035 H       1  LIG1        0.0658
     40 N          -1.2566   -9.5968    0.0081 N.pl3   1  LIG1       -0.3568
     41 H          -1.4401  -10.4597   -0.4628 H       1  LIG1        0.1424
     42 H          -0.5210   -9.1100   -0.4628 H       1  LIG1        0.1424
@<TRIPOS>BOND
     1    11     9    1
     2    10     9    1
     3    21    19    1
     4    20    19    1
     5    31    29    1
     6    30    29    1
     7    42    40    1
     8    41    40    1
     9     2     8    1
    10     2     1   ar
    11     2     3   ar
    12    17    16    1
    13    13    18    1
    14    13    12   ar
    15    13    14   ar
    16     6     5    1
    17     4    12    1
    18     4     5   ar
    19     4     3   ar
    20    12    16   ar
    21     5     1   ar
    22    16    15   ar
    23     1     7    1
    24     3     9    1
    25    15    14   ar
    26    15    22    1
    27    27    26    1
    28    14    19    1
    29    22    23   ar
    30    22    26   ar
    31    28    23    1
    32    23    24   ar
    33    26    25   ar
    34    25    24   ar
    35    25    32    1
    36    24    29    1
    37    39    33    1
    38    32    33   ar
    39    32    36   ar
    40    37    36    1
    41    33    34   ar
    42    36    35   ar
    43    35    34   ar
    44    35    38    1
    45    34    40    1
