@<TRIPOS>MOLECULE
mol_data/noopt/geoms/mol2/13ah13ah-4ah13ah.out
 44 47 0 0 0
SMALL
GASTEIGER

@<TRIPOS>ATOM
      1 C           1.1215   -0.3259    0.0002 C.ar    1  LIG1        0.0040
      2 C           0.7176    0.9721   -0.0005 C.ar    1  LIG1       -0.0230
      3 C          -0.7144    0.9744    0.0003 C.ar    1  LIG1        0.0516
      4 C          -1.1226   -0.3223   -0.0003 C.ar    1  LIG1        0.0839
      5 N          -0.0018   -1.1217    0.0001 N.ar    1  LIG1       -0.3580
      6 H          -0.0034   -2.1157   -0.0003 H       1  LIG1        0.1654
      7 H           2.3167   -0.8373    0.0007 H       1  LIG1        0.0807
      8 H           1.4918    2.0164   -0.0003 H       1  LIG1        0.0651
      9 N          -1.4853    2.0212    0.0010 N.pl3   1  LIG1       -0.3563
     10 H          -1.0256    2.7740   -0.4702 H       1  LIG1        0.1424
     11 H          -2.3405    1.8056   -0.4703 H       1  LIG1        0.1424
     12 C          -2.3194   -0.8299   -0.0001 C.ar    1  LIG1        0.0669
     13 C          -2.7274   -2.1266   -0.0005 C.ar    1  LIG1       -0.0136
     14 C          -4.1594   -2.1244    0.0011 C.ar    1  LIG1        0.0508
     15 C          -4.5635   -0.8264    0.0006 C.ar    1  LIG1        0.0679
     16 N          -3.4402   -0.0305    0.0003 N.ar    1  LIG1       -0.3515
     17 H          -3.4386    0.9635   -0.0001 H       1  LIG1        0.1660
     18 H          -1.9565   -3.1734   -0.0006 H       1  LIG1        0.0658
     19 N          -4.9336   -3.1687    0.0023 N.pl3   1  LIG1       -0.3563
     20 H          -5.7883   -2.9506   -0.4688 H       1  LIG1        0.1424
     21 H          -4.4765   -3.9231   -0.4688 H       1  LIG1        0.1424
     22 C          -5.9236    1.0852    0.0026 C.ar    1  LIG1       -0.0518
     23 C          -7.2385    1.5895    0.0050 C.ar    1  LIG1       -0.0502
     24 C          -5.7587   -0.3150    0.0014 C.ar    1  LIG1        0.0019
     25 C          -8.3419    0.7391    0.0056 C.ar    1  LIG1        0.0190
     26 H          -7.3885    2.6668    0.0062 H       1  LIG1        0.0625
     27 C          -6.8598   -1.1644    0.0020 C.ar    1  LIG1       -0.0312
     28 C          -8.1582   -0.6442    0.0040 C.ar    1  LIG1        0.0344
     29 H          -6.7065   -2.2406    0.0011 H       1  LIG1        0.0643
     30 H          -4.9343    1.9285    0.0020 H       1  LIG1        0.0624
     31 N          -9.1838   -1.4431    0.0046 N.pl3   1  LIG1       -0.3574
     32 H          -9.9487   -1.0039   -0.4666 H       1  LIG1        0.1423
     33 H          -8.9452   -2.2922   -0.4666 H       1  LIG1        0.1423
     34 C          -9.5420    1.2389    0.0077 C.ar    1  LIG1        0.0500
     35 C          -9.9585    2.5329    0.0088 C.ar    1  LIG1       -0.0157
     36 C         -11.3904    2.5213    0.0122 C.ar    1  LIG1        0.0427
     37 C         -11.7860    1.2207    0.0113 C.ar    1  LIG1        0.0230
     38 N         -10.6575    0.4322    0.0090 N.ar    1  LIG1       -0.3590
     39 H         -10.6495   -0.5617    0.0079 H       1  LIG1        0.1654
     40 H         -12.9778    0.7015    0.0134 H       1  LIG1        0.0826
     41 H          -9.1944    3.5847    0.0084 H       1  LIG1        0.0657
     42 N         -12.1714    3.5606    0.0152 N.pl3   1  LIG1       -0.3568
     43 H         -11.7196    4.3184   -0.4555 H       1  LIG1        0.1424
     44 H         -13.0250    3.3374   -0.4555 H       1  LIG1        0.1424
@<TRIPOS>BOND
     1    11     9    1
     2    10     9    1
     3    21    19    1
     4    20    19    1
     5    33    31    1
     6    32    31    1
     7    44    42    1
     8    43    42    1
     9    18    13    1
    10     2     8    1
    11     2     1   ar
    12     2     3   ar
    13    13    12   ar
    14    13    14   ar
    15     6     5    1
    16     4    12    1
    17     4     5   ar
    18     4     3   ar
    19    17    16    1
    20    12    16   ar
    21     5     1   ar
    22     1     7    1
    23     3     9    1
    24    16    15   ar
    25    15    14   ar
    26    15    24    1
    27    14    19    1
    28    29    27    1
    29    24    27   ar
    30    24    22   ar
    31    30    22    1
    32    27    28   ar
    33    22    23   ar
    34    28    31    1
    35    28    25   ar
    36    23    25   ar
    37    23    26    1
    38    25    34    1
    39    34    35   ar
    40    34    38   ar
    41    39    38    1
    42    41    35    1
    43    35    36   ar
    44    38    37   ar
    45    37    36   ar
    46    37    40    1
    47    36    42    1
