@<TRIPOS>MOLECULE
mol_data/noopt/geoms/mol2/13ah12al13el6la6dd-4ai-13ah-4fd-.out
 96 103 0 0 0
SMALL
GASTEIGER

@<TRIPOS>ATOM
      1 C           1.1215   -0.3259    0.0002 C.ar    1  LIG1        0.0041
      2 C           0.7176    0.9721   -0.0005 C.ar    1  LIG1       -0.0230
      3 C          -0.7144    0.9744    0.0003 C.ar    1  LIG1        0.0532
      4 C          -1.1226   -0.3223   -0.0003 C.ar    1  LIG1        0.1031
      5 N          -0.0018   -1.1217    0.0001 N.ar    1  LIG1       -0.3568
      6 H          -0.0034   -2.1157   -0.0003 H       1  LIG1        0.1655
      7 H           2.3167   -0.8373    0.0007 H       1  LIG1        0.0807
      8 H           1.4918    2.0164   -0.0003 H       1  LIG1        0.0651
      9 N          -1.4853    2.0212    0.0010 N.pl3   1  LIG1       -0.3562
     10 H          -1.0256    2.7740   -0.4702 H       1  LIG1        0.1424
     11 H          -2.3405    1.8056   -0.4703 H       1  LIG1        0.1424
     12 C          -2.3194   -0.8299   -0.0001 C.ar    1  LIG1        0.1573
     13 C          -3.6024   -0.3233    0.0148 C.ar    1  LIG1        0.0282
     14 C          -4.4979   -1.4613    0.0044 C.ar    1  LIG1        0.1678
     15 C          -3.7022   -2.5883   -0.0164 C.ar    1  LIG1        0.1945
     16 O          -2.3551   -2.2249   -0.0196 O.2     1  LIG1       -0.4480
     17 H          -3.9648    0.9250    0.0347 H       1  LIG1        0.0693
     18 O          -5.7966   -1.4036    0.0131 O.3     1  LIG1       -0.4912
     19 C          -6.2135   -0.0357    0.0162 C.3     1  LIG1        0.0790
     20 H          -7.2825    0.0113    0.0233 H       1  LIG1        0.0660
     21 H          -5.8293    0.4523    0.8876 H       1  LIG1        0.0660
     22 H          -5.8408    0.4528   -0.8597 H       1  LIG1        0.0660
     23 C          -3.9133   -3.8710   -0.0331 C.ar    1  LIG1        0.1054
     24 C          -5.0772   -4.5732   -0.0448 C.ar    1  LIG1        0.0953
     25 C          -4.7373   -5.9642   -0.0604 C.ar    1  LIG1        0.1614
     26 C          -3.3807   -6.0508   -0.0593 C.ar    1  LIG1        0.0956
     27 N          -2.8722   -4.7716   -0.0421 N.ar    1  LIG1       -0.3476
     28 H          -1.9066   -4.5357   -0.0377 H       1  LIG1        0.1661
     29 C          -6.2762   -4.0709   -0.0408 C.1     1  LIG1       -0.0637
     30 C          -7.3841   -3.6067   -0.0372 C.1     1  LIG1       -0.1137
     31 H          -8.3710   -3.1933   -0.0339 H       1  LIG1        0.1232
     32 O          -5.5697   -6.9627   -0.0736 O.3     1  LIG1       -0.4917
     33 C          -6.9107   -6.4663   -0.0786 C.3     1  LIG1        0.0789
     34 H          -7.5954   -7.2884   -0.0896 H       1  LIG1        0.0660
     35 H          -7.0759   -5.8764    0.7988 H       1  LIG1        0.0660
     36 H          -7.0643   -5.8625   -0.9484 H       1  LIG1        0.0660
     37 C          -1.2038   -6.9337   -0.0762 C.ar    1  LIG1        0.2245
     38 C          -2.6018   -7.0916   -0.0703 C.ar    1  LIG1        0.0634
     39 C          -3.1267   -8.3853   -0.0763 C.ar    1  LIG1       -0.0454
     40 C          -2.2455   -9.4679   -0.0880 C.ar    1  LIG1       -0.0347
     41 C          -0.8627   -9.2082   -0.0933 C.ar    1  LIG1        0.0776
     42 N          -0.3393   -7.9667   -0.0875 N.ar    1  LIG1       -0.2123
     43 H          -4.2138   -8.5480   -0.0730 H       1  LIG1        0.0626
     44 O          -0.6678   -5.7493   -0.0709 O.3     1  LIG1       -0.4792
     45 C           0.7571   -5.8704   -0.0690 C.3     1  LIG1        0.0804
     46 H           1.1979   -4.8954   -0.0649 H       1  LIG1        0.0660
     47 H           1.0684   -6.4063    0.8033 H       1  LIG1        0.0660
     48 H           1.0712   -6.4001   -0.9440 H       1  LIG1        0.0660
     49 H          -2.6844  -10.6915   -0.0941 H       1  LIG1        0.0639
     50 C           1.3779   -9.9129   -0.1309 C.ar    1  LIG1        0.1499
     51 C          -0.0026  -10.1829   -0.1040 C.ar    1  LIG1        0.0376
     52 C          -0.4213  -11.5147   -0.0890 C.ar    1  LIG1       -0.0303
     53 C           0.5442  -12.5228   -0.1015 C.ar    1  LIG1        0.0784
     54 C           1.9013  -12.1526   -0.1287 C.ar    1  LIG1        0.0898
     55 N           2.3228  -10.8730   -0.1433 N.ar    1  LIG1       -0.2344
     56 H          -1.4916  -11.7645   -0.0689 H       1  LIG1        0.0638
     57 N           2.2035   -7.6100   -0.1586 N.1     1  LIG1       -0.1893
     58 C           1.8165   -8.6892   -0.1456 C.1     1  LIG1        0.1198
     59 N          -0.0931  -14.8848   -0.0771 N.1     1  LIG1       -0.1908
     60 C           0.2056  -13.7778   -0.0885 C.1     1  LIG1        0.1013
     61 C           2.4946  -14.4224   -0.1256 C.ar    1  LIG1       -0.0519
     62 C           3.5449  -15.3605   -0.1385 C.ar    1  LIG1       -0.0518
     63 C           2.8371  -13.0548   -0.1410 C.ar    1  LIG1        0.0019
     64 C           4.8780  -14.9570   -0.1660 C.ar    1  LIG1        0.0013
     65 H           3.3029  -16.4209   -0.1267 H       1  LIG1        0.0624
     66 C           4.1678  -12.6515   -0.1686 C.ar    1  LIG1       -0.0490
     67 C           5.1970  -13.5986   -0.1813 C.ar    1  LIG1       -0.0407
     68 H           4.4062  -11.5910   -0.1799 H       1  LIG1        0.0627
     69 H           1.2706  -14.8597   -0.1001 H       1  LIG1        0.0624
     70 C           6.4393  -13.2156   -0.2069 C.3     1  LIG1       -0.0391
     71 H           6.5322  -12.2728    0.2904 H       1  LIG1        0.0278
     72 H           6.7611  -13.1163   -1.2226 H       1  LIG1        0.0278
     73 H           7.0469  -13.9426    0.2904 H       1  LIG1        0.0278
     74 C           5.8225  -15.8502   -0.1773 C.ar    1  LIG1        0.0490
     75 C           5.7526  -17.2077   -0.1853 C.ar    1  LIG1       -0.0151
     76 C           7.0954  -17.7051   -0.1955 C.ar    1  LIG1        0.0509
     77 C           7.9269  -16.6295   -0.1949 C.ar    1  LIG1        0.0714
     78 N           7.1517  -15.4919   -0.1834 N.ar    1  LIG1       -0.3526
     79 H           7.4970  -14.5598   -0.1805 H       1  LIG1        0.1660
     80 H           4.6650  -17.9199   -0.1826 H       1  LIG1        0.0657
     81 N           7.4567  -18.9538   -0.2041 N.pl3   1  LIG1       -0.3563
     82 H           6.7642  -19.4979   -0.6777 H       1  LIG1        0.1424
     83 H           8.3328  -19.0441   -0.6777 H       1  LIG1        0.1424
     84 C           9.9857  -17.7542   -0.1841 C.ar    1  LIG1        0.1261
     85 C          11.3888  -17.6331   -0.1914 C.ar    1  LIG1       -0.0183
     86 C           9.2253  -16.5671   -0.2022 C.ar    1  LIG1        0.0427
     87 C          12.0094  -16.3861   -0.2163 C.ar    1  LIG1       -0.0409
     88 H          11.9946  -18.5363   -0.1774 H       1  LIG1        0.0655
     89 C           9.8443  -15.3220   -0.2271 C.ar    1  LIG1       -0.0317
     90 C          11.2395  -15.2224   -0.2344 C.ar    1  LIG1        0.0526
     91 H           9.2360  -14.4213   -0.2406 H       1  LIG1        0.0638
     92 H          13.3072  -16.3111   -0.2225 H       1  LIG1        0.0631
     93 O           9.4646  -18.9450   -0.1608 O.3     1  LIG1       -0.5061
     94 H          10.1652  -19.6013   -0.1551 H       1  LIG1        0.2922
     95 N          12.3181  -13.0269   -0.2778 N.1     1  LIG1       -0.1909
     96 C          11.8127  -14.0558   -0.2575 C.1     1  LIG1        0.0992
@<TRIPOS>BOND
     1    72    70    1
     2    36    33    1
     3    48    45    1
     4    22    19    1
     5    83    81    1
     6    82    81    1
     7    11     9    1
     8    10     9    1
     9    95    96    3
    10    96    90    1
    11    91    89    1
    12    90    89   ar
    13    90    87   ar
    14    89    86   ar
    15    92    87    1
    16    87    85   ar
    17    70    67    1
    18    70    73    1
    19    70    71    1
    20    81    76    1
    21    86    77    1
    22    86    84   ar
    23    76    77   ar
    24    76    75   ar
    25    77    78   ar
    26    85    84   ar
    27    85    88    1
    28    75    80    1
    29    75    74   ar
    30    84    93    1
    31    78    79    1
    32    78    74   ar
    33    67    66   ar
    34    67    64   ar
    35    68    66    1
    36    74    64    1
    37    66    63   ar
    38    64    62   ar
    39    93    94    1
    40    57    58    3
    41    58    50    1
    42    55    50   ar
    43    55    54   ar
    44    63    54    1
    45    63    61   ar
    46    62    65    1
    47    62    61   ar
    48    50    51   ar
    49    54    53   ar
    50    61    69    1
    51    51    41    1
    52    51    52   ar
    53    53    52   ar
    54    53    60    1
    55    49    40    1
    56    41    40   ar
    57    41    42   ar
    58    34    33    1
    59    52    56    1
    60    60    59    3
    61    40    39   ar
    62    42    37   ar
    63    33    32    1
    64    33    35    1
    65    39    43    1
    66    39    38   ar
    67    37    44    1
    68    37    38   ar
    69    32    25    1
    70    44    45    1
    71    38    26    1
    72    45    46    1
    73    45    47    1
    74    25    26   ar
    75    25    24   ar
    76    26    27   ar
    77    24    29    1
    78    24    23   ar
    79    27    28    1
    80    27    23   ar
    81    29    30    3
    82    30    31    1
    83    23    15    1
    84    16    15   ar
    85    16    12   ar
    86    15    14   ar
    87     2     8    1
    88     2     1   ar
    89     2     3   ar
    90     4    12    1
    91     4     5   ar
    92     4     3   ar
    93     6     5    1
    94    12    13   ar
    95     5     1   ar
    96     1     7    1
    97     3     9    1
    98    14    18    1
    99    14    13   ar
   100    18    19    1
   101    13    17    1
   102    19    20    1
   103    19    21    1
