@<TRIPOS>MOLECULE
mol_data/noopt/geoms/mol2/13ah13ah13ah-13ah-.out
 42 45 0 0 0
SMALL
GASTEIGER

@<TRIPOS>ATOM
      1 C           1.1215   -0.3259    0.0002 C.ar    1  LIG1        0.0040
      2 C           0.7176    0.9721   -0.0005 C.ar    1  LIG1       -0.0230
      3 C          -0.7144    0.9744    0.0003 C.ar    1  LIG1        0.0516
      4 C          -1.1226   -0.3223   -0.0003 C.ar    1  LIG1        0.0839
      5 N          -0.0018   -1.1217    0.0001 N.ar    1  LIG1       -0.3580
      6 H          -0.0034   -2.1157   -0.0003 H       1  LIG1        0.1654
      7 H           2.3167   -0.8373    0.0007 H       1  LIG1        0.0807
      8 H           1.4918    2.0164   -0.0003 H       1  LIG1        0.0651
      9 N          -1.4853    2.0212    0.0010 N.pl3   1  LIG1       -0.3563
     10 H          -1.0256    2.7740   -0.4702 H       1  LIG1        0.1424
     11 H          -2.3405    1.8056   -0.4703 H       1  LIG1        0.1424
     12 C          -2.3194   -0.8299   -0.0001 C.ar    1  LIG1        0.0670
     13 C          -3.5353   -0.2219   -0.0003 C.ar    1  LIG1       -0.0135
     14 C          -4.5290   -1.2530    0.0012 C.ar    1  LIG1        0.0523
     15 C          -3.8767   -2.4457    0.0005 C.ar    1  LIG1        0.0843
     16 N          -2.5238   -2.1913    0.0002 N.ar    1  LIG1       -0.3504
     17 H          -1.8081   -2.8811   -0.0004 H       1  LIG1        0.1660
     18 H          -3.7520    1.0599   -0.0003 H       1  LIG1        0.0658
     19 N          -5.8180   -1.0837    0.0025 N.pl3   1  LIG1       -0.3563
     20 H          -6.0426   -0.2307   -0.4686 H       1  LIG1        0.1424
     21 H          -6.2552   -1.8497   -0.4686 H       1  LIG1        0.1424
     22 C          -4.3398   -3.6604    0.0012 C.ar    1  LIG1        0.0670
     23 C          -3.6874   -4.8530    0.0012 C.ar    1  LIG1       -0.0135
     24 C          -4.6811   -5.8841    0.0032 C.ar    1  LIG1        0.0523
     25 C          -5.8970   -5.2763    0.0027 C.ar    1  LIG1        0.0843
     26 N          -5.6927   -3.9149    0.0019 N.ar    1  LIG1       -0.3504
     27 H          -6.4084   -3.2251    0.0013 H       1  LIG1        0.1660
     28 H          -2.3984   -5.0223    0.0009 H       1  LIG1        0.0658
     29 N          -4.4643   -7.1660    0.0049 N.pl3   1  LIG1       -0.3563
     30 H          -5.2137   -7.6313   -0.4661 H       1  LIG1        0.1424
     31 H          -3.6036   -7.3591   -0.4662 H       1  LIG1        0.1424
     32 C          -7.0939   -5.7839    0.0038 C.ar    1  LIG1        0.0665
     33 C          -7.5019   -7.0806    0.0041 C.ar    1  LIG1       -0.0142
     34 C          -8.9339   -7.0784    0.0067 C.ar    1  LIG1        0.0427
     35 C          -9.3380   -5.7804    0.0061 C.ar    1  LIG1        0.0230
     36 N          -8.2146   -4.9846    0.0048 N.ar    1  LIG1       -0.3578
     37 H          -8.2131   -3.9906    0.0040 H       1  LIG1        0.1654
     38 H         -10.5331   -5.2690    0.0075 H       1  LIG1        0.0826
     39 H          -6.7310   -8.1274    0.0038 H       1  LIG1        0.0658
     40 N          -9.7081   -8.1227    0.0087 N.pl3   1  LIG1       -0.3568
     41 H         -10.5629   -7.9048   -0.4622 H       1  LIG1        0.1424
     42 H          -9.2511   -8.8773   -0.4622 H       1  LIG1        0.1424
@<TRIPOS>BOND
     1    11     9    1
     2    10     9    1
     3    21    19    1
     4    20    19    1
     5    31    29    1
     6    30    29    1
     7    42    40    1
     8    41    40    1
     9     2     8    1
    10     2     1   ar
    11     2     3   ar
    12    17    16    1
    13    13    18    1
    14    13    12   ar
    15    13    14   ar
    16     6     5    1
    17     4    12    1
    18     4     5   ar
    19     4     3   ar
    20    12    16   ar
    21     5     1   ar
    22    16    15   ar
    23     1     7    1
    24     3     9    1
    25    15    14   ar
    26    15    22    1
    27    28    23    1
    28    23    22   ar
    29    23    24   ar
    30    14    19    1
    31    22    26   ar
    32    27    26    1
    33    26    25   ar
    34    25    24   ar
    35    25    32    1
    36    24    29    1
    37    39    33    1
    38    32    33   ar
    39    32    36   ar
    40    37    36    1
    41    33    34   ar
    42    36    35   ar
    43    35    34   ar
    44    35    38    1
    45    34    40    1
