@<TRIPOS>MOLECULE
mol_data/noopt/geoms/mol2/13ah12hl(50)6dl(40)6fi(350).out
 52 55 0 0 0
SMALL
GASTEIGER

@<TRIPOS>ATOM
      1 C           1.1215   -0.3259    0.0002 C.ar    1  LIG1        0.0041
      2 C           0.7176    0.9721   -0.0005 C.ar    1  LIG1       -0.0230
      3 C          -0.7144    0.9744    0.0003 C.ar    1  LIG1        0.0533
      4 C          -1.1226   -0.3223   -0.0003 C.ar    1  LIG1        0.1050
      5 N          -0.0018   -1.1217    0.0001 N.ar    1  LIG1       -0.3567
      6 H          -0.0034   -2.1157   -0.0003 H       1  LIG1        0.1655
      7 H           2.3167   -0.8373    0.0007 H       1  LIG1        0.0807
      8 H           1.4918    2.0164   -0.0003 H       1  LIG1        0.0651
      9 N          -1.4853    2.0212    0.0010 N.pl3   1  LIG1       -0.3562
     10 H          -1.0256    2.7740   -0.4702 H       1  LIG1        0.1424
     11 H          -2.3405    1.8056   -0.4703 H       1  LIG1        0.1424
     12 C          -2.3194   -0.8299   -0.0001 C.ar    1  LIG1        0.1778
     13 C          -3.4859   -0.5977    0.6987 C.ar    1  LIG1        0.1155
     14 C          -4.4654   -1.5377    0.1948 C.ar    1  LIG1        0.1871
     15 C          -3.8322   -2.2822   -0.7791 C.ar    1  LIG1        0.1819
     16 O          -2.5081   -1.8644   -0.9176 O.2     1  LIG1       -0.4475
     17 N          -3.6928    0.2844    1.6310 N.pl3   1  LIG1       -0.3521
     18 H          -3.0282    1.0261    1.5414 H       1  LIG1        0.1425
     19 H          -4.6180    0.6533    1.5414 H       1  LIG1        0.1425
     20 O          -5.6967   -1.6389    0.5996 O.3     1  LIG1       -0.4896
     21 C          -6.2592   -0.3326    0.7481 C.3     1  LIG1        0.0791
     22 H          -7.2726   -0.4164    1.0811 H       1  LIG1        0.0660
     23 H          -5.6919    0.2203    1.4675 H       1  LIG1        0.0660
     24 H          -6.2339    0.1758   -0.1930 H       1  LIG1        0.0660
     25 C          -3.3276   -3.6460   -2.6240 C.ar    1  LIG1        0.1517
     26 C          -4.1755   -3.2532   -1.5723 C.ar    1  LIG1        0.0603
     27 C          -5.3857   -3.9286   -1.4040 C.ar    1  LIG1       -0.0043
     28 C          -5.7055   -4.9640   -2.2839 C.ar    1  LIG1        0.1469
     29 C          -4.7921   -5.2834   -3.3053 C.ar    1  LIG1        0.1190
     30 N          -3.6202   -4.6425   -3.4820 N.ar    1  LIG1       -0.2318
     31 H          -6.0744   -3.6491   -0.5941 H       1  LIG1        0.0663
     32 N          -1.1874   -2.5199   -2.9947 N.1     1  LIG1       -0.1893
     33 C          -2.1904   -3.0476   -2.8210 C.1     1  LIG1        0.1198
     34 O          -6.8201   -5.6232   -2.1693 O.3     1  LIG1       -0.4929
     35 C          -7.9156   -4.7049   -2.1273 C.3     1  LIG1        0.0789
     36 H          -8.8328   -5.2479   -2.0332 H       1  LIG1        0.0660
     37 H          -7.8007   -4.0507   -1.2884 H       1  LIG1        0.0660
     38 H          -7.9330   -4.1290   -3.0289 H       1  LIG1        0.0660
     39 C          -4.0624   -7.2004   -4.4503 C.ar    1  LIG1        0.2218
     40 C          -5.0449   -6.2395   -4.1491 C.ar    1  LIG1        0.0655
     41 C          -6.2889   -6.3391   -4.7749 C.ar    1  LIG1       -0.0430
     42 C          -6.5076   -7.3854   -5.6726 C.ar    1  LIG1       -0.0315
     43 C          -5.4623   -8.2971   -5.9088 C.ar    1  LIG1        0.0343
     44 N          -4.2563   -8.2161   -5.3137 N.ar    1  LIG1       -0.2206
     45 H          -7.0809   -5.6062   -4.5653 H       1  LIG1        0.0629
     46 H          -5.6177   -9.2880   -6.7359 H       1  LIG1        0.0833
     47 O          -2.8889   -7.1498   -3.8930 O.3     1  LIG1       -0.4919
     48 H          -2.6387   -6.2332   -3.7556 H       1  LIG1        0.2937
     49 C          -7.6486   -7.5216   -6.2812 C.3     1  LIG1       -0.0383
     50 H          -8.0925   -8.4544   -6.0024 H       1  LIG1        0.0278
     51 H          -7.4927   -7.5030   -7.3397 H       1  LIG1        0.0278
     52 H          -8.2994   -6.7193   -6.0025 H       1  LIG1        0.0278
@<TRIPOS>BOND
     1    51    49    1
     2    46    43    1
     3    49    52    1
     4    49    50    1
     5    49    42    1
     6    43    42   ar
     7    43    44   ar
     8    42    41   ar
     9    44    39   ar
    10    41    45    1
    11    41    40   ar
    12    39    40   ar
    13    39    47    1
    14    40    29    1
    15    47    48    1
    16    30    29   ar
    17    30    25   ar
    18    29    28   ar
    19    38    35    1
    20    32    33    3
    21    33    25    1
    22    25    26   ar
    23    28    34    1
    24    28    27   ar
    25    34    35    1
    26    35    36    1
    27    35    37    1
    28    26    27   ar
    29    26    15    1
    30    27    31    1
    31    16    15   ar
    32    16    12   ar
    33    15    14   ar
    34    11     9    1
    35    10     9    1
    36    24    21    1
    37     2     8    1
    38     2     1   ar
    39     2     3   ar
    40     4    12    1
    41     4     5   ar
    42     4     3   ar
    43     6     5    1
    44    12    13   ar
    45     5     1   ar
    46     1     7    1
    47     3     9    1
    48    14    20    1
    49    14    13   ar
    50    20    21    1
    51    13    17    1
    52    21    22    1
    53    21    23    1
    54    19    17    1
    55    18    17    1
