@<TRIPOS>MOLECULE
mol_data/noopt/geoms/mol2/13ah12lf(180)12ee(200)12ef(200).out
 45 48 0 0 0
SMALL
GASTEIGER

@<TRIPOS>ATOM
      1 C           1.1215   -0.3259    0.0002 C.ar    1  LIG1        0.0041
      2 C           0.7176    0.9721   -0.0005 C.ar    1  LIG1       -0.0230
      3 C          -0.7144    0.9744    0.0003 C.ar    1  LIG1        0.0533
      4 C          -1.1226   -0.3223   -0.0003 C.ar    1  LIG1        0.1068
      5 N          -0.0018   -1.1217    0.0001 N.ar    1  LIG1       -0.3567
      6 H          -0.0034   -2.1157   -0.0003 H       1  LIG1        0.1655
      7 H           2.3167   -0.8373    0.0007 H       1  LIG1        0.0807
      8 H           1.4918    2.0164   -0.0003 H       1  LIG1        0.0651
      9 N          -1.4853    2.0212    0.0010 N.pl3   1  LIG1       -0.3562
     10 H          -1.0256    2.7740   -0.4702 H       1  LIG1        0.1424
     11 H          -2.3405    1.8056   -0.4703 H       1  LIG1        0.1424
     12 C          -2.3194   -0.8299   -0.0001 C.ar    1  LIG1        0.1989
     13 C          -2.8470   -2.1045    0.0001 C.ar    1  LIG1        0.2100
     14 C          -4.2875   -1.9572    0.0003 C.ar    1  LIG1        0.2093
     15 C          -4.5448   -0.6017    0.0003 C.ar    1  LIG1        0.2169
     16 O          -3.3472    0.1142    0.0002 O.2     1  LIG1       -0.4425
     17 O          -2.2013   -3.2329   -0.0000 O.3     1  LIG1       -0.4884
     18 C          -3.1343   -4.3166   -0.0001 C.3     1  LIG1        0.0791
     19 H          -2.6025   -5.2451   -0.0004 H       1  LIG1        0.0660
     20 H          -3.7492   -4.2580    0.8736 H       1  LIG1        0.0660
     21 H          -3.7494   -4.2577   -0.8737 H       1  LIG1        0.0660
     22 O          -5.1487   -2.9311    0.0004 O.3     1  LIG1       -0.5007
     23 H          -4.6831   -3.7706    0.0005 H       1  LIG1        0.2924
     24 C          -5.6137    0.1382    0.0004 C.ar    1  LIG1        0.1910
     25 C          -6.9469   -0.0600   -0.2934 C.ar    1  LIG1        0.0897
     26 C          -7.6114    1.2090   -0.0813 C.ar    1  LIG1        0.0896
     27 C          -6.6398    2.0988    0.3283 C.ar    1  LIG1        0.1886
     28 O          -5.3996    1.4621    0.3865 O.2     1  LIG1       -0.4459
     29 C          -7.5204   -1.1587   -0.6856 C.1     1  LIG1       -0.0645
     30 C          -8.0504   -2.1739   -1.0480 C.1     1  LIG1       -0.1138
     31 H          -8.5225   -3.0783   -1.3709 H       1  LIG1        0.1232
     32 C          -8.8798    1.4378   -0.2514 C.1     1  LIG1       -0.0645
     33 C         -10.0518    1.6492   -0.4086 C.1     1  LIG1       -0.1138
     34 H         -11.0957    1.8375   -0.5486 H       1  LIG1        0.1232
     35 C          -6.6156    3.3550    0.6621 C.ar    1  LIG1        0.1899
     36 C          -7.5174    4.3984    0.6305 C.ar    1  LIG1        0.1149
     37 C          -6.8299    5.5571    1.1611 C.ar    1  LIG1        0.1709
     38 C          -5.5530    5.1447    1.4820 C.ar    1  LIG1        0.1353
     39 O          -5.3966    3.7907    1.1835 O.2     1  LIG1       -0.4548
     40 H          -4.4952    5.7106    1.9829 H       1  LIG1        0.1068
     41 C          -8.7480    4.3741    0.2119 C.1     1  LIG1       -0.0621
     42 C          -9.8850    4.3517   -0.1748 C.1     1  LIG1       -0.1137
     43 H         -10.8978    4.3317   -0.5193 H       1  LIG1        0.1232
     44 O          -7.3410    6.7447    1.2978 O.3     1  LIG1       -0.5028
     45 H          -8.2982    6.6796    1.3315 H       1  LIG1        0.2923
@<TRIPOS>BOND
     1    31    30    1
     2    30    29    3
     3    21    18    1
     4    29    25    1
     5    34    33    1
     6    43    42    1
     7    11     9    1
     8    10     9    1
     9    33    32    3
    10    25    26   ar
    11    25    24   ar
    12    32    26    1
    13    42    41    3
    14    26    27   ar
    15     2     8    1
    16     2     1   ar
    17     2     3   ar
    18    19    18    1
    19     6     5    1
    20     4    12    1
    21     4     5   ar
    22     4     3   ar
    23    18    17    1
    24    18    20    1
    25    12    13   ar
    26    12    16   ar
    27    17    13    1
    28    13    14   ar
    29     5     1   ar
    30    16    15   ar
    31     1     7    1
    32    14    15   ar
    33    14    22    1
    34    15    24    1
    35     3     9    1
    36    24    28   ar
    37    22    23    1
    38    41    36    1
    39    27    28   ar
    40    27    35    1
    41    36    35   ar
    42    36    37   ar
    43    35    39   ar
    44    37    44    1
    45    37    38   ar
    46    39    38   ar
    47    44    45    1
    48    38    40    1
