@<TRIPOS>MOLECULE
mol_data/noopt/geoms/mol2/13ah13ah.out
 22 23 0 0 0
SMALL
GASTEIGER

@<TRIPOS>ATOM
      1 C           1.1215   -0.3259    0.0002 C.ar    1  LIG1        0.0040
      2 C           0.7176    0.9721   -0.0005 C.ar    1  LIG1       -0.0230
      3 C          -0.7144    0.9744    0.0003 C.ar    1  LIG1        0.0516
      4 C          -1.1226   -0.3223   -0.0003 C.ar    1  LIG1        0.0838
      5 N          -0.0018   -1.1217    0.0001 N.ar    1  LIG1       -0.3580
      6 H          -0.0034   -2.1157   -0.0003 H       1  LIG1        0.1654
      7 H           2.3167   -0.8373    0.0007 H       1  LIG1        0.0807
      8 H           1.4918    2.0164   -0.0003 H       1  LIG1        0.0651
      9 N          -1.4853    2.0212    0.0010 N.pl3   1  LIG1       -0.3563
     10 H          -1.0256    2.7740   -0.4702 H       1  LIG1        0.1424
     11 H          -2.3405    1.8056   -0.4703 H       1  LIG1        0.1424
     12 C          -2.3194   -0.8299   -0.0001 C.ar    1  LIG1        0.0665
     13 C          -3.5353   -0.2219   -0.0003 C.ar    1  LIG1       -0.0142
     14 C          -4.5290   -1.2530    0.0012 C.ar    1  LIG1        0.0427
     15 C          -3.8767   -2.4457    0.0005 C.ar    1  LIG1        0.0230
     16 N          -2.5238   -2.1913    0.0002 N.ar    1  LIG1       -0.3578
     17 H          -1.8081   -2.8811   -0.0004 H       1  LIG1        0.1654
     18 H          -4.3398   -3.6604    0.0012 H       1  LIG1        0.0826
     19 H          -3.7520    1.0599   -0.0003 H       1  LIG1        0.0658
     20 N          -5.8180   -1.0837    0.0025 N.pl3   1  LIG1       -0.3568
     21 H          -6.0426   -0.2307   -0.4686 H       1  LIG1        0.1424
     22 H          -6.2552   -1.8497   -0.4686 H       1  LIG1        0.1424
@<TRIPOS>BOND
     1    11     9    1
     2    10     9    1
     3    22    20    1
     4    21    20    1
     5     2     8    1
     6     2     1   ar
     7     2     3   ar
     8    17    16    1
     9    13    19    1
    10    13    12   ar
    11    13    14   ar
    12     4    12    1
    13     4     5   ar
    14     4     3   ar
    15     6     5    1
    16    12    16   ar
    17     5     1   ar
    18    16    15   ar
    19     1     7    1
    20     3     9    1
    21    15    14   ar
    22    15    18    1
    23    14    20    1
