@<TRIPOS>MOLECULE
mol_data/noopt/geoms/mol2/13ah13ah-13ah-13ah-.out
 42 45 0 0 0
SMALL
GASTEIGER

@<TRIPOS>ATOM
      1 C           1.1215   -0.3259    0.0002 C.ar    1  LIG1        0.0040
      2 C           0.7176    0.9721   -0.0005 C.ar    1  LIG1       -0.0230
      3 C          -0.7144    0.9744    0.0003 C.ar    1  LIG1        0.0516
      4 C          -1.1226   -0.3223   -0.0003 C.ar    1  LIG1        0.0839
      5 N          -0.0018   -1.1217    0.0001 N.ar    1  LIG1       -0.3580
      6 H          -0.0034   -2.1157   -0.0003 H       1  LIG1        0.1654
      7 H           2.3167   -0.8373    0.0007 H       1  LIG1        0.0807
      8 H           1.4918    2.0164   -0.0003 H       1  LIG1        0.0651
      9 N          -1.4853    2.0212    0.0010 N.pl3   1  LIG1       -0.3563
     10 H          -1.0256    2.7740   -0.4702 H       1  LIG1        0.1424
     11 H          -2.3405    1.8056   -0.4703 H       1  LIG1        0.1424
     12 C          -2.3194   -0.8299   -0.0001 C.ar    1  LIG1        0.0670
     13 C          -2.7274   -2.1266   -0.0005 C.ar    1  LIG1       -0.0135
     14 C          -4.1594   -2.1244    0.0011 C.ar    1  LIG1        0.0523
     15 C          -4.5635   -0.8264    0.0006 C.ar    1  LIG1        0.0843
     16 N          -3.4402   -0.0305    0.0003 N.ar    1  LIG1       -0.3504
     17 H          -3.4386    0.9635   -0.0001 H       1  LIG1        0.1660
     18 H          -1.9565   -3.1734   -0.0006 H       1  LIG1        0.0658
     19 N          -4.9336   -3.1687    0.0023 N.pl3   1  LIG1       -0.3563
     20 H          -5.7883   -2.9506   -0.4688 H       1  LIG1        0.1424
     21 H          -4.4765   -3.9231   -0.4688 H       1  LIG1        0.1424
     22 C          -5.7587   -0.3150    0.0014 C.ar    1  LIG1        0.0670
     23 C          -6.9765   -0.9191    0.0015 C.ar    1  LIG1       -0.0135
     24 C          -7.9670    0.1151    0.0037 C.ar    1  LIG1        0.0523
     25 C          -7.3109    1.3057    0.0031 C.ar    1  LIG1        0.0843
     26 N          -5.9587    1.0470    0.0022 N.ar    1  LIG1       -0.3504
     27 H          -5.2408    1.7345    0.0016 H       1  LIG1        0.1660
     28 H          -7.1973   -2.2002    0.0012 H       1  LIG1        0.0658
     29 N          -9.2564   -0.0501    0.0054 N.pl3   1  LIG1       -0.3563
     30 H          -9.6914    0.7174   -0.4655 H       1  LIG1        0.1424
     31 H          -9.4839   -0.9024   -0.4656 H       1  LIG1        0.1424
     32 C          -7.7701    2.5219    0.0044 C.ar    1  LIG1        0.0665
     33 C          -9.0494    2.9816    0.0047 C.ar    1  LIG1       -0.0142
     34 C          -8.9898    4.4124    0.0074 C.ar    1  LIG1        0.0427
     35 C          -7.6767    4.7641    0.0068 C.ar    1  LIG1        0.0230
     36 N          -6.9265    3.6098    0.0054 N.ar    1  LIG1       -0.3578
     37 H          -5.9333    3.5684    0.0046 H       1  LIG1        0.1654
     38 H          -7.1178    5.9378    0.0083 H       1  LIG1        0.0826
     39 H         -10.1263    2.2533    0.0043 H       1  LIG1        0.0658
     40 N         -10.0023    5.2278    0.0095 N.pl3   1  LIG1       -0.3568
     41 H          -9.7503    6.0732   -0.4614 H       1  LIG1        0.1424
     42 H         -10.7746    4.8015   -0.4614 H       1  LIG1        0.1424
@<TRIPOS>BOND
     1    11     9    1
     2    10     9    1
     3    21    19    1
     4    20    19    1
     5    31    29    1
     6    30    29    1
     7    42    40    1
     8    41    40    1
     9    18    13    1
    10     2     8    1
    11     2     1   ar
    12     2     3   ar
    13    13    12   ar
    14    13    14   ar
    15     6     5    1
    16     4    12    1
    17     4     5   ar
    18     4     3   ar
    19    17    16    1
    20    12    16   ar
    21     5     1   ar
    22     1     7    1
    23     3     9    1
    24    16    15   ar
    25    15    14   ar
    26    15    22    1
    27    14    19    1
    28    28    23    1
    29    22    23   ar
    30    22    26   ar
    31    23    24   ar
    32    27    26    1
    33    26    25   ar
    34    25    24   ar
    35    25    32    1
    36    24    29    1
    37    39    33    1
    38    32    33   ar
    39    32    36   ar
    40    37    36    1
    41    33    34   ar
    42    36    35   ar
    43    35    34   ar
    44    35    38    1
    45    34    40    1
