@<TRIPOS>MOLECULE
mol_data/noopt/geoms/mol2/13ah6hf6hh6he-.out
 50 53 0 0 0
SMALL
GASTEIGER

@<TRIPOS>ATOM
      1 C           1.1215   -0.3259    0.0002 C.ar    1  LIG1        0.0040
      2 C           0.7176    0.9721   -0.0005 C.ar    1  LIG1       -0.0231
      3 C          -0.7144    0.9744    0.0003 C.ar    1  LIG1        0.0503
      4 C          -1.1226   -0.3223   -0.0003 C.ar    1  LIG1        0.0708
      5 N          -0.0018   -1.1217    0.0001 N.ar    1  LIG1       -0.3591
      6 H          -0.0034   -2.1157   -0.0003 H       1  LIG1        0.1654
      7 H           2.3167   -0.8373    0.0007 H       1  LIG1        0.0807
      8 H           1.4918    2.0164   -0.0003 H       1  LIG1        0.0651
      9 N          -1.4853    2.0212    0.0010 N.pl3   1  LIG1       -0.3563
     10 H          -1.0256    2.7740   -0.4702 H       1  LIG1        0.1424
     11 H          -2.3405    1.8056   -0.4703 H       1  LIG1        0.1424
     12 C          -2.5001   -2.2252    0.0002 C.ar    1  LIG1        0.1263
     13 C          -2.3194   -0.8299   -0.0001 C.ar    1  LIG1        0.0431
     14 C          -3.4502   -0.0112    0.0002 C.ar    1  LIG1       -0.0056
     15 C          -4.7120   -0.6082    0.0005 C.ar    1  LIG1        0.1436
     16 C          -4.7903   -2.0130    0.0006 C.ar    1  LIG1        0.1177
     17 N          -3.7098   -2.8179    0.0005 N.ar    1  LIG1       -0.2280
     18 H          -3.3485    1.0833   -0.0010 H       1  LIG1        0.0662
     19 N          -1.4781   -3.0287    0.0000 N.pl3   1  LIG1       -0.3426
     20 H          -1.7208   -3.8765   -0.4714 H       1  LIG1        0.1437
     21 H          -0.7115   -2.5928   -0.4714 H       1  LIG1        0.1437
     22 O          -5.7955    0.1103    0.0006 O.3     1  LIG1       -0.5046
     23 H          -6.5627   -0.4668    0.0006 H       1  LIG1        0.2922
     24 C          -6.0100   -4.0206    0.0013 C.ar    1  LIG1        0.1263
     25 C          -5.9423   -2.6153    0.0010 C.ar    1  LIG1        0.0453
     26 C          -7.1354   -1.8904    0.0013 C.ar    1  LIG1       -0.0264
     27 C          -8.3451   -2.5870    0.0019 C.ar    1  LIG1        0.0518
     28 C          -8.3099   -3.9936    0.0020 C.ar    1  LIG1        0.0970
     29 N          -7.1681   -4.7088    0.0019 N.ar    1  LIG1       -0.2298
     30 H          -7.1222   -0.7912    0.0001 H       1  LIG1        0.0644
     31 N          -4.9267   -4.7392    0.0011 N.pl3   1  LIG1       -0.3426
     32 H          -5.1003   -5.6038   -0.4704 H       1  LIG1        0.1437
     33 H          -4.1977   -4.2430   -0.4704 H       1  LIG1        0.1437
     34 N          -9.4828   -1.9581    0.0021 N.pl3   1  LIG1       -0.3563
     35 H          -9.3796   -1.0823   -0.4693 H       1  LIG1        0.1424
     36 H         -10.1696   -2.5114   -0.4693 H       1  LIG1        0.1424
     37 C          -9.3641   -6.0928   -0.0181 C.ar    1  LIG1        0.1255
     38 C          -9.4097   -4.6868    0.0026 C.ar    1  LIG1        0.0429
     39 C         -10.6572   -4.0604    0.0240 C.ar    1  LIG1       -0.0323
     40 C         -11.8068   -4.8523    0.0237 C.ar    1  LIG1        0.0435
     41 C         -11.6585   -6.2512    0.0019 C.ar    1  LIG1        0.0451
     42 N         -10.4629   -6.8721   -0.0186 N.ar    1  LIG1       -0.2388
     43 H         -10.7325   -2.9639    0.0395 H       1  LIG1        0.0638
     44 H         -12.6989   -7.0307    0.0009 H       1  LIG1        0.0843
     45 N          -8.2264   -6.7216   -0.0382 N.pl3   1  LIG1       -0.3426
     46 H          -8.3362   -7.5939   -0.5148 H       1  LIG1        0.1437
     47 H          -7.5462   -6.1647   -0.5148 H       1  LIG1        0.1437
     48 C         -12.9914   -4.3172    0.0429 C.1     1  LIG1       -0.0681
     49 C         -14.0860   -3.8228    0.0607 C.1     1  LIG1       -0.1139
     50 H         -15.0610   -3.3824    0.0765 H       1  LIG1        0.1232
@<TRIPOS>BOND
     1    47    45    1
     2    46    45    1
     3    21    19    1
     4    20    19    1
     5    33    31    1
     6    32    31    1
     7    11     9    1
     8    10     9    1
     9    36    34    1
    10    35    34    1
    11    45    37    1
    12    42    37   ar
    13    42    41   ar
    14    37    38   ar
    15    18    14    1
    16     2     8    1
    17     2     1   ar
    18     2     3   ar
    19     4    13    1
    20     4     5   ar
    21     4     3   ar
    22     6     5    1
    23    13    12   ar
    24    13    14   ar
    25    19    12    1
    26    30    26    1
    27     5     1   ar
    28    12    17   ar
    29    14    15   ar
    30     1     7    1
    31     3     9    1
    32    17    16   ar
    33    15    16   ar
    34    15    22    1
    35    16    25    1
    36    22    23    1
    37    44    41    1
    38    25    24   ar
    39    25    26   ar
    40    31    24    1
    41    24    29   ar
    42    26    27   ar
    43    29    28   ar
    44    27    28   ar
    45    27    34    1
    46    41    40   ar
    47    28    38    1
    48    38    39   ar
    49    40    39   ar
    50    40    48    1
    51    39    43    1
    52    48    49    3
    53    49    50    1
