@<TRIPOS>MOLECULE
mol_data/noopt/geoms/mol2/13ah13ah-13ah.out
 32 34 0 0 0
SMALL
GASTEIGER

@<TRIPOS>ATOM
      1 C           1.1215   -0.3259    0.0002 C.ar    1  LIG1        0.0040
      2 C           0.7176    0.9721   -0.0005 C.ar    1  LIG1       -0.0230
      3 C          -0.7144    0.9744    0.0003 C.ar    1  LIG1        0.0516
      4 C          -1.1226   -0.3223   -0.0003 C.ar    1  LIG1        0.0839
      5 N          -0.0018   -1.1217    0.0001 N.ar    1  LIG1       -0.3580
      6 H          -0.0034   -2.1157   -0.0003 H       1  LIG1        0.1654
      7 H           2.3167   -0.8373    0.0007 H       1  LIG1        0.0807
      8 H           1.4918    2.0164   -0.0003 H       1  LIG1        0.0651
      9 N          -1.4853    2.0212    0.0010 N.pl3   1  LIG1       -0.3563
     10 H          -1.0256    2.7740   -0.4702 H       1  LIG1        0.1424
     11 H          -2.3405    1.8056   -0.4703 H       1  LIG1        0.1424
     12 C          -2.3194   -0.8299   -0.0001 C.ar    1  LIG1        0.0670
     13 C          -2.7274   -2.1266   -0.0005 C.ar    1  LIG1       -0.0135
     14 C          -4.1594   -2.1244    0.0011 C.ar    1  LIG1        0.0523
     15 C          -4.5635   -0.8264    0.0006 C.ar    1  LIG1        0.0843
     16 N          -3.4402   -0.0305    0.0003 N.ar    1  LIG1       -0.3504
     17 H          -3.4386    0.9635   -0.0001 H       1  LIG1        0.1660
     18 H          -1.9565   -3.1734   -0.0006 H       1  LIG1        0.0658
     19 N          -4.9336   -3.1687    0.0023 N.pl3   1  LIG1       -0.3563
     20 H          -5.7883   -2.9506   -0.4688 H       1  LIG1        0.1424
     21 H          -4.4765   -3.9231   -0.4688 H       1  LIG1        0.1424
     22 C          -5.7587   -0.3150    0.0014 C.ar    1  LIG1        0.0665
     23 C          -6.1626    0.9830    0.0016 C.ar    1  LIG1       -0.0142
     24 C          -7.5946    0.9853    0.0038 C.ar    1  LIG1        0.0427
     25 C          -8.0028   -0.3114    0.0030 C.ar    1  LIG1        0.0230
     26 N          -6.8820   -1.1108    0.0021 N.ar    1  LIG1       -0.3578
     27 H          -6.8836   -2.1048    0.0013 H       1  LIG1        0.1654
     28 H          -9.1996   -0.8190    0.0041 H       1  LIG1        0.0826
     29 H          -5.3884    2.0273    0.0015 H       1  LIG1        0.0658
     30 N          -8.3655    2.0321    0.0056 N.pl3   1  LIG1       -0.3568
     31 H          -7.9061    2.7852   -0.4653 H       1  LIG1        0.1424
     32 H          -9.2210    1.8169   -0.4654 H       1  LIG1        0.1424
@<TRIPOS>BOND
     1    11     9    1
     2    10     9    1
     3    21    19    1
     4    20    19    1
     5    32    30    1
     6    31    30    1
     7    18    13    1
     8     2     8    1
     9     2     1   ar
    10     2     3   ar
    11    13    12   ar
    12    13    14   ar
    13     4    12    1
    14     4     5   ar
    15     4     3   ar
    16     6     5    1
    17    17    16    1
    18    12    16   ar
    19     5     1   ar
    20     1     7    1
    21     3     9    1
    22    16    15   ar
    23    15    14   ar
    24    15    22    1
    25    14    19    1
    26    27    26    1
    27    22    23   ar
    28    22    26   ar
    29    29    23    1
    30    23    24   ar
    31    26    25   ar
    32    25    24   ar
    33    25    28    1
    34    24    30    1
