@<TRIPOS>MOLECULE
mol_data/noopt/geoms/mol2/13ah4lh12fd-4fe-.out
 50 51 0 0 0
SMALL
GASTEIGER

@<TRIPOS>ATOM
      1 C           1.1215   -0.3259    0.0002 C.2     1  LIG1        0.0019
      2 C           0.7176    0.9721   -0.0005 C.2     1  LIG1       -0.0444
      3 C          -0.7144    0.9744    0.0003 C.3     1  LIG1        0.0498
      4 C          -1.1226   -0.3223   -0.0003 C.2     1  LIG1        0.0358
      5 N          -0.0018   -1.1217    0.0001 N.2     1  LIG1       -0.3633
      6 H          -0.0034   -2.1157   -0.0003 H       1  LIG1        0.1651
      7 H           2.3167   -0.8373    0.0007 H       1  LIG1        0.0807
      8 H           1.4918    2.0164   -0.0003 H       1  LIG1        0.0632
      9 N          -1.4853    2.0212    0.0010 N.3     2  LIG2       -0.3437
     10 H          -1.0256    2.7740   -0.4702 H       1  LIG1        0.1146
     11 H          -2.3405    1.8056   -0.4703 H       1  LIG1        0.1146
     12 C          -3.4434    0.0212    0.0008 C.ar    1  LIG1        0.1302
     13 C          -4.7180   -0.5776    0.0025 C.ar    1  LIG1       -0.0067
     14 C          -2.3194   -0.8299   -0.0001 C.ar    1  LIG1        0.0382
     15 C          -4.8692   -1.9625    0.0027 C.ar    1  LIG1        0.0451
     16 H          -5.5988    0.0606    0.0034 H       1  LIG1        0.0662
     17 C          -2.4697   -2.2124    0.0001 C.ar    1  LIG1       -0.0280
     18 C          -3.7444   -2.7884    0.0015 C.ar    1  LIG1        0.0363
     19 H          -1.5874   -2.8474   -0.0005 H       1  LIG1        0.0644
     20 O          -3.3661    1.3190    0.0004 O.3     1  LIG1       -0.4879
     21 C          -1.9921    1.7153    0.0001 C.3     1  LIG1        0.1235
     22 H          -1.9290    2.7835   -0.0004 H       1  LIG1        0.1146
     23 H          -1.5096    1.3299    0.8740 H       1  LIG1        0.0731
     24 H          -1.5096    1.3291   -0.8733 H       1  LIG1        0.0731
     25 N          -3.8788   -4.0814    0.0018 N.pl3   1  LIG1       -0.3574
     26 H          -4.7254   -4.3287   -0.4695 H       1  LIG1        0.1423
     27 H          -3.1012   -4.4975   -0.4695 H       1  LIG1        0.1423
     28 C          -6.0610   -2.4816    0.0042 C.ar    1  LIG1        0.1801
     29 C          -7.3489   -1.9874    0.0054 C.ar    1  LIG1        0.1811
     30 C          -8.2332   -3.1341    0.0068 C.ar    1  LIG1        0.1395
     31 C          -7.4266   -4.2535    0.0064 C.ar    1  LIG1        0.1602
     32 O          -6.0831   -3.8770    0.0047 O.2     1  LIG1       -0.4495
     33 O          -7.7235   -0.7425    0.0053 O.3     1  LIG1       -0.5023
     34 H          -8.6824   -0.6964    0.0053 H       1  LIG1        0.2923
     35 N         -10.6783   -3.0491    0.0094 N.1     1  LIG1       -0.1906
     36 C          -9.5324   -3.0889    0.0082 C.1     1  LIG1        0.1067
     37 C          -8.9403   -6.0457    0.0297 C.ar    1  LIG1        0.1276
     38 C          -9.1023   -7.4447    0.0312 C.ar    1  LIG1       -0.0183
     39 C          -7.6252   -5.5382    0.0072 C.ar    1  LIG1        0.0612
     40 C          -8.0047   -8.3023    0.0105 C.ar    1  LIG1       -0.0428
     41 H         -10.1085   -7.8575    0.0486 H       1  LIG1        0.0655
     42 C          -6.5291   -6.3939   -0.0134 C.ar    1  LIG1       -0.0321
     43 C          -6.7105   -7.7808   -0.0120 C.ar    1  LIG1        0.0256
     44 H          -5.5248   -5.9781   -0.0305 H       1  LIG1        0.0638
     45 H          -8.1908   -9.5889    0.0124 H       1  LIG1        0.0631
     46 O         -10.0028   -5.2968    0.0494 O.3     1  LIG1       -0.5061
     47 H         -10.7861   -5.8519    0.0542 H       1  LIG1        0.2922
     48 C          -5.6822   -8.5758   -0.0312 C.1     1  LIG1       -0.0696
     49 C          -4.7319   -9.3104   -0.0490 C.1     1  LIG1       -0.1139
     50 H          -3.8855   -9.9648   -0.0648 H       1  LIG1        0.1232
@<TRIPOS>BOND
     1    24    21    1
     2    11     9    1
     3    10     9    1
     4    27    25    1
     5    26    25    1
     6    50    49    1
     7    49    48    3
     8    48    43    1
     9    44    42    1
    10    42    43   ar
    11    42    39   ar
    12    43    40   ar
    13     2     8    1
    14     2     1    2
    15    19    17    1
    16    22     9    1
    17     6     5    1
    18     4    14    1
    19     4     5    2
    20     4     3    1
    21    14    17   ar
    22    14    12   ar
    23     5     1    1
    24    21    20    1
    25    21    23    1
    26    17    18   ar
    27     1     7    1
    28    20    12    1
    29    12    13   ar
    30    18    25    1
    31    18    15   ar
    32    13    15   ar
    33    13    16    1
    34    15    28    1
    35    28    32   ar
    36    28    29   ar
    37    32    31   ar
    38    34    33    1
    39    33    29    1
    40    29    30   ar
    41    31    30   ar
    42    31    39    1
    43    30    36    1
    44    39    37   ar
    45    36    35    3
    46    40    45    1
    47    40    38   ar
    48    37    38   ar
    49    37    46    1
    50    38    41    1
    51    46    47    1
