@<TRIPOS>MOLECULE
mol_data/noopt/geoms/mol2/13ah6ae(270)6ha(60)6if(320).out
 47 50 0 0 0
SMALL
GASTEIGER

@<TRIPOS>ATOM
      1 C           1.1215   -0.3259    0.0002 C.ar    1  LIG1        0.0040
      2 C           0.7176    0.9721   -0.0005 C.ar    1  LIG1       -0.0231
      3 C          -0.7144    0.9744    0.0003 C.ar    1  LIG1        0.0502
      4 C          -1.1226   -0.3223   -0.0003 C.ar    1  LIG1        0.0689
      5 N          -0.0018   -1.1217    0.0001 N.ar    1  LIG1       -0.3591
      6 H          -0.0034   -2.1157   -0.0003 H       1  LIG1        0.1654
      7 H           2.3167   -0.8373    0.0007 H       1  LIG1        0.0807
      8 H           1.4918    2.0164   -0.0003 H       1  LIG1        0.0651
      9 N          -1.4853    2.0212    0.0010 N.pl3   1  LIG1       -0.3563
     10 H          -1.0256    2.7740   -0.4702 H       1  LIG1        0.1424
     11 H          -2.3405    1.8056   -0.4703 H       1  LIG1        0.1424
     12 C          -2.9740   -1.1073    1.2140 C.ar    1  LIG1        0.0375
     13 C          -2.3194   -0.8299   -0.0001 C.ar    1  LIG1        0.0194
     14 C          -2.9837   -1.1115   -1.1953 C.ar    1  LIG1       -0.0336
     15 C          -4.2678   -1.6560   -1.1381 C.ar    1  LIG1        0.0513
     16 C          -4.8389   -1.8983    0.1247 C.ar    1  LIG1        0.0896
     17 N          -4.2124   -1.6325    1.2875 N.ar    1  LIG1       -0.2530
     18 H          -2.5038   -0.9092   -2.1632 H       1  LIG1        0.0637
     19 H          -2.3965   -0.8624    2.3526 H       1  LIG1        0.0836
     20 C          -4.9279   -1.9360   -2.2225 C.1     1  LIG1       -0.0675
     21 C          -5.5378   -2.1947   -3.2245 C.1     1  LIG1       -0.1138
     22 H          -6.0811   -2.4252   -4.1170 H       1  LIG1        0.1232
     23 C          -6.5255   -3.2731   -0.7606 C.ar    1  LIG1        0.1261
     24 C          -6.0319   -2.4040    0.2296 C.ar    1  LIG1        0.0411
     25 C          -6.8504   -2.1016    1.3194 C.ar    1  LIG1       -0.0472
     26 C          -8.1228   -2.6721    1.3829 C.ar    1  LIG1       -0.0349
     27 C          -8.5269   -3.5296    0.3432 C.ar    1  LIG1        0.0749
     28 N          -7.7502   -3.8323   -0.7152 N.ar    1  LIG1       -0.2317
     29 H          -6.4995   -1.4257    2.1121 H       1  LIG1        0.0626
     30 N          -5.8008   -3.5848   -1.7940 N.pl3   1  LIG1       -0.3426
     31 H          -6.2819   -4.2667   -2.3449 H       1  LIG1        0.1437
     32 H          -5.6368   -2.7666   -2.3450 H       1  LIG1        0.1437
     33 H          -8.9227   -2.4218    2.3767 H       1  LIG1        0.0639
     34 C          -9.9400   -5.2261    1.1453 C.ar    1  LIG1        0.0476
     35 C          -9.7022   -4.0850    0.3576 C.ar    1  LIG1        0.0249
     36 C         -10.7535   -3.5685   -0.4022 C.ar    1  LIG1       -0.0078
     37 C         -11.9955   -4.2035   -0.3502 C.ar    1  LIG1        0.1355
     38 C         -12.1350   -5.3397    0.4677 C.ar    1  LIG1        0.0693
     39 N         -11.1317   -5.8513    1.2073 N.ar    1  LIG1       -0.2559
     40 H         -10.6052   -2.6788   -1.0306 H       1  LIG1        0.0662
     41 H         -13.2716   -5.9654    0.5494 H       1  LIG1        0.0867
     42 C          -8.9927   -5.7439    1.8701 C.3     1  LIG1       -0.0217
     43 H          -8.5605   -4.9845    2.4877 H       1  LIG1        0.0293
     44 H          -8.2394   -6.1556    1.2313 H       1  LIG1        0.0293
     45 H          -9.3986   -6.5177    2.4876 H       1  LIG1        0.0293
     46 O         -13.0056   -3.7616   -1.0391 O.3     1  LIG1       -0.5052
     47 H         -13.6172   -4.4818   -1.2088 H       1  LIG1        0.2922
@<TRIPOS>BOND
     1    22    21    1
     2    21    20    3
     3    32    30    1
     4    31    30    1
     5    20    15    1
     6    18    14    1
     7    30    23    1
     8    47    46    1
     9    14    15   ar
    10    14    13   ar
    11    15    16   ar
    12    46    37    1
    13    40    36    1
    14    23    28   ar
    15    23    24   ar
    16    28    27   ar
    17    11     9    1
    18    10     9    1
    19    36    37   ar
    20    36    35   ar
    21    37    38   ar
    22     2     8    1
    23     2     1   ar
    24     2     3   ar
    25     6     5    1
    26     4    13    1
    27     4     5   ar
    28     4     3   ar
    29    13    12   ar
    30     5     1   ar
    31     1     7    1
    32     3     9    1
    33    16    24    1
    34    16    17   ar
    35    24    25   ar
    36    27    35    1
    37    27    26   ar
    38    35    34   ar
    39    38    41    1
    40    38    39   ar
    41    34    39   ar
    42    34    42    1
    43    12    17   ar
    44    12    19    1
    45    44    42    1
    46    25    26   ar
    47    25    29    1
    48    26    33    1
    49    42    45    1
    50    42    43    1
