@<TRIPOS>MOLECULE
mol_data/noopt/geoms/mol2/13ai6ed(310)6lh(110)6lh.out
 55 58 0 0 0
SMALL
GASTEIGER

@<TRIPOS>ATOM
      1 C           1.1215   -0.3259    0.0002 C.ar    1  LIG1        0.0024
      2 C           0.7176    0.9721   -0.0005 C.ar    1  LIG1       -0.0409
      3 C          -0.7144    0.9744    0.0003 C.ar    1  LIG1       -0.0251
      4 C          -1.1226   -0.3223   -0.0003 C.ar    1  LIG1        0.0521
      5 N          -0.0018   -1.1217    0.0001 N.ar    1  LIG1       -0.3604
      6 H          -0.0034   -2.1157   -0.0003 H       1  LIG1        0.1653
      7 H           2.3167   -0.8373    0.0007 H       1  LIG1        0.0807
      8 H           1.4918    2.0164   -0.0003 H       1  LIG1        0.0635
      9 C          -1.4855    2.0214    0.0010 C.3     1  LIG1       -0.0377
     10 H          -2.4003    1.7904    0.5056 H       1  LIG1        0.0278
     11 H          -1.6974    2.3090   -1.0077 H       1  LIG1        0.0278
     12 H          -0.9933    2.8265    0.5056 H       1  LIG1        0.0278
     13 C          -2.6692   -1.8262    0.9297 C.ar    1  LIG1        0.1230
     14 C          -2.3194   -0.8299   -0.0001 C.ar    1  LIG1        0.0336
     15 C          -3.2838   -0.4038   -0.9152 C.ar    1  LIG1       -0.0305
     16 C          -4.5536   -0.9820   -0.8713 C.ar    1  LIG1        0.0785
     17 C          -4.8077   -1.9719    0.0957 C.ar    1  LIG1        0.0949
     18 N          -3.8891   -2.3947    0.9861 N.ar    1  LIG1       -0.2363
     19 H          -3.0470    0.3719   -1.6571 H       1  LIG1        0.0638
     20 C          -1.8057   -2.2555    1.8016 C.1     1  LIG1       -0.0491
     21 C          -1.0079   -2.6522    2.6072 C.1     1  LIG1       -0.1124
     22 H          -0.2973   -3.0056    3.3248 H       1  LIG1        0.1232
     23 N          -6.3084   -0.3005   -2.4340 N.1     1  LIG1       -0.1908
     24 C          -5.4860   -0.6199   -1.7017 C.1     1  LIG1        0.1013
     25 C          -6.8578   -2.5078   -0.9182 C.ar    1  LIG1        0.2246
     26 C          -5.9744   -2.5397    0.1762 C.ar    1  LIG1        0.0649
     27 C          -6.3801   -3.1924    1.3417 C.ar    1  LIG1       -0.0246
     28 C          -7.6433   -3.7856    1.3747 C.ar    1  LIG1        0.0519
     29 C          -8.4554   -3.7002    0.2290 C.ar    1  LIG1        0.1005
     30 N          -8.0798   -3.0747   -0.9037 N.ar    1  LIG1       -0.2103
     31 H          -5.7173   -3.2371    2.2175 H       1  LIG1        0.0645
     32 O          -6.5252   -1.9124   -2.0250 O.3     1  LIG1       -0.4792
     33 C          -5.2263   -2.3512   -2.4314 C.3     1  LIG1        0.0804
     34 H          -4.9530   -1.8610   -3.3424 H       1  LIG1        0.0660
     35 H          -4.5142   -2.1111   -1.6696 H       1  LIG1        0.0660
     36 H          -5.2397   -3.4098   -2.5861 H       1  LIG1        0.0660
     37 N          -8.0674   -4.4049    2.4362 N.pl3   1  LIG1       -0.3563
     38 H          -9.0673   -4.4198    2.4361 H       1  LIG1        0.1424
     39 H          -7.7201   -5.3426    2.4361 H       1  LIG1        0.1424
     40 C          -9.7859   -5.6359    0.2013 C.ar    1  LIG1        0.2240
     41 C          -9.6394   -4.2367    0.2110 C.ar    1  LIG1        0.0655
     42 C         -10.7897   -3.4458    0.2012 C.ar    1  LIG1       -0.0252
     43 C         -12.0365   -4.0733    0.1819 C.ar    1  LIG1        0.0438
     44 C         -12.0805   -5.4796    0.1733 C.ar    1  LIG1        0.0520
     45 N         -10.9808   -6.2579    0.1828 N.ar    1  LIG1       -0.2189
     46 H         -10.7148   -2.3492    0.2073 H       1  LIG1        0.0645
     47 H         -13.2173   -6.1097    0.1555 H       1  LIG1        0.0849
     48 O          -8.7447   -6.4143    0.2099 O.3     1  LIG1       -0.4792
     49 C          -9.1696   -7.7798    0.2130 C.3     1  LIG1        0.0804
     50 H          -8.3123   -8.4201    0.2200 H       1  LIG1        0.0660
     51 H          -9.7617   -7.9671    1.0844 H       1  LIG1        0.0660
     52 H          -9.7526   -7.9739   -0.6629 H       1  LIG1        0.0660
     53 N         -13.1371   -3.3814    0.1720 N.pl3   1  LIG1       -0.3568
     54 H         -12.9816   -2.5147   -0.3020 H       1  LIG1        0.1424
     55 H         -13.8507   -3.8971   -0.3020 H       1  LIG1        0.1424
@<TRIPOS>BOND
     1    34    33    1
     2    36    33    1
     3    23    24    3
     4    33    32    1
     5    33    35    1
     6    32    25    1
     7    24    16    1
     8    19    15    1
     9    11     9    1
    10    25    30   ar
    11    25    26   ar
    12    15    16   ar
    13    15    14   ar
    14    30    29   ar
    15    16    17   ar
    16    52    49    1
    17    55    53    1
    18    54    53    1
    19     2     8    1
    20     2     1   ar
    21     2     3   ar
    22     6     5    1
    23     4    14    1
    24     4     5   ar
    25     4     3   ar
    26    14    13   ar
    27     5     1   ar
    28     1     7    1
    29     3     9    1
    30     9    12    1
    31     9    10    1
    32    17    26    1
    33    17    18   ar
    34    47    44    1
    35    53    43    1
    36    44    43   ar
    37    44    45   ar
    38    26    27   ar
    39    43    42   ar
    40    45    40   ar
    41    42    46    1
    42    42    41   ar
    43    40    48    1
    44    40    41   ar
    45    48    49    1
    46    41    29    1
    47    49    50    1
    48    49    51    1
    49    29    28   ar
    50    13    18   ar
    51    13    20    1
    52    27    28   ar
    53    27    31    1
    54    28    37    1
    55    20    21    3
    56    39    37    1
    57    38    37    1
    58    21    22    1
