@<TRIPOS>MOLECULE
mol_data/noopt/geoms/mol2/13ai13ai-13ai13ai-.out
 46 49 0 0 0
SMALL
GASTEIGER

@<TRIPOS>ATOM
      1 C           1.1215   -0.3259    0.0002 C.ar    1  LIG1        0.0025
      2 C           0.7176    0.9721   -0.0005 C.ar    1  LIG1       -0.0409
      3 C          -0.7144    0.9744    0.0003 C.ar    1  LIG1       -0.0238
      4 C          -1.1226   -0.3223   -0.0003 C.ar    1  LIG1        0.0658
      5 N          -0.0018   -1.1217    0.0001 N.ar    1  LIG1       -0.3593
      6 H          -0.0034   -2.1157   -0.0003 H       1  LIG1        0.1654
      7 H           2.3167   -0.8373    0.0007 H       1  LIG1        0.0807
      8 H           1.4918    2.0164   -0.0003 H       1  LIG1        0.0635
      9 C          -1.4855    2.0214    0.0010 C.3     1  LIG1       -0.0377
     10 H          -2.4003    1.7904    0.5056 H       1  LIG1        0.0278
     11 H          -1.6974    2.3090   -1.0077 H       1  LIG1        0.0278
     12 H          -0.9933    2.8265    0.5056 H       1  LIG1        0.0278
     13 C          -2.3194   -0.8299   -0.0001 C.ar    1  LIG1        0.0639
     14 C          -2.7274   -2.1266   -0.0005 C.ar    1  LIG1       -0.0314
     15 C          -4.1594   -2.1244    0.0011 C.ar    1  LIG1       -0.0231
     16 C          -4.5635   -0.8264    0.0006 C.ar    1  LIG1        0.0663
     17 N          -3.4402   -0.0305    0.0003 N.ar    1  LIG1       -0.3517
     18 H          -3.4386    0.9635   -0.0001 H       1  LIG1        0.1660
     19 H          -1.9565   -3.1734   -0.0006 H       1  LIG1        0.0642
     20 C          -4.9338   -3.1690    0.0023 C.3     1  LIG1       -0.0376
     21 H          -4.4441   -3.9754    0.5071 H       1  LIG1        0.0278
     22 H          -5.1467   -3.4563   -1.0062 H       1  LIG1        0.0278
     23 H          -5.8478   -2.9348    0.5070 H       1  LIG1        0.0278
     24 C          -5.7587   -0.3150    0.0014 C.ar    1  LIG1        0.0639
     25 C          -6.1626    0.9830    0.0016 C.ar    1  LIG1       -0.0314
     26 C          -7.5946    0.9853    0.0038 C.ar    1  LIG1       -0.0231
     27 C          -8.0028   -0.3114    0.0030 C.ar    1  LIG1        0.0663
     28 N          -6.8820   -1.1108    0.0021 N.ar    1  LIG1       -0.3517
     29 H          -6.8836   -2.1048    0.0013 H       1  LIG1        0.1660
     30 H          -5.3884    2.0273    0.0015 H       1  LIG1        0.0642
     31 C          -8.3657    2.0323    0.0056 C.3     1  LIG1       -0.0376
     32 H          -9.2802    1.8009    0.5105 H       1  LIG1        0.0278
     33 H          -8.5781    2.3207   -1.0028 H       1  LIG1        0.0278
     34 H          -7.8732    2.8370    0.5105 H       1  LIG1        0.0278
     35 C          -9.1996   -0.8190    0.0041 C.ar    1  LIG1        0.0634
     36 C          -9.6076   -2.1157    0.0044 C.ar    1  LIG1       -0.0321
     37 C         -11.0396   -2.1135    0.0069 C.ar    1  LIG1       -0.0325
     38 C         -11.4437   -0.8155    0.0063 C.ar    1  LIG1        0.0051
     39 N         -10.3204   -0.0196    0.0051 N.ar    1  LIG1       -0.3593
     40 H         -10.3188    0.9744    0.0043 H       1  LIG1        0.1654
     41 H         -12.6389   -0.3041    0.0077 H       1  LIG1        0.0809
     42 H          -8.8367   -3.1625    0.0040 H       1  LIG1        0.0642
     43 C         -11.8140   -3.1580    0.0089 C.3     1  LIG1       -0.0383
     44 H         -11.3242   -3.9642    0.5139 H       1  LIG1        0.0278
     45 H         -12.0273   -3.4459   -0.9994 H       1  LIG1        0.0278
     46 H         -12.7278   -2.9236    0.5138 H       1  LIG1        0.0278
@<TRIPOS>BOND
     1    11     9    1
     2    22    20    1
     3    33    31    1
     4    45    43    1
     5    19    14    1
     6     2     8    1
     7     2     1   ar
     8     2     3   ar
     9    14    13   ar
    10    14    15   ar
    11     4    13    1
    12     4     5   ar
    13     4     3   ar
    14     6     5    1
    15    18    17    1
    16    13    17   ar
    17     5     1   ar
    18     1     7    1
    19     3     9    1
    20    17    16   ar
    21    16    15   ar
    22    16    24    1
    23     9    12    1
    24     9    10    1
    25    15    20    1
    26    29    28    1
    27    24    25   ar
    28    24    28   ar
    29    30    25    1
    30    25    26   ar
    31    28    27   ar
    32    20    23    1
    33    20    21    1
    34    27    26   ar
    35    27    35    1
    36    26    31    1
    37    42    36    1
    38    35    36   ar
    39    35    39   ar
    40    40    39    1
    41    36    37   ar
    42    39    38   ar
    43    31    34    1
    44    31    32    1
    45    38    37   ar
    46    38    41    1
    47    37    43    1
    48    43    46    1
    49    43    44    1
