@<TRIPOS>MOLECULE
mol_data/noopt/geoms/mol2/13ai13ai-.out
 24 25 0 0 0
SMALL
GASTEIGER

@<TRIPOS>ATOM
      1 C           1.1215   -0.3259    0.0002 C.ar    1  LIG1        0.0025
      2 C           0.7176    0.9721   -0.0005 C.ar    1  LIG1       -0.0409
      3 C          -0.7144    0.9744    0.0003 C.ar    1  LIG1       -0.0238
      4 C          -1.1226   -0.3223   -0.0003 C.ar    1  LIG1        0.0658
      5 N          -0.0018   -1.1217    0.0001 N.ar    1  LIG1       -0.3593
      6 H          -0.0034   -2.1157   -0.0003 H       1  LIG1        0.1654
      7 H           2.3167   -0.8373    0.0007 H       1  LIG1        0.0807
      8 H           1.4918    2.0164   -0.0003 H       1  LIG1        0.0635
      9 C          -1.4855    2.0214    0.0010 C.3     1  LIG1       -0.0377
     10 H          -2.4003    1.7904    0.5056 H       1  LIG1        0.0278
     11 H          -1.6974    2.3090   -1.0077 H       1  LIG1        0.0278
     12 H          -0.9933    2.8265    0.5056 H       1  LIG1        0.0278
     13 C          -2.3194   -0.8299   -0.0001 C.ar    1  LIG1        0.0634
     14 C          -2.7274   -2.1266   -0.0005 C.ar    1  LIG1       -0.0321
     15 C          -4.1594   -2.1244    0.0011 C.ar    1  LIG1       -0.0325
     16 C          -4.5635   -0.8264    0.0006 C.ar    1  LIG1        0.0051
     17 N          -3.4402   -0.0305    0.0003 N.ar    1  LIG1       -0.3593
     18 H          -3.4386    0.9635   -0.0001 H       1  LIG1        0.1654
     19 H          -5.7587   -0.3150    0.0014 H       1  LIG1        0.0809
     20 H          -1.9565   -3.1734   -0.0006 H       1  LIG1        0.0642
     21 C          -4.9338   -3.1690    0.0023 C.3     1  LIG1       -0.0383
     22 H          -4.4441   -3.9754    0.5071 H       1  LIG1        0.0278
     23 H          -5.1467   -3.4563   -1.0062 H       1  LIG1        0.0278
     24 H          -5.8478   -2.9348    0.5070 H       1  LIG1        0.0278
@<TRIPOS>BOND
     1    11     9    1
     2    23    21    1
     3    20    14    1
     4     2     8    1
     5     2     1   ar
     6     2     3   ar
     7    14    13   ar
     8    14    15   ar
     9     4    13    1
    10     4     5   ar
    11     4     3   ar
    12     6     5    1
    13    18    17    1
    14    13    17   ar
    15     5     1   ar
    16     1     7    1
    17     3     9    1
    18    17    16   ar
    19    16    15   ar
    20    16    19    1
    21     9    12    1
    22     9    10    1
    23    15    21    1
    24    21    24    1
    25    21    22    1
