@<TRIPOS>MOLECULE
mol_data/noopt/geoms/mol2/13ai4ld(150)6eh(110)13ia(350).out
 52 55 0 0 0
SMALL
GASTEIGER

@<TRIPOS>ATOM
      1 C           1.1215   -0.3259    0.0002 C.ar    1  LIG1        0.0024
      2 C           0.7176    0.9721   -0.0005 C.ar    1  LIG1       -0.0409
      3 C          -0.7144    0.9744    0.0003 C.ar    1  LIG1       -0.0251
      4 C          -1.1226   -0.3223   -0.0003 C.ar    1  LIG1        0.0530
      5 N          -0.0018   -1.1217    0.0001 N.ar    1  LIG1       -0.3603
      6 H          -0.0034   -2.1157   -0.0003 H       1  LIG1        0.1653
      7 H           2.3167   -0.8373    0.0007 H       1  LIG1        0.0807
      8 H           1.4918    2.0164   -0.0003 H       1  LIG1        0.0635
      9 C          -1.4855    2.0214    0.0010 C.3     1  LIG1       -0.0377
     10 H          -2.4003    1.7904    0.5056 H       1  LIG1        0.0278
     11 H          -1.6974    2.3090   -1.0077 H       1  LIG1        0.0278
     12 H          -0.9933    2.8265    0.5056 H       1  LIG1        0.0278
     13 C          -2.5524   -2.0791    0.6106 C.ar    1  LIG1        0.1298
     14 C          -3.8659   -2.5865    0.5826 C.ar    1  LIG1       -0.0103
     15 C          -2.3194   -0.8299   -0.0001 C.ar    1  LIG1        0.0414
     16 C          -4.9030   -1.8827   -0.0253 C.ar    1  LIG1        0.0057
     17 H          -4.0677   -3.5489    1.0478 H       1  LIG1        0.0661
     18 C          -3.3544   -0.1268   -0.6071 C.ar    1  LIG1       -0.0311
     19 C          -4.6525   -0.6475   -0.6241 C.ar    1  LIG1        0.0604
     20 H          -3.1492    0.8345   -1.0713 H       1  LIG1        0.0638
     21 O          -1.6266   -2.7818    1.1930 O.3     1  LIG1       -0.4944
     22 C          -2.1017   -4.1135    1.4068 C.3     1  LIG1        0.0788
     23 H          -1.3394   -4.6916    1.8860 H       1  LIG1        0.0660
     24 H          -2.9723   -4.0862    2.0283 H       1  LIG1        0.0660
     25 H          -2.3490   -4.5594    0.4661 H       1  LIG1        0.0660
     26 N          -6.4659    0.5978   -1.6951 N.1     1  LIG1       -0.1908
     27 C          -5.6160    0.0142   -1.1932 C.1     1  LIG1        0.0998
     28 C          -6.9139   -2.2672   -1.1771 C.ar    1  LIG1        0.1217
     29 C          -6.1037   -2.3808   -0.0325 C.ar    1  LIG1        0.0191
     30 C          -6.6190   -3.0377    1.0865 C.ar    1  LIG1       -0.0285
     31 C          -7.9144   -3.5541    1.0252 C.ar    1  LIG1        0.0530
     32 C          -8.6471   -3.3901   -0.1647 C.ar    1  LIG1        0.1093
     33 N          -8.1656   -2.7594   -1.2535 N.ar    1  LIG1       -0.2345
     34 H          -6.0159   -3.1450    1.9992 H       1  LIG1        0.0643
     35 C          -6.4785   -1.6646   -2.2436 C.1     1  LIG1       -0.0492
     36 C          -6.0763   -1.1078   -3.2290 C.1     1  LIG1       -0.1124
     37 H          -5.7179   -0.6117   -4.1067 H       1  LIG1        0.1232
     38 N          -8.4396   -4.1738    2.0402 N.pl3   1  LIG1       -0.3563
     39 H          -9.4351   -4.0856    2.0059 H       1  LIG1        0.1424
     40 H          -8.1893   -5.1414    2.0059 H       1  LIG1        0.1424
     41 C          -9.8572   -3.8535   -0.2703 C.ar    1  LIG1        0.0697
     42 C         -11.0306   -3.2095   -0.5075 C.ar    1  LIG1       -0.0237
     43 C         -12.0658   -4.1988   -0.5237 C.ar    1  LIG1       -0.0408
     44 C         -11.4791   -5.4041   -0.2975 C.ar    1  LIG1        0.0025
     45 N         -10.1271   -5.1972   -0.1413 N.ar    1  LIG1       -0.3592
     46 H          -9.4527   -5.9057    0.0357 H       1  LIG1        0.1654
     47 H         -11.9979   -6.5936   -0.2205 H       1  LIG1        0.0807
     48 C         -11.1816   -1.9302   -0.6848 C.3     1  LIG1       -0.0377
     49 H         -12.0987   -1.6133   -0.2337 H       1  LIG1        0.0278
     50 H         -11.2069   -1.7159   -1.7329 H       1  LIG1        0.0278
     51 H         -10.3634   -1.4086   -0.2338 H       1  LIG1        0.0278
     52 H         -13.3335   -3.9874   -0.7188 H       1  LIG1        0.0635
@<TRIPOS>BOND
     1    37    36    1
     2    36    35    3
     3    35    28    1
     4    50    48    1
     5    26    27    3
     6    33    28   ar
     7    33    32   ar
     8    27    19    1
     9    28    29   ar
    10    20    18    1
    11    11     9    1
    12    52    43    1
    13    48    42    1
    14    48    51    1
    15    48    49    1
    16    19    18   ar
    17    19    16   ar
    18    18    15   ar
    19    43    42   ar
    20    43    44   ar
    21    42    41   ar
    22    44    47    1
    23    44    45   ar
    24    41    32    1
    25    41    45   ar
    26    32    31   ar
    27    45    46    1
    28    29    16    1
    29    29    30   ar
    30    16    14   ar
    31     2     8    1
    32     2     1   ar
    33     2     3   ar
    34     4    15    1
    35     4     5   ar
    36     4     3   ar
    37     6     5    1
    38    15    13   ar
    39     5     1   ar
    40     1     7    1
    41     3     9    1
    42     9    12    1
    43     9    10    1
    44    25    22    1
    45    14    13   ar
    46    14    17    1
    47    13    21    1
    48    31    30   ar
    49    31    38    1
    50    30    34    1
    51    21    22    1
    52    22    23    1
    53    22    24    1
    54    40    38    1
    55    39    38    1
