@<TRIPOS>MOLECULE
mol_data/noopt/geoms/mol2/13ai13ai-4ai13ai.out
 48 51 0 0 0
SMALL
GASTEIGER

@<TRIPOS>ATOM
      1 C           1.1215   -0.3259    0.0002 C.ar    1  LIG1        0.0025
      2 C           0.7176    0.9721   -0.0005 C.ar    1  LIG1       -0.0409
      3 C          -0.7144    0.9744    0.0003 C.ar    1  LIG1       -0.0238
      4 C          -1.1226   -0.3223   -0.0003 C.ar    1  LIG1        0.0658
      5 N          -0.0018   -1.1217    0.0001 N.ar    1  LIG1       -0.3593
      6 H          -0.0034   -2.1157   -0.0003 H       1  LIG1        0.1654
      7 H           2.3167   -0.8373    0.0007 H       1  LIG1        0.0807
      8 H           1.4918    2.0164   -0.0003 H       1  LIG1        0.0635
      9 C          -1.4855    2.0214    0.0010 C.3     1  LIG1       -0.0377
     10 H          -2.4003    1.7904    0.5056 H       1  LIG1        0.0278
     11 H          -1.6974    2.3090   -1.0077 H       1  LIG1        0.0278
     12 H          -0.9933    2.8265    0.5056 H       1  LIG1        0.0278
     13 C          -2.3194   -0.8299   -0.0001 C.ar    1  LIG1        0.0638
     14 C          -2.7274   -2.1266   -0.0005 C.ar    1  LIG1       -0.0315
     15 C          -4.1594   -2.1244    0.0011 C.ar    1  LIG1       -0.0246
     16 C          -4.5635   -0.8264    0.0006 C.ar    1  LIG1        0.0499
     17 N          -3.4402   -0.0305    0.0003 N.ar    1  LIG1       -0.3528
     18 H          -3.4386    0.9635   -0.0001 H       1  LIG1        0.1660
     19 H          -1.9565   -3.1734   -0.0006 H       1  LIG1        0.0642
     20 C          -4.9338   -3.1690    0.0023 C.3     1  LIG1       -0.0377
     21 H          -4.4441   -3.9754    0.5071 H       1  LIG1        0.0278
     22 H          -5.1467   -3.4563   -1.0062 H       1  LIG1        0.0278
     23 H          -5.8478   -2.9348    0.5070 H       1  LIG1        0.0278
     24 C          -5.9236    1.0852    0.0026 C.ar    1  LIG1       -0.0520
     25 C          -7.2385    1.5895    0.0050 C.ar    1  LIG1       -0.0518
     26 C          -5.7587   -0.3150    0.0014 C.ar    1  LIG1       -0.0012
     27 C          -8.3419    0.7391    0.0056 C.ar    1  LIG1        0.0012
     28 H          -7.3885    2.6668    0.0062 H       1  LIG1        0.0624
     29 C          -6.8598   -1.1644    0.0020 C.ar    1  LIG1       -0.0491
     30 C          -8.1582   -0.6442    0.0040 C.ar    1  LIG1       -0.0407
     31 H          -6.7065   -2.2406    0.0011 H       1  LIG1        0.0627
     32 H          -4.9343    1.9285    0.0020 H       1  LIG1        0.0624
     33 C          -9.1840   -1.4433    0.0046 C.3     1  LIG1       -0.0391
     34 H          -8.9283   -2.3515    0.5093 H       1  LIG1        0.0278
     35 H          -9.4658   -1.6628   -1.0040 H       1  LIG1        0.0278
     36 H         -10.0021   -0.9730    0.5092 H       1  LIG1        0.0278
     37 C          -9.5420    1.2389    0.0077 C.ar    1  LIG1        0.0470
     38 C          -9.9585    2.5329    0.0088 C.ar    1  LIG1       -0.0335
     39 C         -11.3904    2.5213    0.0122 C.ar    1  LIG1       -0.0326
     40 C         -11.7860    1.2207    0.0113 C.ar    1  LIG1        0.0051
     41 N         -10.6575    0.4322    0.0090 N.ar    1  LIG1       -0.3604
     42 H         -10.6495   -0.5617    0.0079 H       1  LIG1        0.1653
     43 H         -12.9778    0.7015    0.0134 H       1  LIG1        0.0809
     44 H          -9.1944    3.5847    0.0084 H       1  LIG1        0.0641
     45 C         -12.1716    3.5608    0.0152 C.3     1  LIG1       -0.0383
     46 H         -13.0836    3.3202    0.5204 H       1  LIG1        0.0278
     47 H         -12.3873    3.8478   -0.9929 H       1  LIG1        0.0278
     48 H         -11.6867    4.3699    0.5203 H       1  LIG1        0.0278
@<TRIPOS>BOND
     1    11     9    1
     2    22    20    1
     3    35    33    1
     4    47    45    1
     5    19    14    1
     6     2     8    1
     7     2     1   ar
     8     2     3   ar
     9    14    13   ar
    10    14    15   ar
    11     4    13    1
    12     4     5   ar
    13     4     3   ar
    14     6     5    1
    15    18    17    1
    16    13    17   ar
    17     5     1   ar
    18     1     7    1
    19     3     9    1
    20    17    16   ar
    21    16    15   ar
    22    16    26    1
    23     9    12    1
    24     9    10    1
    25    15    20    1
    26    31    29    1
    27    26    29   ar
    28    26    24   ar
    29    32    24    1
    30    29    30   ar
    31    20    23    1
    32    20    21    1
    33    24    25   ar
    34    30    33    1
    35    30    27   ar
    36    33    36    1
    37    33    34    1
    38    25    27   ar
    39    25    28    1
    40    27    37    1
    41    37    38   ar
    42    37    41   ar
    43    42    41    1
    44    44    38    1
    45    38    39   ar
    46    41    40   ar
    47    40    39   ar
    48    40    43    1
    49    39    45    1
    50    45    48    1
    51    45    46    1
