@<TRIPOS>MOLECULE
mol_data/noopt/geoms/mol2/13ai12hf-4fe6ai-.out
 48 51 0 0 0
SMALL
GASTEIGER

@<TRIPOS>ATOM
      1 C           1.1215   -0.3259    0.0002 C.ar    1  LIG1        0.0025
      2 C           0.7176    0.9721   -0.0005 C.ar    1  LIG1       -0.0408
      3 C          -0.7144    0.9744    0.0003 C.ar    1  LIG1       -0.0221
      4 C          -1.1226   -0.3223   -0.0003 C.ar    1  LIG1        0.0870
      5 N          -0.0018   -1.1217    0.0001 N.ar    1  LIG1       -0.3580
      6 H          -0.0034   -2.1157   -0.0003 H       1  LIG1        0.1654
      7 H           2.3167   -0.8373    0.0007 H       1  LIG1        0.0807
      8 H           1.4918    2.0164   -0.0003 H       1  LIG1        0.0635
      9 C          -1.4855    2.0214    0.0010 C.3     1  LIG1       -0.0376
     10 H          -2.4003    1.7904    0.5056 H       1  LIG1        0.0278
     11 H          -1.6974    2.3090   -1.0077 H       1  LIG1        0.0278
     12 H          -0.9933    2.8265    0.5056 H       1  LIG1        0.0278
     13 C          -2.3194   -0.8299   -0.0001 C.ar    1  LIG1        0.1762
     14 C          -3.6025   -0.3232    0.0001 C.ar    1  LIG1        0.1152
     15 C          -4.4979   -1.4613    0.0002 C.ar    1  LIG1        0.1846
     16 C          -3.7022   -2.5884    0.0001 C.ar    1  LIG1        0.1824
     17 O          -2.3550   -2.2250   -0.0002 O.2     1  LIG1       -0.4475
     18 N          -3.9649    0.9253    0.0001 N.pl3   1  LIG1       -0.3521
     19 H          -3.2737    1.4730   -0.4713 H       1  LIG1        0.1425
     20 H          -4.8419    1.0178   -0.4713 H       1  LIG1        0.1425
     21 O          -5.7966   -1.4035    0.0004 O.3     1  LIG1       -0.5020
     22 H          -6.1569   -2.2933    0.0005 H       1  LIG1        0.2924
     23 C          -5.2334   -4.3659    0.0010 C.ar    1  LIG1        0.1283
     24 C          -5.4089   -5.7632    0.0027 C.ar    1  LIG1       -0.0105
     25 C          -3.9132   -3.8711    0.0002 C.ar    1  LIG1        0.0635
     26 C          -4.3195   -6.6314    0.0028 C.ar    1  LIG1        0.0024
     27 H          -6.4192   -6.1662    0.0035 H       1  LIG1        0.0661
     28 C          -2.8252   -4.7375    0.0004 C.ar    1  LIG1       -0.0314
     29 C          -3.0202   -6.1226    0.0016 C.ar    1  LIG1        0.0333
     30 H          -1.8169   -4.3315   -0.0002 H       1  LIG1        0.0638
     31 O          -6.2887   -3.6067    0.0007 O.3     1  LIG1       -0.5060
     32 H          -7.0773   -4.1542    0.0006 H       1  LIG1        0.2922
     33 C          -1.9994   -6.9275    0.0019 C.1     1  LIG1       -0.0690
     34 C          -1.0561   -7.6713    0.0022 C.1     1  LIG1       -0.1139
     35 H          -0.2160   -8.3339    0.0025 H       1  LIG1        0.1232
     36 C          -3.4272   -8.8043   -0.0160 C.ar    1  LIG1        0.0353
     37 C          -4.5181   -7.9162    0.0042 C.ar    1  LIG1        0.0018
     38 C          -5.8093   -8.4465    0.0260 C.ar    1  LIG1       -0.0482
     39 C          -5.9661   -9.8336    0.0267 C.ar    1  LIG1       -0.0318
     40 C          -4.8132  -10.6397    0.0053 C.ar    1  LIG1        0.0305
     41 N          -3.5602  -10.1449   -0.0157 N.ar    1  LIG1       -0.2624
     42 H          -6.6861   -7.7838    0.0412 H       1  LIG1        0.0627
     43 H          -4.9076  -11.9363    0.0050 H       1  LIG1        0.0832
     44 H          -2.2062   -8.3585   -0.0366 H       1  LIG1        0.0836
     45 C          -7.1475  -10.3765    0.0463 C.3     1  LIG1       -0.0383
     46 H          -7.0998  -11.3161    0.5561 H       1  LIG1        0.0278
     47 H          -7.4854  -10.5319   -0.9570 H       1  LIG1        0.0278
     48 H          -7.8294   -9.7284    0.5560 H       1  LIG1        0.0278
@<TRIPOS>BOND
     1    11     9    1
     2    47    45    1
     3    20    18    1
     4    19    18    1
     5    44    36    1
     6    36    41   ar
     7    36    37   ar
     8    41    40   ar
     9     2     8    1
    10     2     1   ar
    11     2     3   ar
    12     6     5    1
    13     4    13    1
    14     4     5   ar
    15     4     3   ar
    16    17    13   ar
    17    17    16   ar
    18    30    28    1
    19    13    14   ar
    20    14    18    1
    21    14    15   ar
    22     5     1   ar
    23    16    25    1
    24    16    15   ar
    25     1     7    1
    26    25    28   ar
    27    25    23   ar
    28    15    21    1
    29     3     9    1
    30    28    29   ar
    31    21    22    1
    32    32    31    1
    33    31    23    1
    34     9    12    1
    35     9    10    1
    36    23    24   ar
    37    29    33    1
    38    29    26   ar
    39    33    34    3
    40    34    35    1
    41    24    26   ar
    42    24    27    1
    43    26    37    1
    44    37    38   ar
    45    43    40    1
    46    40    39   ar
    47    38    39   ar
    48    38    42    1
    49    39    45    1
    50    45    48    1
    51    45    46    1
