@<TRIPOS>MOLECULE
mol_data/noopt/geoms/mol2/13ai13ai13ai-13ai.out
 46 49 0 0 0
SMALL
GASTEIGER

@<TRIPOS>ATOM
      1 C           1.1215   -0.3259    0.0002 C.ar    1  LIG1        0.0025
      2 C           0.7176    0.9721   -0.0005 C.ar    1  LIG1       -0.0409
      3 C          -0.7144    0.9744    0.0003 C.ar    1  LIG1       -0.0238
      4 C          -1.1226   -0.3223   -0.0003 C.ar    1  LIG1        0.0658
      5 N          -0.0018   -1.1217    0.0001 N.ar    1  LIG1       -0.3593
      6 H          -0.0034   -2.1157   -0.0003 H       1  LIG1        0.1654
      7 H           2.3167   -0.8373    0.0007 H       1  LIG1        0.0807
      8 H           1.4918    2.0164   -0.0003 H       1  LIG1        0.0635
      9 C          -1.4855    2.0214    0.0010 C.3     1  LIG1       -0.0377
     10 H          -2.4003    1.7904    0.5056 H       1  LIG1        0.0278
     11 H          -1.6974    2.3090   -1.0077 H       1  LIG1        0.0278
     12 H          -0.9933    2.8265    0.5056 H       1  LIG1        0.0278
     13 C          -2.3194   -0.8299   -0.0001 C.ar    1  LIG1        0.0639
     14 C          -3.5353   -0.2219   -0.0003 C.ar    1  LIG1       -0.0314
     15 C          -4.5290   -1.2530    0.0012 C.ar    1  LIG1       -0.0231
     16 C          -3.8767   -2.4457    0.0005 C.ar    1  LIG1        0.0663
     17 N          -2.5238   -2.1913    0.0002 N.ar    1  LIG1       -0.3517
     18 H          -1.8081   -2.8811   -0.0004 H       1  LIG1        0.1660
     19 H          -3.7520    1.0599   -0.0003 H       1  LIG1        0.0642
     20 C          -5.8182   -1.0837    0.0025 C.3     1  LIG1       -0.0376
     21 H          -6.2852   -1.9035    0.5073 H       1  LIG1        0.0278
     22 H          -6.1729   -1.0372   -1.0060 H       1  LIG1        0.0278
     23 H          -6.0576   -0.1710    0.5072 H       1  LIG1        0.0278
     24 C          -4.3398   -3.6604    0.0012 C.ar    1  LIG1        0.0639
     25 C          -3.6874   -4.8530    0.0012 C.ar    1  LIG1       -0.0314
     26 C          -4.6811   -5.8841    0.0032 C.ar    1  LIG1       -0.0231
     27 C          -5.8970   -5.2763    0.0027 C.ar    1  LIG1        0.0663
     28 N          -5.6927   -3.9149    0.0019 N.ar    1  LIG1       -0.3517
     29 H          -6.4084   -3.2251    0.0013 H       1  LIG1        0.1660
     30 H          -2.3984   -5.0223    0.0009 H       1  LIG1        0.0642
     31 C          -4.4643   -7.1663    0.0049 C.3     1  LIG1       -0.0376
     32 H          -3.5435   -7.3717    0.5097 H       1  LIG1        0.0278
     33 H          -4.4045   -7.5192   -1.0035 H       1  LIG1        0.0278
     34 H          -5.2664   -7.6629    0.5097 H       1  LIG1        0.0278
     35 C          -7.0939   -5.7839    0.0038 C.ar    1  LIG1        0.0634
     36 C          -8.3097   -5.1759    0.0043 C.ar    1  LIG1       -0.0321
     37 C          -9.3034   -6.2070    0.0067 C.ar    1  LIG1       -0.0325
     38 C          -8.6511   -7.3997    0.0060 C.ar    1  LIG1        0.0051
     39 N          -7.2982   -7.1453    0.0047 N.ar    1  LIG1       -0.3593
     40 H          -6.5825   -7.8351    0.0038 H       1  LIG1        0.1654
     41 H          -9.1142   -8.6144    0.0073 H       1  LIG1        0.0809
     42 H          -8.5264   -3.8941    0.0041 H       1  LIG1        0.0642
     43 C         -10.5927   -6.0377    0.0089 C.3     1  LIG1       -0.0383
     44 H         -11.0593   -6.8575    0.5139 H       1  LIG1        0.0278
     45 H         -10.9480   -5.9911   -0.9994 H       1  LIG1        0.0278
     46 H         -10.8317   -5.1251    0.5138 H       1  LIG1        0.0278
@<TRIPOS>BOND
     1    11     9    1
     2    22    20    1
     3    33    31    1
     4    45    43    1
     5     2     8    1
     6     2     1   ar
     7     2     3   ar
     8    18    17    1
     9    14    19    1
    10    14    13   ar
    11    14    15   ar
    12     4    13    1
    13     4     5   ar
    14     4     3   ar
    15     6     5    1
    16    13    17   ar
    17     5     1   ar
    18    17    16   ar
    19     1     7    1
    20     3     9    1
    21    16    15   ar
    22    16    24    1
    23    30    25    1
    24     9    12    1
    25     9    10    1
    26    25    24   ar
    27    25    26   ar
    28    15    20    1
    29    24    28   ar
    30    29    28    1
    31    28    27   ar
    32    20    23    1
    33    20    21    1
    34    27    26   ar
    35    27    35    1
    36    26    31    1
    37    40    39    1
    38    35    36   ar
    39    35    39   ar
    40    42    36    1
    41    36    37   ar
    42    39    38   ar
    43    31    34    1
    44    31    32    1
    45    38    37   ar
    46    38    41    1
    47    37    43    1
    48    43    46    1
    49    43    44    1
