@<TRIPOS>MOLECULE
mol_data/noopt/geoms/mol2/13ai13ai-13ai.out
 35 37 0 0 0
SMALL
GASTEIGER

@<TRIPOS>ATOM
      1 C           1.1215   -0.3259    0.0002 C.ar    1  LIG1        0.0025
      2 C           0.7176    0.9721   -0.0005 C.ar    1  LIG1       -0.0409
      3 C          -0.7144    0.9744    0.0003 C.ar    1  LIG1       -0.0238
      4 C          -1.1226   -0.3223   -0.0003 C.ar    1  LIG1        0.0658
      5 N          -0.0018   -1.1217    0.0001 N.ar    1  LIG1       -0.3593
      6 H          -0.0034   -2.1157   -0.0003 H       1  LIG1        0.1654
      7 H           2.3167   -0.8373    0.0007 H       1  LIG1        0.0807
      8 H           1.4918    2.0164   -0.0003 H       1  LIG1        0.0635
      9 C          -1.4855    2.0214    0.0010 C.3     1  LIG1       -0.0377
     10 H          -2.4003    1.7904    0.5056 H       1  LIG1        0.0278
     11 H          -1.6974    2.3090   -1.0077 H       1  LIG1        0.0278
     12 H          -0.9933    2.8265    0.5056 H       1  LIG1        0.0278
     13 C          -2.3194   -0.8299   -0.0001 C.ar    1  LIG1        0.0639
     14 C          -2.7274   -2.1266   -0.0005 C.ar    1  LIG1       -0.0314
     15 C          -4.1594   -2.1244    0.0011 C.ar    1  LIG1       -0.0231
     16 C          -4.5635   -0.8264    0.0006 C.ar    1  LIG1        0.0663
     17 N          -3.4402   -0.0305    0.0003 N.ar    1  LIG1       -0.3517
     18 H          -3.4386    0.9635   -0.0001 H       1  LIG1        0.1660
     19 H          -1.9565   -3.1734   -0.0006 H       1  LIG1        0.0642
     20 C          -4.9338   -3.1690    0.0023 C.3     1  LIG1       -0.0376
     21 H          -4.4441   -3.9754    0.5071 H       1  LIG1        0.0278
     22 H          -5.1467   -3.4563   -1.0062 H       1  LIG1        0.0278
     23 H          -5.8478   -2.9348    0.5070 H       1  LIG1        0.0278
     24 C          -5.7587   -0.3150    0.0014 C.ar    1  LIG1        0.0634
     25 C          -6.1626    0.9830    0.0016 C.ar    1  LIG1       -0.0321
     26 C          -7.5946    0.9853    0.0038 C.ar    1  LIG1       -0.0325
     27 C          -8.0028   -0.3114    0.0030 C.ar    1  LIG1        0.0051
     28 N          -6.8820   -1.1108    0.0021 N.ar    1  LIG1       -0.3593
     29 H          -6.8836   -2.1048    0.0013 H       1  LIG1        0.1654
     30 H          -9.1996   -0.8190    0.0041 H       1  LIG1        0.0809
     31 H          -5.3884    2.0273    0.0015 H       1  LIG1        0.0642
     32 C          -8.3657    2.0323    0.0056 C.3     1  LIG1       -0.0383
     33 H          -9.2802    1.8009    0.5105 H       1  LIG1        0.0278
     34 H          -8.5781    2.3207   -1.0028 H       1  LIG1        0.0278
     35 H          -7.8732    2.8370    0.5105 H       1  LIG1        0.0278
@<TRIPOS>BOND
     1    11     9    1
     2    22    20    1
     3    34    32    1
     4    19    14    1
     5     2     8    1
     6     2     1   ar
     7     2     3   ar
     8    14    13   ar
     9    14    15   ar
    10     4    13    1
    11     4     5   ar
    12     4     3   ar
    13     6     5    1
    14    18    17    1
    15    13    17   ar
    16     5     1   ar
    17     1     7    1
    18     3     9    1
    19    17    16   ar
    20    16    15   ar
    21    16    24    1
    22     9    12    1
    23     9    10    1
    24    15    20    1
    25    29    28    1
    26    24    25   ar
    27    24    28   ar
    28    31    25    1
    29    25    26   ar
    30    28    27   ar
    31    20    23    1
    32    20    21    1
    33    27    26   ar
    34    27    30    1
    35    26    32    1
    36    32    35    1
    37    32    33    1
