@<TRIPOS>MOLECULE
mol_data/noopt/geoms/mol2/13ai13ai.out
 24 25 0 0 0
SMALL
GASTEIGER

@<TRIPOS>ATOM
      1 C           1.1215   -0.3259    0.0002 C.ar    1  LIG1        0.0025
      2 C           0.7176    0.9721   -0.0005 C.ar    1  LIG1       -0.0409
      3 C          -0.7144    0.9744    0.0003 C.ar    1  LIG1       -0.0238
      4 C          -1.1226   -0.3223   -0.0003 C.ar    1  LIG1        0.0658
      5 N          -0.0018   -1.1217    0.0001 N.ar    1  LIG1       -0.3593
      6 H          -0.0034   -2.1157   -0.0003 H       1  LIG1        0.1654
      7 H           2.3167   -0.8373    0.0007 H       1  LIG1        0.0807
      8 H           1.4918    2.0164   -0.0003 H       1  LIG1        0.0635
      9 C          -1.4855    2.0214    0.0010 C.3     1  LIG1       -0.0377
     10 H          -2.4003    1.7904    0.5056 H       1  LIG1        0.0278
     11 H          -1.6974    2.3090   -1.0077 H       1  LIG1        0.0278
     12 H          -0.9933    2.8265    0.5056 H       1  LIG1        0.0278
     13 C          -2.3194   -0.8299   -0.0001 C.ar    1  LIG1        0.0634
     14 C          -3.5353   -0.2219   -0.0003 C.ar    1  LIG1       -0.0321
     15 C          -4.5290   -1.2530    0.0012 C.ar    1  LIG1       -0.0325
     16 C          -3.8767   -2.4457    0.0005 C.ar    1  LIG1        0.0051
     17 N          -2.5238   -2.1913    0.0002 N.ar    1  LIG1       -0.3593
     18 H          -1.8081   -2.8811   -0.0004 H       1  LIG1        0.1654
     19 H          -4.3398   -3.6604    0.0012 H       1  LIG1        0.0809
     20 H          -3.7520    1.0599   -0.0003 H       1  LIG1        0.0642
     21 C          -5.8182   -1.0837    0.0025 C.3     1  LIG1       -0.0383
     22 H          -6.2852   -1.9035    0.5073 H       1  LIG1        0.0278
     23 H          -6.1729   -1.0372   -1.0060 H       1  LIG1        0.0278
     24 H          -6.0576   -0.1710    0.5072 H       1  LIG1        0.0278
@<TRIPOS>BOND
     1    11     9    1
     2    23    21    1
     3     2     8    1
     4     2     1   ar
     5     2     3   ar
     6    18    17    1
     7    14    20    1
     8    14    13   ar
     9    14    15   ar
    10     4    13    1
    11     4     5   ar
    12     4     3   ar
    13     6     5    1
    14    13    17   ar
    15     5     1   ar
    16    17    16   ar
    17     1     7    1
    18     3     9    1
    19    16    15   ar
    20    16    19    1
    21     9    12    1
    22     9    10    1
    23    15    21    1
    24    21    24    1
    25    21    22    1
