@<TRIPOS>MOLECULE
mol_data/noopt/geoms/mol2/13ai13ai-13ai-13ai.out
 46 49 0 0 0
SMALL
GASTEIGER

@<TRIPOS>ATOM
      1 C           1.1215   -0.3259    0.0002 C.ar    1  LIG1        0.0025
      2 C           0.7176    0.9721   -0.0005 C.ar    1  LIG1       -0.0409
      3 C          -0.7144    0.9744    0.0003 C.ar    1  LIG1       -0.0238
      4 C          -1.1226   -0.3223   -0.0003 C.ar    1  LIG1        0.0658
      5 N          -0.0018   -1.1217    0.0001 N.ar    1  LIG1       -0.3593
      6 H          -0.0034   -2.1157   -0.0003 H       1  LIG1        0.1654
      7 H           2.3167   -0.8373    0.0007 H       1  LIG1        0.0807
      8 H           1.4918    2.0164   -0.0003 H       1  LIG1        0.0635
      9 C          -1.4855    2.0214    0.0010 C.3     1  LIG1       -0.0377
     10 H          -2.4003    1.7904    0.5056 H       1  LIG1        0.0278
     11 H          -1.6974    2.3090   -1.0077 H       1  LIG1        0.0278
     12 H          -0.9933    2.8265    0.5056 H       1  LIG1        0.0278
     13 C          -2.3194   -0.8299   -0.0001 C.ar    1  LIG1        0.0639
     14 C          -2.7274   -2.1266   -0.0005 C.ar    1  LIG1       -0.0314
     15 C          -4.1594   -2.1244    0.0011 C.ar    1  LIG1       -0.0231
     16 C          -4.5635   -0.8264    0.0006 C.ar    1  LIG1        0.0663
     17 N          -3.4402   -0.0305    0.0003 N.ar    1  LIG1       -0.3517
     18 H          -3.4386    0.9635   -0.0001 H       1  LIG1        0.1660
     19 H          -1.9565   -3.1734   -0.0006 H       1  LIG1        0.0642
     20 C          -4.9338   -3.1690    0.0023 C.3     1  LIG1       -0.0376
     21 H          -4.4441   -3.9754    0.5071 H       1  LIG1        0.0278
     22 H          -5.1467   -3.4563   -1.0062 H       1  LIG1        0.0278
     23 H          -5.8478   -2.9348    0.5070 H       1  LIG1        0.0278
     24 C          -5.7587   -0.3150    0.0014 C.ar    1  LIG1        0.0639
     25 C          -6.9765   -0.9191    0.0015 C.ar    1  LIG1       -0.0314
     26 C          -7.9670    0.1151    0.0037 C.ar    1  LIG1       -0.0231
     27 C          -7.3109    1.3057    0.0031 C.ar    1  LIG1        0.0663
     28 N          -5.9587    1.0470    0.0022 N.ar    1  LIG1       -0.3517
     29 H          -5.2408    1.7345    0.0016 H       1  LIG1        0.1660
     30 H          -7.1973   -2.2002    0.0012 H       1  LIG1        0.0642
     31 C          -9.2567   -0.0501    0.0054 C.3     1  LIG1       -0.0376
     32 H          -9.4988   -0.9619    0.5103 H       1  LIG1        0.0278
     33 H          -9.6119   -0.0957   -1.0029 H       1  LIG1        0.0278
     34 H          -9.7208    0.7712    0.5103 H       1  LIG1        0.0278
     35 C          -7.7701    2.5219    0.0044 C.ar    1  LIG1        0.0634
     36 C          -7.1139    3.7125    0.0049 C.ar    1  LIG1       -0.0321
     37 C          -8.1043    4.7467    0.0074 C.ar    1  LIG1       -0.0325
     38 C          -9.3222    4.1427    0.0066 C.ar    1  LIG1        0.0051
     39 N          -9.1222    2.7807    0.0052 N.ar    1  LIG1       -0.3593
     40 H          -9.8401    2.0932    0.0043 H       1  LIG1        0.1654
     41 H         -10.5174    4.6541    0.0080 H       1  LIG1        0.0809
     42 H          -5.8244    3.8776    0.0047 H       1  LIG1        0.0642
     43 C          -7.8835    6.0281    0.0096 C.3     1  LIG1       -0.0383
     44 H          -8.6840    6.5272    0.5146 H       1  LIG1        0.0278
     45 H          -7.8227    6.3813   -0.9986 H       1  LIG1        0.0278
     46 H          -6.9620    6.2303    0.5146 H       1  LIG1        0.0278
@<TRIPOS>BOND
     1    11     9    1
     2    22    20    1
     3    33    31    1
     4    45    43    1
     5    19    14    1
     6     2     8    1
     7     2     1   ar
     8     2     3   ar
     9    14    13   ar
    10    14    15   ar
    11     4    13    1
    12     4     5   ar
    13     4     3   ar
    14     6     5    1
    15    18    17    1
    16    13    17   ar
    17     5     1   ar
    18     1     7    1
    19     3     9    1
    20    17    16   ar
    21    16    15   ar
    22    16    24    1
    23     9    12    1
    24     9    10    1
    25    15    20    1
    26    30    25    1
    27    24    25   ar
    28    24    28   ar
    29    25    26   ar
    30    29    28    1
    31    28    27   ar
    32    20    23    1
    33    20    21    1
    34    27    26   ar
    35    27    35    1
    36    26    31    1
    37    40    39    1
    38    35    36   ar
    39    35    39   ar
    40    42    36    1
    41    36    37   ar
    42    39    38   ar
    43    31    34    1
    44    31    32    1
    45    38    37   ar
    46    38    41    1
    47    37    43    1
    48    43    46    1
    49    43    44    1
