@<TRIPOS>MOLECULE
mol_data/noopt/geoms/mol2/13al13hi-12hh-13li-.out
 53 56 0 0 0
SMALL
GASTEIGER

@<TRIPOS>ATOM
      1 C           1.1215   -0.3259    0.0002 C.ar    1  LIG1        0.0058
      2 C           0.7176    0.9721   -0.0005 C.ar    1  LIG1       -0.0019
      3 C          -0.7144    0.9744    0.0003 C.ar    1  LIG1        0.1467
      4 C          -1.1226   -0.3223   -0.0003 C.ar    1  LIG1        0.1069
      5 N          -0.0018   -1.1217    0.0001 N.ar    1  LIG1       -0.3565
      6 H          -0.0034   -2.1157   -0.0003 H       1  LIG1        0.1655
      7 H           2.3167   -0.8373    0.0007 H       1  LIG1        0.0808
      8 H           1.4918    2.0164   -0.0003 H       1  LIG1        0.0669
      9 O          -1.4853    2.0212    0.0010 O.3     1  LIG1       -0.4929
     10 C          -0.6829    3.2049    0.0012 C.3     1  LIG1        0.0789
     11 H          -1.3178    4.0662    0.0016 H       1  LIG1        0.0660
     12 H          -0.0650    3.2168    0.8747 H       1  LIG1        0.0660
     13 H          -0.0654    3.2174   -0.8726 H       1  LIG1        0.0660
     14 C          -2.3194   -0.8299   -0.0001 C.ar    1  LIG1        0.0882
     15 C          -3.5353   -0.2219   -0.0003 C.ar    1  LIG1        0.0554
     16 C          -4.5290   -1.2530    0.0012 C.ar    1  LIG1       -0.0008
     17 C          -3.8767   -2.4457    0.0005 C.ar    1  LIG1        0.0892
     18 N          -2.5238   -2.1913    0.0002 N.ar    1  LIG1       -0.3488
     19 H          -1.8081   -2.8811   -0.0004 H       1  LIG1        0.1661
     20 N          -3.7520    1.0599   -0.0003 N.pl3   1  LIG1       -0.3561
     21 H          -3.0025    1.5247   -0.4717 H       1  LIG1        0.1424
     22 H          -4.6126    1.2525   -0.4717 H       1  LIG1        0.1424
     23 C          -5.8182   -1.0837    0.0025 C.3     1  LIG1       -0.0358
     24 H          -6.2852   -1.9035    0.5073 H       1  LIG1        0.0279
     25 H          -6.1729   -1.0372   -1.0060 H       1  LIG1        0.0279
     26 H          -6.0576   -0.1710    0.5072 H       1  LIG1        0.0279
     27 C          -4.3398   -3.6604    0.0012 C.ar    1  LIG1        0.1745
     28 C          -5.5940   -4.2347    0.0165 C.ar    1  LIG1        0.0941
     29 C          -5.3937   -5.6688    0.0065 C.ar    1  LIG1        0.0942
     30 C          -4.0297   -5.8758   -0.0144 C.ar    1  LIG1        0.1778
     31 O          -3.3585   -4.6526   -0.0181 O.2     1  LIG1       -0.4479
     32 N          -6.7453   -3.6312    0.0363 N.pl3   1  LIG1       -0.3536
     33 H          -6.6677   -2.7500   -0.4300 H       1  LIG1        0.1425
     34 H          -7.4259   -4.1962   -0.4301 H       1  LIG1        0.1425
     35 N          -6.3350   -6.5654    0.0157 N.pl3   1  LIG1       -0.3535
     36 H          -7.1419   -6.2063   -0.4534 H       1  LIG1        0.1425
     37 H          -6.0157   -7.3888   -0.4534 H       1  LIG1        0.1425
     38 C          -3.2510   -6.9167   -0.0308 C.ar    1  LIG1        0.1264
     39 C          -3.5510   -8.2425   -0.0423 C.ar    1  LIG1        0.1512
     40 C          -2.3124   -8.9611   -0.0576 C.ar    1  LIG1        0.0092
     41 C          -1.3101   -8.0428   -0.0566 C.ar    1  LIG1        0.0088
     42 N          -1.8803   -6.7898   -0.0397 N.ar    1  LIG1       -0.3550
     43 H          -1.3814   -5.9301   -0.0353 H       1  LIG1        0.1655
     44 H          -0.0199   -8.2022   -0.0674 H       1  LIG1        0.0811
     45 O          -4.7439   -8.7592   -0.0384 O.3     1  LIG1       -0.4926
     46 C          -5.7176   -7.7119   -0.0371 C.3     1  LIG1        0.0789
     47 H          -6.6993   -8.1376   -0.0340 H       1  LIG1        0.0660
     48 H          -5.5888   -7.1062    0.8356 H       1  LIG1        0.0660
     49 H          -5.5934   -7.1082   -0.9117 H       1  LIG1        0.0660
     50 C          -2.1689  -10.2534   -0.0707 C.3     1  LIG1       -0.0348
     51 H          -1.2607  -10.5165    0.4301 H       1  LIG1        0.0279
     52 H          -2.1306  -10.5978   -1.0831 H       1  LIG1        0.0279
     53 H          -2.9974  -10.7093    0.4301 H       1  LIG1        0.0279
@<TRIPOS>BOND
     1    52    50    1
     2    25    23    1
     3    49    46    1
     4    13    10    1
     5    22    20    1
     6    21    20    1
     7    37    35    1
     8    36    35    1
     9    34    32    1
    10    33    32    1
    11    50    40    1
    12    50    53    1
    13    50    51    1
    14    44    41    1
    15    40    41   ar
    16    40    39   ar
    17    41    42   ar
    18    39    45    1
    19    39    38   ar
    20    42    43    1
    21    42    38   ar
    22    45    46    1
    23    46    47    1
    24    46    48    1
    25    38    30    1
    26    31    30   ar
    27    31    27   ar
    28    30    29   ar
    29     2     8    1
    30     2     1   ar
    31     2     3   ar
    32    19    18    1
    33    15    20    1
    34    15    14   ar
    35    15    16   ar
    36     6     5    1
    37     4    14    1
    38     4     5   ar
    39     4     3   ar
    40    14    18   ar
    41     5     1   ar
    42    18    17   ar
    43     1     7    1
    44     3     9    1
    45    17    16   ar
    46    17    27    1
    47     9    10    1
    48    10    11    1
    49    10    12    1
    50    16    23    1
    51    27    28   ar
    52    23    26    1
    53    23    24    1
    54    29    35    1
    55    29    28   ar
    56    28    32    1
