@<TRIPOS>MOLECULE
mol_data/noopt/geoms/mol2/13al12la-6fe-4ff4dh-6af-4ei-13fe-.out
 98 102 0 0 0
SMALL
GASTEIGER

@<TRIPOS>ATOM
      1 C           1.1215   -0.3259    0.0002 C.ar    1  LIG1        0.0028
      2 C           0.7176    0.9721   -0.0005 C.ar    1  LIG1       -0.0360
      3 C          -0.7144    0.9744    0.0003 C.ar    1  LIG1        0.0095
      4 C          -1.1226   -0.3223   -0.0003 C.ar    1  LIG1        0.0586
      5 N          -0.0018   -1.1217    0.0001 N.ar    1  LIG1       -0.3601
      6 H          -0.0034   -2.1157   -0.0003 H       1  LIG1        0.1654
      7 H           2.3167   -0.8373    0.0007 H       1  LIG1        0.0807
      8 H           1.4918    2.0164   -0.0003 H       1  LIG1        0.0639
      9 O          -1.4853    2.0212    0.0010 O.3     2  HOH2        0.0000
     10 C          -0.6829    3.2049    0.0012 C.3     3  LIG3       -0.0681
     11 H          -1.3178    4.0662    0.0016 H       1  LIG1        0.0227
     12 H          -0.0650    3.2168    0.8747 H       1  LIG1        0.0227
     13 H          -0.0654    3.2174   -0.8726 H       1  LIG1        0.0227
     14 C          -2.3194   -0.8299   -0.0001 C.2     1  LIG1        0.0532
     15 C          -3.6025   -0.3232    0.0001 C.2     1  LIG1        0.1336
     16 C          -4.4979   -1.4613    0.0002 C.2     1  LIG1        0.0282
     17 C          -3.7022   -2.5884    0.0001 C.2     1  LIG1        0.1947
     18 O          -2.3550   -2.2250   -0.0002 O.2     1  LIG1       -0.2870
     19 O          -3.9649    0.9253    0.0001 O.2     1  LIG1       -0.4943
     20 C          -2.8034    1.7595    0.0001 C.3     1  LIG1        0.0788
     21 H          -3.1022    2.7869   -0.0000 H       1  LIG1        0.0660
     22 H          -2.2195    1.5579    0.8738 H       1  LIG1        0.0660
     23 H          -2.2195    1.5578   -0.8735 H       1  LIG1        0.0660
     24 H          -5.7966   -1.4035    0.0004 H       1  LIG1        0.0693
     25 C          -2.8309   -4.7699   -0.0207 C.ar    1  LIG1        0.2240
     26 C          -3.9132   -3.8712    0.0002 C.ar    1  LIG1        0.0842
     27 C          -5.2095   -4.3890    0.0213 C.ar    1  LIG1       -0.0283
     28 C          -5.3797   -5.7745    0.0205 C.ar    1  LIG1        0.0516
     29 C          -4.2347   -6.5918   -0.0015 C.ar    1  LIG1        0.0938
     30 N          -2.9769   -6.1091   -0.0218 N.ar    1  LIG1       -0.2111
     31 H          -6.0799   -3.7178    0.0370 H       1  LIG1        0.0639
     32 O          -1.6056   -4.3359   -0.0407 O.3     1  LIG1       -0.4919
     33 H          -1.6058   -3.3759   -0.0456 H       1  LIG1        0.2938
     34 C          -6.5660   -6.3059    0.0395 C.1     1  LIG1       -0.0675
     35 C          -7.6622   -6.7968    0.0569 C.1     1  LIG1       -0.1138
     36 H          -8.6386   -7.2342    0.0725 H       1  LIG1        0.1232
     37 C          -5.6178   -8.4868   -0.0031 C.ar    1  LIG1        0.1268
     38 C          -5.6802   -9.8937   -0.0032 C.ar    1  LIG1       -0.0083
     39 C          -4.3417   -7.8873   -0.0030 C.ar    1  LIG1        0.0465
     40 C          -4.5244  -10.6713   -0.0039 C.ar    1  LIG1        0.0283
     41 H          -6.6547  -10.3768   -0.0031 H       1  LIG1        0.0661
     42 C          -3.1875   -8.6632   -0.0037 C.ar    1  LIG1       -0.0069
     43 C          -3.2703  -10.0595   -0.0042 C.ar    1  LIG1        0.1254
     44 H          -2.2151   -8.1773   -0.0035 H       1  LIG1        0.0662
     45 O          -6.7308   -7.8150   -0.0027 O.3     1  LIG1       -0.5061
     46 H          -7.4727   -8.4243   -0.0026 H       1  LIG1        0.2922
     47 O          -2.1879  -10.7797   -0.0047 O.3     1  LIG1       -0.5061
     48 H          -1.4199  -10.2037   -0.0048 H       1  LIG1        0.2922
     49 C          -5.8889  -12.5797    0.0179 C.ar    1  LIG1        0.0603
     50 C          -5.9376  -13.9871    0.0182 C.ar    1  LIG1       -0.0342
     51 C          -4.6188  -11.9679   -0.0041 C.ar    1  LIG1        0.0048
     52 C          -4.7745  -14.7535   -0.0030 C.ar    1  LIG1        0.0056
     53 H          -6.9073  -14.4797    0.0352 H       1  LIG1        0.0637
     54 C          -3.4574  -12.7325   -0.0253 C.ar    1  LIG1       -0.0314
     55 C          -3.5266  -14.1295   -0.0250 C.ar    1  LIG1        0.0331
     56 H          -2.4899  -12.2372   -0.0419 H       1  LIG1        0.0643
     57 N          -7.9954  -11.3359    0.0557 N.1     1  LIG1       -0.1908
     58 C          -7.0082  -11.9188    0.0380 C.1     1  LIG1        0.0998
     59 N          -2.4375  -14.8391   -0.0447 N.pl3   1  LIG1       -0.3575
     60 H          -2.6099  -15.7013   -0.5211 H       1  LIG1        0.1423
     61 H          -1.7185  -14.3331   -0.5211 H       1  LIG1        0.1423
     62 C          -3.6897  -16.8371   -0.0227 C.ar    1  LIG1        0.0363
     63 C          -4.8563  -16.0510   -0.0021 C.ar    1  LIG1        0.0055
     64 C          -6.0945  -16.6957    0.0194 C.ar    1  LIG1       -0.0088
     65 C          -6.1255  -18.0912    0.0194 C.ar    1  LIG1        0.1433
     66 C          -4.9045  -18.7901   -0.0023 C.ar    1  LIG1        0.1134
     67 N          -3.7012  -18.1842   -0.0229 N.ar    1  LIG1       -0.2507
     68 H          -7.0275  -16.1148    0.0348 H       1  LIG1        0.0661
     69 H          -2.5140  -16.2829   -0.0430 H       1  LIG1        0.0836
     70 O          -7.2528  -18.7384    0.0388 O.3     1  LIG1       -0.5046
     71 H          -7.0801  -19.6827    0.0435 H       1  LIG1        0.2922
     72 C          -6.0912  -20.8137    0.0186 C.ar    1  LIG1        0.0346
     73 C          -6.0128  -22.2198    0.0184 C.ar    1  LIG1       -0.0362
     74 C          -4.8816  -20.0898   -0.0030 C.ar    1  LIG1        0.0196
     75 C          -4.7853  -22.8782   -0.0031 C.ar    1  LIG1        0.0060
     76 H          -6.9341  -22.7979    0.0351 H       1  LIG1        0.0637
     77 C          -3.6559  -20.7465   -0.0245 C.ar    1  LIG1       -0.0477
     78 C          -3.5987  -22.1441   -0.0248 C.ar    1  LIG1       -0.0405
     79 H          -2.7370  -20.1659   -0.0409 H       1  LIG1        0.0627
     80 C          -7.2656  -20.2565    0.0390 C.1     1  LIG1       -0.0690
     81 C          -8.3507  -19.7417    0.0578 C.1     1  LIG1       -0.1139
     82 H          -9.3173  -19.2831    0.0745 H       1  LIG1        0.1232
     83 C          -2.4498  -22.7527   -0.0447 C.3     1  LIG1       -0.0391
     84 H          -1.7189  -22.1512    0.4542 H       1  LIG1        0.0278
     85 H          -2.1483  -22.9123   -1.0589 H       1  LIG1        0.0278
     86 H          -2.5368  -23.6953    0.4541 H       1  LIG1        0.0278
     87 C          -4.7497  -24.1777   -0.0028 C.ar    1  LIG1        0.0900
     88 C          -5.7596  -25.0876    0.0137 C.ar    1  LIG1        0.1574
     89 C          -5.1626  -26.3892    0.0063 C.ar    1  LIG1        0.0839
     90 C          -3.8142  -26.2175   -0.0161 C.ar    1  LIG1        0.0213
     91 N          -3.5571  -24.8650   -0.0213 N.ar    1  LIG1       -0.3566
     92 H          -2.6538  -24.4506   -0.0366 H       1  LIG1        0.1655
     93 H          -2.8526  -27.0921   -0.0304 H       1  LIG1        0.0820
     94 O          -7.0319  -24.8213    0.0340 O.3     1  LIG1       -0.5035
     95 H          -7.5309  -25.6414    0.0390 H       1  LIG1        0.2923
     96 C          -5.7907  -27.5273    0.0183 C.1     1  LIG1       -0.0645
     97 C          -6.3711  -28.5789    0.0293 C.1     1  LIG1       -0.1137
     98 H          -6.8881  -29.5157    0.0392 H       1  LIG1        0.1232
@<TRIPOS>BOND
     1    85    83    1
     2    23    20    1
     3    13    10    1
     4    61    59    1
     5    60    59    1
     6    33    32    1
     7    83    78    1
     8    83    86    1
     9    83    84    1
    10    59    55    1
    11    69    62    1
    12    56    54    1
    13    79    77    1
    14    32    25    1
    15    92    91    1
    16    93    90    1
    17    54    55   ar
    18    54    51   ar
    19    55    52   ar
    20    78    77   ar
    21    78    75   ar
    22    77    74   ar
    23    67    62   ar
    24    67    66   ar
    25    62    63   ar
    26    30    25   ar
    27    30    29   ar
    28    91    90   ar
    29    91    87   ar
    30    25    26   ar
    31    90    89   ar
    32    48    47    1
    33    47    43    1
    34    43    40   ar
    35    43    42   ar
    36    51    40    1
    37    51    49   ar
    38    40    38   ar
    39    42    44    1
    40    42    39   ar
    41    38    37   ar
    42    38    41    1
    43    75    87    1
    44    75    73   ar
    45    37    39   ar
    46    37    45    1
    47    74    66    1
    48    74    72   ar
    49    39    29    1
    50    52    63    1
    51    52    50   ar
    52    87    88   ar
    53    45    46    1
    54    66    65   ar
    55    63    64   ar
    56    29    28   ar
    57     2     8    1
    58     2     1   ar
    59     2     3   ar
    60     4    14    1
    61     4     5   ar
    62     4     3   ar
    63     6     5    1
    64    18    17    1
    65    14    15    2
    66    21    20    1
    67    15    19    1
    68    15    16    1
    69    20    19    1
    70    20    22    1
    71     5     1   ar
    72    17    26    1
    73    17    16    2
    74     1     7    1
    75    26    27   ar
    76    16    24    1
    77    10    11    1
    78    10    12    1
    79    89    88   ar
    80    89    96    1
    81    88    94    1
    82    49    50   ar
    83    49    58    1
    84    50    53    1
    85    96    97    3
    86    73    72   ar
    87    73    76    1
    88    72    80    1
    89    64    65   ar
    90    64    68    1
    91    65    70    1
    92    28    27   ar
    93    28    34    1
    94    27    31    1
    95    97    98    1
    96    94    95    1
    97    58    57    3
    98    70    71    1
    99    80    81    3
   100    34    35    3
   101    35    36    1
   102    81    82    1
