@<TRIPOS>MOLECULE
mol_data/noopt/geoms/mol2/13al4da(300)13dd(280)6dd(310).out
 46 49 0 0 0
SMALL
GASTEIGER

@<TRIPOS>ATOM
      1 C           1.1215   -0.3259    0.0002 C.ar    1  LIG1        0.0057
      2 C           0.7176    0.9721   -0.0005 C.ar    1  LIG1       -0.0019
      3 C          -0.7144    0.9744    0.0003 C.ar    1  LIG1        0.1452
      4 C          -1.1226   -0.3223   -0.0003 C.ar    1  LIG1        0.0899
      5 N          -0.0018   -1.1217    0.0001 N.ar    1  LIG1       -0.3577
      6 H          -0.0034   -2.1157   -0.0003 H       1  LIG1        0.1654
      7 H           2.3167   -0.8373    0.0007 H       1  LIG1        0.0808
      8 H           1.4918    2.0164   -0.0003 H       1  LIG1        0.0669
      9 O          -1.4853    2.0212    0.0010 O.3     1  LIG1       -0.4930
     10 C          -0.6829    3.2049    0.0012 C.3     1  LIG1        0.0789
     11 H          -1.3178    4.0662    0.0016 H       1  LIG1        0.0660
     12 H          -0.0650    3.2168    0.8747 H       1  LIG1        0.0660
     13 H          -0.0654    3.2174   -0.8726 H       1  LIG1        0.0660
     14 C          -3.2051   -0.5409   -1.0583 C.ar    1  LIG1        0.0616
     15 C          -4.4907   -1.1139   -1.0108 C.ar    1  LIG1       -0.0346
     16 C          -2.3194   -0.8299   -0.0001 C.ar    1  LIG1        0.0193
     17 C          -4.8792   -1.9389    0.0423 C.ar    1  LIG1        0.0009
     18 H          -5.1901   -0.9038   -1.8170 H       1  LIG1        0.0637
     19 C          -2.7066   -1.6534    1.0515 C.ar    1  LIG1       -0.0507
     20 C          -3.9880   -2.2135    1.0804 C.ar    1  LIG1       -0.0519
     21 H          -2.0055   -1.8611    1.8558 H       1  LIG1        0.0625
     22 N          -2.6319    0.8920   -2.9567 N.1     1  LIG1       -0.1908
     23 C          -2.9006    0.2205   -2.0670 C.1     1  LIG1        0.0998
     24 H          -4.3445   -2.9825    2.0661 H       1  LIG1        0.0624
     25 C          -6.0739   -2.4512    0.0541 C.ar    1  LIG1        0.0658
     26 C          -6.9694   -2.6239   -0.9540 C.ar    1  LIG1        0.0949
     27 C          -8.1345   -3.2370   -0.3906 C.ar    1  LIG1        0.0950
     28 C          -7.8990   -3.4136    0.9365 C.ar    1  LIG1        0.0686
     29 N          -6.6388   -2.9334    1.2131 N.ar    1  LIG1       -0.3520
     30 H          -6.2053   -2.9353    2.1076 H       1  LIG1        0.1660
     31 N          -6.6448   -1.9975   -3.2966 N.1     1  LIG1       -0.1908
     32 C          -6.7969   -2.2911   -2.1987 C.1     1  LIG1        0.1026
     33 N         -10.1754   -3.8561   -1.5894 N.1     1  LIG1       -0.1908
     34 C          -9.2189   -3.5660   -1.0276 C.1     1  LIG1        0.1026
     35 C          -8.0715   -4.4770    3.0240 C.ar    1  LIG1        0.1492
     36 C          -8.6498   -3.9268    1.8655 C.ar    1  LIG1        0.0367
     37 C         -10.0401   -3.9460    1.7408 C.ar    1  LIG1       -0.0310
     38 C         -10.7992   -4.5091    2.7680 C.ar    1  LIG1        0.0705
     39 C         -10.1289   -5.0346    3.8878 C.ar    1  LIG1        0.0464
     40 N          -8.7886   -5.0243    4.0246 N.ar    1  LIG1       -0.2427
     41 H         -10.5277   -3.5263    0.8495 H       1  LIG1        0.0638
     42 H         -10.7919   -5.5693    4.8699 H       1  LIG1        0.0843
     43 N          -5.6439   -4.4872    3.3287 N.1     1  LIG1       -0.1893
     44 C          -6.7816   -4.4824    3.1859 C.1     1  LIG1        0.1198
     45 N         -13.2411   -4.5885    2.6387 N.1     1  LIG1       -0.1908
     46 C         -12.0967   -4.5513    2.6993 C.1     1  LIG1        0.1007
@<TRIPOS>BOND
     1    31    32    3
     2    22    23    3
     3    32    26    1
     4    23    14    1
     5    18    15    1
     6    33    34    3
     7    14    15   ar
     8    14    16   ar
     9    34    27    1
    10    15    17   ar
    11    26    27   ar
    12    26    25   ar
    13    13    10    1
    14    27    28   ar
    15     2     8    1
    16     2     1   ar
    17     2     3   ar
    18     6     5    1
    19     4    16    1
    20     4     5   ar
    21     4     3   ar
    22    16    19   ar
    23     5     1   ar
    24     1     7    1
    25     3     9    1
    26     9    10    1
    27    10    11    1
    28    10    12    1
    29    17    25    1
    30    17    20   ar
    31    25    29   ar
    32    41    37    1
    33    28    29   ar
    34    28    36    1
    35    19    20   ar
    36    19    21    1
    37    20    24    1
    38    29    30    1
    39    37    36   ar
    40    37    38   ar
    41    36    35   ar
    42    45    46    3
    43    46    38    1
    44    38    39   ar
    45    35    44    1
    46    35    40   ar
    47    44    43    3
    48    39    40   ar
    49    39    42    1
