@<TRIPOS>MOLECULE
mol_data/noopt/geoms/mol2/13al6ee-13ha12ee.out
 48 51 0 0 0
SMALL
GASTEIGER

@<TRIPOS>ATOM
      1 C           1.1215   -0.3259    0.0002 C.ar    1  LIG1        0.0057
      2 C           0.7176    0.9721   -0.0005 C.ar    1  LIG1       -0.0019
      3 C          -0.7144    0.9744    0.0003 C.ar    1  LIG1        0.1453
      4 C          -1.1226   -0.3223   -0.0003 C.ar    1  LIG1        0.0914
      5 N          -0.0018   -1.1217    0.0001 N.ar    1  LIG1       -0.3577
      6 H          -0.0034   -2.1157   -0.0003 H       1  LIG1        0.1654
      7 H           2.3167   -0.8373    0.0007 H       1  LIG1        0.0808
      8 H           1.4918    2.0164   -0.0003 H       1  LIG1        0.0669
      9 O          -1.4853    2.0212    0.0010 O.3     1  LIG1       -0.4930
     10 C          -0.6829    3.2049    0.0012 C.3     1  LIG1        0.0789
     11 H          -1.3178    4.0662    0.0016 H       1  LIG1        0.0660
     12 H          -0.0650    3.2168    0.8747 H       1  LIG1        0.0660
     13 H          -0.0654    3.2174   -0.8726 H       1  LIG1        0.0660
     14 C          -2.5002   -2.2250   -0.0210 C.ar    1  LIG1        0.1231
     15 C          -2.3194   -0.8299   -0.0001 C.ar    1  LIG1        0.0369
     16 C          -3.4501   -0.0114    0.0210 C.ar    1  LIG1       -0.0323
     17 C          -4.7120   -0.6083    0.0204 C.ar    1  LIG1        0.0528
     18 C          -4.7903   -2.0130   -0.0016 C.ar    1  LIG1        0.1056
     19 N          -3.7099   -2.8177   -0.0220 N.ar    1  LIG1       -0.2350
     20 H          -3.3484    1.0830    0.0367 H       1  LIG1        0.0638
     21 C          -1.4783   -3.0283   -0.0410 C.1     1  LIG1       -0.0491
     22 C          -0.5341   -3.7706   -0.0595 C.1     1  LIG1       -0.1124
     23 H           0.3070   -4.4318   -0.0759 H       1  LIG1        0.1232
     24 C          -5.7953    0.1100    0.0393 C.1     1  LIG1       -0.0674
     25 C          -6.7963    0.7737    0.0569 C.1     1  LIG1       -0.1138
     26 H          -7.6880    1.3650    0.0725 H       1  LIG1        0.1232
     27 C          -5.9424   -2.6153   -0.0030 C.ar    1  LIG1        0.0876
     28 C          -7.2032   -2.1073    0.0122 C.ar    1  LIG1        0.0524
     29 C          -8.1107   -3.2151    0.0031 C.ar    1  LIG1       -0.0120
     30 C          -7.3645   -4.3512   -0.0191 C.ar    1  LIG1        0.0856
     31 N          -6.0364   -3.9886   -0.0225 N.ar    1  LIG1       -0.3490
     32 H          -5.2675   -4.6184   -0.0373 H       1  LIG1        0.1661
     33 N          -7.5224   -0.8473    0.0330 N.pl3   1  LIG1       -0.3563
     34 H          -6.8146   -0.3164   -0.4331 H       1  LIG1        0.1424
     35 H          -8.3975   -0.7174   -0.4331 H       1  LIG1        0.1424
     36 H          -9.4090   -3.1502    0.0136 H       1  LIG1        0.0658
     37 C          -7.7283   -5.5991   -0.0346 C.ar    1  LIG1        0.1674
     38 C          -8.9323   -6.2724   -0.0464 C.ar    1  LIG1        0.0872
     39 C          -8.6171   -7.6857   -0.0615 C.ar    1  LIG1        0.0784
     40 C          -7.2407   -7.7823   -0.0581 C.ar    1  LIG1        0.1092
     41 O          -6.6702   -6.5091   -0.0417 O.2     1  LIG1       -0.4589
     42 H          -6.3806   -8.7570   -0.0664 H       1  LIG1        0.1042
     43 C         -10.1285   -5.7635   -0.0444 C.1     1  LIG1       -0.0646
     44 C         -11.2338   -5.2933   -0.0426 C.1     1  LIG1       -0.1138
     45 H         -12.2185   -4.8744   -0.0410 H       1  LIG1        0.1232
     46 C          -9.4832   -8.6550   -0.0755 C.1     1  LIG1       -0.0653
     47 C         -10.2836   -9.5506   -0.0884 C.1     1  LIG1       -0.1138
     48 H         -10.9965  -10.3485   -0.0999 H       1  LIG1        0.1232
@<TRIPOS>BOND
     1    13    10    1
     2    35    33    1
     3    34    33    1
     4    48    47    1
     5    47    46    3
     6    23    22    1
     7    46    39    1
     8    42    40    1
     9    39    40   ar
    10    39    38   ar
    11    22    21    3
    12    40    41   ar
    13    38    43    1
    14    38    37   ar
    15    43    44    3
    16    44    45    1
    17    41    37   ar
    18    21    14    1
    19    32    31    1
    20    37    30    1
    21    31    30   ar
    22    31    27   ar
    23    19    14   ar
    24    19    18   ar
    25    14    15   ar
    26    30    29   ar
    27    27    18    1
    28    27    28   ar
    29    18    17   ar
    30     2     8    1
    31     2     1   ar
    32     2     3   ar
    33     6     5    1
    34     4    15    1
    35     4     5   ar
    36     4     3   ar
    37    15    16   ar
    38     5     1   ar
    39     1     7    1
    40     3     9    1
    41     9    10    1
    42    10    11    1
    43    10    12    1
    44    29    28   ar
    45    29    36    1
    46    28    33    1
    47    17    16   ar
    48    17    24    1
    49    16    20    1
    50    24    25    3
    51    25    26    1
