@<TRIPOS>MOLECULE
mol_data/noopt/geoms/mol2/13al13de-12af-6af-.out
 43 46 0 0 0
SMALL
GASTEIGER

@<TRIPOS>ATOM
      1 C           1.1215   -0.3259    0.0002 C.ar    1  LIG1        0.0058
      2 C           0.7176    0.9721   -0.0005 C.ar    1  LIG1       -0.0019
      3 C          -0.7144    0.9744    0.0003 C.ar    1  LIG1        0.1467
      4 C          -1.1226   -0.3223   -0.0003 C.ar    1  LIG1        0.1064
      5 N          -0.0018   -1.1217    0.0001 N.ar    1  LIG1       -0.3566
      6 H          -0.0034   -2.1157   -0.0003 H       1  LIG1        0.1655
      7 H           2.3167   -0.8373    0.0007 H       1  LIG1        0.0808
      8 H           1.4918    2.0164   -0.0003 H       1  LIG1        0.0669
      9 O          -1.4853    2.0212    0.0010 O.3     1  LIG1       -0.4929
     10 C          -0.6829    3.2049    0.0012 C.3     1  LIG1        0.0789
     11 H          -1.3178    4.0662    0.0016 H       1  LIG1        0.0660
     12 H          -0.0650    3.2168    0.8747 H       1  LIG1        0.0660
     13 H          -0.0654    3.2174   -0.8726 H       1  LIG1        0.0660
     14 C          -2.3194   -0.8299   -0.0001 C.ar    1  LIG1        0.0858
     15 C          -3.5353   -0.2219   -0.0003 C.ar    1  LIG1        0.0946
     16 C          -4.5290   -1.2530    0.0012 C.ar    1  LIG1        0.0709
     17 C          -3.8767   -2.4457    0.0005 C.ar    1  LIG1        0.0995
     18 N          -2.5238   -2.1913    0.0002 N.ar    1  LIG1       -0.3485
     19 H          -1.8081   -2.8811   -0.0004 H       1  LIG1        0.1661
     20 N          -3.9431    2.1904   -0.0003 N.1     1  LIG1       -0.1908
     21 C          -3.7520    1.0599   -0.0003 C.1     1  LIG1        0.1026
     22 C          -5.8179   -1.0837    0.0025 C.1     1  LIG1       -0.0661
     23 C          -7.0089   -0.9273    0.0037 C.1     1  LIG1       -0.1138
     24 H          -8.0698   -0.7879    0.0048 H       1  LIG1        0.1232
     25 C          -4.3398   -3.6604    0.0012 C.ar    1  LIG1        0.1566
     26 C          -5.5940   -4.2347    0.0165 C.ar    1  LIG1        0.0279
     27 C          -5.3937   -5.6688    0.0065 C.ar    1  LIG1        0.1633
     28 C          -4.0297   -5.8758   -0.0144 C.ar    1  LIG1        0.1785
     29 O          -3.3585   -4.6526   -0.0181 O.2     1  LIG1       -0.4495
     30 H          -6.7452   -3.6312    0.0363 H       1  LIG1        0.0693
     31 O          -6.3351   -6.5654    0.0157 O.3     1  LIG1       -0.5032
     32 H          -5.9430   -7.4417    0.0179 H       1  LIG1        0.2923
     33 C          -1.8533   -6.7587   -0.0608 C.ar    1  LIG1        0.0386
     34 C          -3.2510   -6.9167   -0.0308 C.ar    1  LIG1        0.0424
     35 C          -3.7756   -8.2104   -0.0189 C.ar    1  LIG1       -0.0064
     36 C          -2.8946   -9.2930   -0.0374 C.ar    1  LIG1        0.1355
     37 C          -1.5121   -9.0332   -0.0673 C.ar    1  LIG1        0.0690
     38 N          -0.9888   -7.7917   -0.0790 N.ar    1  LIG1       -0.2589
     39 H          -4.8625   -8.3732    0.0034 H       1  LIG1        0.0662
     40 H          -0.6521  -10.0079   -0.0853 H       1  LIG1        0.0867
     41 H          -1.3175   -5.5743   -0.0728 H       1  LIG1        0.0837
     42 O          -3.3332  -10.5167   -0.0276 O.3     1  LIG1       -0.5052
     43 H          -2.5895  -11.1237   -0.0252 H       1  LIG1        0.2922
@<TRIPOS>BOND
     1    13    10    1
     2    40    37    1
     3    38    37   ar
     4    38    33   ar
     5    41    33    1
     6    37    36   ar
     7    33    34   ar
     8    36    42    1
     9    36    35   ar
    10    34    35   ar
    11    34    28    1
    12    42    43    1
    13    35    39    1
    14    29    28   ar
    15    29    25   ar
    16    28    27   ar
    17     2     8    1
    18     2     1   ar
    19     2     3   ar
    20    19    18    1
    21    15    21    1
    22    15    14   ar
    23    15    16   ar
    24     6     5    1
    25     4    14    1
    26     4     5   ar
    27     4     3   ar
    28    21    20    3
    29    14    18   ar
    30     5     1   ar
    31    18    17   ar
    32     1     7    1
    33     3     9    1
    34    17    16   ar
    35    17    25    1
    36     9    10    1
    37    16    22    1
    38    10    11    1
    39    10    12    1
    40    25    26   ar
    41    22    23    3
    42    23    24    1
    43    27    31    1
    44    27    26   ar
    45    31    32    1
    46    26    30    1
