@<TRIPOS>MOLECULE
mol_data/noopt/geoms/mol2/13al13al13al-13al.out
 50 52 0 0 0
SMALL
GASTEIGER

@<TRIPOS>ATOM
      1 C           1.1215   -0.3259    0.0002 C.ar    1  LIG1        0.0058
      2 C           0.7176    0.9721   -0.0005 C.ar    1  LIG1       -0.0019
      3 C          -0.7144    0.9744    0.0003 C.ar    1  LIG1        0.1467
      4 C          -1.1226   -0.3223   -0.0003 C.ar    1  LIG1        0.1052
      5 N          -0.0018   -1.1217    0.0001 N.ar    1  LIG1       -0.3566
      6 H          -0.0034   -2.1157   -0.0003 H       1  LIG1        0.1655
      7 H           2.3167   -0.8373    0.0007 H       1  LIG1        0.0808
      8 H           1.4918    2.0164   -0.0003 H       1  LIG1        0.0669
      9 O          -1.4853    2.0212    0.0010 O.3     1  LIG1       -0.4929
     10 C          -0.6829    3.2049    0.0012 C.3     1  LIG1        0.0789
     11 H          -1.3178    4.0662    0.0016 H       1  LIG1        0.0660
     12 H          -0.0650    3.2168    0.8747 H       1  LIG1        0.0660
     13 H          -0.0654    3.2174   -0.8726 H       1  LIG1        0.0660
     14 C          -2.3194   -0.8299   -0.0001 C.ar    1  LIG1        0.0705
     15 C          -3.5353   -0.2219   -0.0003 C.ar    1  LIG1        0.0076
     16 C          -4.5290   -1.2530    0.0012 C.ar    1  LIG1        0.1473
     17 C          -3.8767   -2.4457    0.0005 C.ar    1  LIG1        0.1057
     18 N          -2.5238   -2.1913    0.0002 N.ar    1  LIG1       -0.3488
     19 H          -1.8081   -2.8811   -0.0004 H       1  LIG1        0.1661
     20 H          -3.7520    1.0599   -0.0003 H       1  LIG1        0.0676
     21 O          -5.8180   -1.0837    0.0025 O.3     1  LIG1       -0.4929
     22 C          -6.1157    0.3150    0.0029 C.3     1  LIG1        0.0789
     23 H          -7.1766    0.4539    0.0038 H       1  LIG1        0.0660
     24 H          -5.6958    0.7688    0.8763 H       1  LIG1        0.0660
     25 H          -5.6973    0.7690   -0.8710 H       1  LIG1        0.0660
     26 C          -4.3398   -3.6604    0.0012 C.ar    1  LIG1        0.0707
     27 C          -3.6874   -4.8530    0.0012 C.ar    1  LIG1        0.0127
     28 C          -4.6811   -5.8841    0.0032 C.ar    1  LIG1        0.2062
     29 C          -5.8970   -5.2763    0.0027 C.ar    1  LIG1        0.1128
     30 N          -5.6927   -3.9149    0.0019 N.ar    1  LIG1       -0.3486
     31 H          -6.4084   -3.2251    0.0013 H       1  LIG1        0.1661
     32 H          -2.3984   -5.0223    0.0009 H       1  LIG1        0.0678
     33 O          -4.4643   -7.1660    0.0049 O.3     1  LIG1       -0.2856
     34 C          -5.7139   -7.8613    0.0054 C.3     2  LIG2       -0.0776
     35 H          -5.5350   -8.9163    0.0066 H       1  LIG1        0.0194
     36 H          -6.2710   -7.5931    0.8787 H       1  LIG1        0.0194
     37 H          -6.2707   -7.5950   -0.8686 H       1  LIG1        0.0194
     38 C          -7.0939   -5.7839    0.0038 C.ar    1  LIG1        0.0945
     39 C          -8.3097   -5.1759    0.0043 C.ar    1  LIG1        0.0091
     40 C          -9.3034   -6.2070    0.0067 C.ar    1  LIG1        0.1402
     41 C          -8.6511   -7.3997    0.0060 C.ar    1  LIG1        0.0700
     42 N          -7.2982   -7.1453    0.0047 N.ar    1  LIG1       -0.2496
     43 H          -6.5825   -7.8351    0.0038 H       1  LIG1        0.0194
     44 H          -9.1142   -8.6144    0.0073 H       1  LIG1        0.0867
     45 H          -8.5264   -3.8941    0.0041 H       1  LIG1        0.0677
     46 O         -10.5924   -6.0377    0.0089 O.3     1  LIG1       -0.4935
     47 C         -10.8901   -4.6390    0.0096 C.3     1  LIG1        0.0789
     48 H         -11.9510   -4.5001    0.0111 H       1  LIG1        0.0660
     49 H         -10.4697   -4.1853    0.8827 H       1  LIG1        0.0660
     50 H         -10.4723   -4.1850   -0.8646 H       1  LIG1        0.0660
@<TRIPOS>BOND
     1    13    10    1
     2    25    22    1
     3    37    34    1
     4    50    47    1
     5     2     8    1
     6     2     1   ar
     7     2     3   ar
     8    19    18    1
     9    15    20    1
    10    15    14   ar
    11    15    16   ar
    12     4    14    1
    13     4     5   ar
    14     4     3   ar
    15     6     5    1
    16    14    18   ar
    17     5     1   ar
    18    18    17   ar
    19     1     7    1
    20     3     9    1
    21    17    16   ar
    22    17    26    1
    23    32    27    1
    24     9    10    1
    25    27    26   ar
    26    27    28   ar
    27    16    21    1
    28    10    11    1
    29    10    12    1
    30    26    30   ar
    31    31    30    1
    32    30    29   ar
    33    21    22    1
    34    29    28   ar
    35    29    38    1
    36    22    23    1
    37    22    24    1
    38    28    33    1
    39    43    34    1
    40    38    39   ar
    41    38    42   ar
    42    45    39    1
    43    39    40   ar
    44    42    41   ar
    45    34    35    1
    46    34    36    1
    47    41    40   ar
    48    41    44    1
    49    40    46    1
    50    46    47    1
    51    47    48    1
    52    47    49    1
