@<TRIPOS>MOLECULE
mol_data/noopt/geoms/mol2/13al13al13al.out
 38 40 0 0 0
SMALL
GASTEIGER

@<TRIPOS>ATOM
      1 C           1.1215   -0.3259    0.0002 C.ar    1  LIG1        0.0058
      2 C           0.7176    0.9721   -0.0005 C.ar    1  LIG1       -0.0019
      3 C          -0.7144    0.9744    0.0003 C.ar    1  LIG1        0.1467
      4 C          -1.1226   -0.3223   -0.0003 C.ar    1  LIG1        0.1052
      5 N          -0.0018   -1.1217    0.0001 N.ar    1  LIG1       -0.3566
      6 H          -0.0034   -2.1157   -0.0003 H       1  LIG1        0.1655
      7 H           2.3167   -0.8373    0.0007 H       1  LIG1        0.0808
      8 H           1.4918    2.0164   -0.0003 H       1  LIG1        0.0669
      9 O          -1.4853    2.0212    0.0010 O.3     1  LIG1       -0.4929
     10 C          -0.6829    3.2049    0.0012 C.3     1  LIG1        0.0789
     11 H          -1.3178    4.0662    0.0016 H       1  LIG1        0.0660
     12 H          -0.0650    3.2168    0.8747 H       1  LIG1        0.0660
     13 H          -0.0654    3.2174   -0.8726 H       1  LIG1        0.0660
     14 C          -2.3194   -0.8299   -0.0001 C.ar    1  LIG1        0.0705
     15 C          -3.5353   -0.2219   -0.0003 C.ar    1  LIG1        0.0076
     16 C          -4.5290   -1.2530    0.0012 C.ar    1  LIG1        0.1473
     17 C          -3.8767   -2.4457    0.0005 C.ar    1  LIG1        0.1057
     18 N          -2.5238   -2.1913    0.0002 N.ar    1  LIG1       -0.3488
     19 H          -1.8081   -2.8811   -0.0004 H       1  LIG1        0.1661
     20 H          -3.7520    1.0599   -0.0003 H       1  LIG1        0.0676
     21 O          -5.8180   -1.0837    0.0025 O.3     1  LIG1       -0.4929
     22 C          -6.1157    0.3150    0.0029 C.3     1  LIG1        0.0789
     23 H          -7.1766    0.4539    0.0038 H       1  LIG1        0.0660
     24 H          -5.6958    0.7688    0.8763 H       1  LIG1        0.0660
     25 H          -5.6973    0.7690   -0.8710 H       1  LIG1        0.0660
     26 C          -4.3398   -3.6604    0.0012 C.ar    1  LIG1        0.0701
     27 C          -5.6206   -4.1160    0.0013 C.ar    1  LIG1        0.0069
     28 C          -5.5655   -5.5470    0.0033 C.ar    1  LIG1        0.1379
     29 C          -4.2535   -5.9029    0.0026 C.ar    1  LIG1        0.0444
     30 N          -3.4996   -4.7510    0.0018 N.ar    1  LIG1       -0.3564
     31 H          -2.5064   -4.7127    0.0010 H       1  LIG1        0.1655
     32 H          -3.6983   -7.0784    0.0036 H       1  LIG1        0.0844
     33 H          -6.6951   -3.3843    0.0012 H       1  LIG1        0.0676
     34 O          -6.5806   -6.3592    0.0050 O.3     1  LIG1       -0.4936
     35 C          -7.7954   -5.6049    0.0056 C.3     1  LIG1        0.0789
     36 H          -8.6306   -6.2737    0.0068 H       1  LIG1        0.0660
     37 H          -7.8316   -4.9876    0.8789 H       1  LIG1        0.0660
     38 H          -7.8332   -4.9888   -0.8684 H       1  LIG1        0.0660
@<TRIPOS>BOND
     1    13    10    1
     2    25    22    1
     3    38    35    1
     4     2     8    1
     5     2     1   ar
     6     2     3   ar
     7    19    18    1
     8    15    20    1
     9    15    14   ar
    10    15    16   ar
    11     4    14    1
    12     4     5   ar
    13     4     3   ar
    14     6     5    1
    15    14    18   ar
    16     5     1   ar
    17    18    17   ar
    18     1     7    1
    19     3     9    1
    20    17    16   ar
    21    17    26    1
    22    31    30    1
    23     9    10    1
    24    10    11    1
    25    10    12    1
    26    16    21    1
    27    26    27   ar
    28    26    30   ar
    29    33    27    1
    30    27    28   ar
    31    30    29   ar
    32    21    22    1
    33    29    28   ar
    34    29    32    1
    35    22    23    1
    36    22    24    1
    37    28    34    1
    38    34    35    1
    39    35    36    1
    40    35    37    1
