@<TRIPOS>MOLECULE
mol_data/noopt/geoms/mol2/13al13al-13al13al-.out
 50 52 0 0 0
SMALL
GASTEIGER

@<TRIPOS>ATOM
      1 C           1.1215   -0.3259    0.0002 C.ar    1  LIG1        0.0058
      2 C           0.7176    0.9721   -0.0005 C.ar    1  LIG1       -0.0019
      3 C          -0.7144    0.9744    0.0003 C.ar    1  LIG1        0.1467
      4 C          -1.1226   -0.3223   -0.0003 C.ar    1  LIG1        0.1052
      5 N          -0.0018   -1.1217    0.0001 N.ar    1  LIG1       -0.3566
      6 H          -0.0034   -2.1157   -0.0003 H       1  LIG1        0.1655
      7 H           2.3167   -0.8373    0.0007 H       1  LIG1        0.0808
      8 H           1.4918    2.0164   -0.0003 H       1  LIG1        0.0669
      9 O          -1.4853    2.0212    0.0010 O.3     1  LIG1       -0.4929
     10 C          -0.6829    3.2049    0.0012 C.3     1  LIG1        0.0789
     11 H          -1.3178    4.0662    0.0016 H       1  LIG1        0.0660
     12 H          -0.0650    3.2168    0.8747 H       1  LIG1        0.0660
     13 H          -0.0654    3.2174   -0.8726 H       1  LIG1        0.0660
     14 C          -2.3194   -0.8299   -0.0001 C.ar    1  LIG1        0.0707
     15 C          -2.7274   -2.1266   -0.0005 C.ar    1  LIG1        0.0127
     16 C          -4.1594   -2.1244    0.0011 C.ar    1  LIG1        0.2062
     17 C          -4.5635   -0.8264    0.0006 C.ar    1  LIG1        0.1128
     18 N          -3.4402   -0.0305    0.0003 N.ar    1  LIG1       -0.3486
     19 H          -3.4386    0.9635   -0.0001 H       1  LIG1        0.1661
     20 H          -1.9565   -3.1734   -0.0006 H       1  LIG1        0.0678
     21 O          -4.9337   -3.1687    0.0023 O.3     1  LIG1       -0.2856
     22 C          -6.3008   -2.7494    0.0027 C.3     2  LIG2       -0.0776
     23 H          -6.9376   -3.6092    0.0035 H       1  LIG1        0.0194
     24 H          -6.4935   -2.1620    0.8761 H       1  LIG1        0.0194
     25 H          -6.4943   -2.1631   -0.8712 H       1  LIG1        0.0194
     26 C          -5.7587   -0.3150    0.0014 C.ar    1  LIG1        0.0953
     27 C          -6.1626    0.9830    0.0016 C.ar    1  LIG1        0.0098
     28 C          -7.5946    0.9853    0.0038 C.ar    1  LIG1        0.1494
     29 C          -8.0028   -0.3114    0.0030 C.ar    1  LIG1        0.1294
     30 N          -6.8820   -1.1108    0.0021 N.ar    1  LIG1       -0.2398
     31 H          -6.8836   -2.1048    0.0013 H       1  LIG1        0.0194
     32 H          -5.3884    2.0273    0.0015 H       1  LIG1        0.0677
     33 O          -8.3655    2.0321    0.0056 O.3     1  LIG1       -0.4928
     34 C          -7.5631    3.2158    0.0062 C.3     1  LIG1        0.0789
     35 H          -8.1980    4.0771    0.0075 H       1  LIG1        0.0660
     36 H          -6.9448    3.2271    0.8794 H       1  LIG1        0.0660
     37 H          -6.9461    3.2289   -0.8679 H       1  LIG1        0.0660
     38 C          -9.1996   -0.8190    0.0041 C.ar    1  LIG1        0.0721
     39 C          -9.6076   -2.1157    0.0044 C.ar    1  LIG1        0.0070
     40 C         -11.0396   -2.1135    0.0069 C.ar    1  LIG1        0.1379
     41 C         -11.4437   -0.8155    0.0063 C.ar    1  LIG1        0.0444
     42 N         -10.3204   -0.0196    0.0051 N.ar    1  LIG1       -0.3563
     43 H         -10.3188    0.9744    0.0043 H       1  LIG1        0.1655
     44 H         -12.6389   -0.3041    0.0077 H       1  LIG1        0.0844
     45 H          -8.8367   -3.1625    0.0040 H       1  LIG1        0.0676
     46 O         -11.8139   -3.1578    0.0089 O.3     1  LIG1       -0.4936
     47 C         -13.1810   -2.7385    0.0095 C.3     1  LIG1        0.0789
     48 H         -13.8179   -3.5983    0.0110 H       1  LIG1        0.0660
     49 H         -13.3734   -2.1507    0.8828 H       1  LIG1        0.0660
     50 H         -13.3748   -2.1526   -0.8645 H       1  LIG1        0.0660
@<TRIPOS>BOND
     1    13    10    1
     2    25    22    1
     3    37    34    1
     4    50    47    1
     5    20    15    1
     6     2     8    1
     7     2     1   ar
     8     2     3   ar
     9    15    14   ar
    10    15    16   ar
    11     4    14    1
    12     4     5   ar
    13     4     3   ar
    14     6     5    1
    15    19    18    1
    16    14    18   ar
    17     5     1   ar
    18     1     7    1
    19     3     9    1
    20    18    17   ar
    21    17    16   ar
    22    17    26    1
    23     9    10    1
    24    16    21    1
    25    10    11    1
    26    10    12    1
    27    31    22    1
    28    26    27   ar
    29    26    30   ar
    30    32    27    1
    31    27    28   ar
    32    30    29   ar
    33    22    23    1
    34    22    24    1
    35    29    28   ar
    36    29    38    1
    37    28    33    1
    38    45    39    1
    39    38    39   ar
    40    38    42   ar
    41    43    42    1
    42    39    40   ar
    43    42    41   ar
    44    33    34    1
    45    34    35    1
    46    34    36    1
    47    41    40   ar
    48    41    44    1
    49    40    46    1
    50    46    47    1
    51    47    48    1
    52    47    49    1
