@<TRIPOS>MOLECULE
mol_data/noopt/geoms/mol2/13al12ed(30)13el(130)4ea(50).out
 50 53 0 0 0
SMALL
GASTEIGER

@<TRIPOS>ATOM
      1 C           1.1215   -0.3259    0.0002 C.ar    1  LIG1        0.0058
      2 C           0.7176    0.9721   -0.0005 C.ar    1  LIG1       -0.0018
      3 C          -0.7144    0.9744    0.0003 C.ar    1  LIG1        0.1483
      4 C          -1.1226   -0.3223   -0.0003 C.ar    1  LIG1        0.1255
      5 N          -0.0018   -1.1217    0.0001 N.ar    1  LIG1       -0.3553
      6 H          -0.0034   -2.1157   -0.0003 H       1  LIG1        0.1655
      7 H           2.3167   -0.8373    0.0007 H       1  LIG1        0.0808
      8 H           1.4918    2.0164   -0.0003 H       1  LIG1        0.0669
      9 O          -1.4853    2.0212    0.0010 O.3     1  LIG1       -0.4929
     10 C          -0.6829    3.2049    0.0012 C.3     1  LIG1        0.0789
     11 H          -1.3178    4.0662    0.0016 H       1  LIG1        0.0660
     12 H          -0.0650    3.2168    0.8747 H       1  LIG1        0.0660
     13 H          -0.0654    3.2174   -0.8726 H       1  LIG1        0.0660
     14 C          -2.3194   -0.8299   -0.0001 C.ar    1  LIG1        0.1720
     15 C          -3.5617   -0.4190    0.4367 C.ar    1  LIG1        0.0900
     16 C          -4.4865   -1.4880    0.1218 C.ar    1  LIG1        0.1149
     17 C          -3.7476   -2.4815   -0.4869 C.ar    1  LIG1        0.1717
     18 O          -2.4085   -2.0991   -0.5736 O.2     1  LIG1       -0.4491
     19 C          -3.8698    0.7015    1.0193 C.1     1  LIG1       -0.0645
     20 C          -4.1545    1.7369    1.5577 C.1     1  LIG1       -0.1138
     21 H          -4.4081    2.6591    2.0373 H       1  LIG1        0.1232
     22 N          -6.8863   -1.4837    0.5980 N.1     1  LIG1       -0.1907
     23 C          -5.7617   -1.4857    0.3749 C.1     1  LIG1        0.1043
     24 C          -4.0048   -3.6554   -0.9826 C.ar    1  LIG1        0.1031
     25 C          -3.5612   -4.8858   -0.6119 C.ar    1  LIG1        0.0952
     26 C          -4.1564   -5.8400   -1.4985 C.ar    1  LIG1        0.1613
     27 C          -4.9389   -5.1509   -2.3708 C.ar    1  LIG1        0.0917
     28 N          -4.8487   -3.8131   -2.0587 N.ar    1  LIG1       -0.3478
     29 H          -5.3187   -3.0778   -2.5346 H       1  LIG1        0.1661
     30 C          -2.7455   -5.1445    0.3667 C.1     1  LIG1       -0.0637
     31 C          -1.9919   -5.3835    1.2710 C.1     1  LIG1       -0.1137
     32 H          -1.3205   -5.5964    2.0765 H       1  LIG1        0.1232
     33 O          -3.9832   -7.1282   -1.4761 O.3     1  LIG1       -0.4917
     34 C          -5.2556   -7.7808   -1.4680 C.3     1  LIG1        0.0789
     35 H          -5.1126   -8.8410   -1.4498 H       1  LIG1        0.0660
     36 H          -5.8052   -7.4801   -0.6005 H       1  LIG1        0.0660
     37 H          -5.8012   -7.5096   -2.3476 H       1  LIG1        0.0660
     38 C          -7.0808   -5.4661   -3.2745 C.ar    1  LIG1        0.0339
     39 C          -7.8360   -5.9368   -4.3661 C.ar    1  LIG1       -0.0457
     40 C          -5.6771   -5.5709   -3.3549 C.ar    1  LIG1        0.0173
     41 C          -7.2227   -6.4872   -5.4893 C.ar    1  LIG1       -0.0606
     42 H          -8.9206   -5.8656   -4.3248 H       1  LIG1        0.0630
     43 C          -5.0644   -6.1203   -4.4759 C.ar    1  LIG1       -0.0513
     44 C          -5.8319   -6.5820   -5.5504 C.ar    1  LIG1       -0.0611
     45 H          -3.9803   -6.1902   -4.5140 H       1  LIG1        0.0624
     46 H          -7.9506   -6.9118   -6.4792 H       1  LIG1        0.0618
     47 C          -7.7098   -4.9625   -2.2544 C.1     1  LIG1       -0.0690
     48 C          -8.2911   -4.4971   -1.3118 C.1     1  LIG1       -0.1139
     49 H          -8.8088   -4.0825   -0.4722 H       1  LIG1        0.1232
     50 H          -5.2535   -7.0947   -6.5957 H       1  LIG1        0.0618
@<TRIPOS>BOND
     1    50    44    1
     2    46    41    1
     3    44    41   ar
     4    44    43   ar
     5    41    39   ar
     6    45    43    1
     7    43    40   ar
     8    39    42    1
     9    39    38   ar
    10    40    38   ar
    11    40    27    1
    12    38    47    1
    13    29    28    1
    14    27    28   ar
    15    27    26   ar
    16    37    34    1
    17    47    48    3
    18    28    24   ar
    19    26    33    1
    20    26    25   ar
    21    33    34    1
    22    34    35    1
    23    34    36    1
    24    48    49    1
    25    24    25   ar
    26    24    17    1
    27    13    10    1
    28    25    30    1
    29    18    17   ar
    30    18    14   ar
    31    17    16   ar
    32     2     8    1
    33     2     1   ar
    34     2     3   ar
    35     4    14    1
    36     4     5   ar
    37     4     3   ar
    38     6     5    1
    39    14    15   ar
    40     5     1   ar
    41     1     7    1
    42     3     9    1
    43     9    10    1
    44    10    11    1
    45    10    12    1
    46    16    23    1
    47    16    15   ar
    48    30    31    3
    49    23    22    3
    50    15    19    1
    51    19    20    3
    52    31    32    1
    53    20    21    1
