@<TRIPOS>MOLECULE
mol_data/noopt/geoms/mol2/13al13al.out
 26 27 0 0 0
SMALL
GASTEIGER

@<TRIPOS>ATOM
      1 C           1.1215   -0.3259    0.0002 C.ar    1  LIG1        0.0058
      2 C           0.7176    0.9721   -0.0005 C.ar    1  LIG1       -0.0019
      3 C          -0.7144    0.9744    0.0003 C.ar    1  LIG1        0.1467
      4 C          -1.1226   -0.3223   -0.0003 C.ar    1  LIG1        0.1052
      5 N          -0.0018   -1.1217    0.0001 N.ar    1  LIG1       -0.3566
      6 H          -0.0034   -2.1157   -0.0003 H       1  LIG1        0.1655
      7 H           2.3167   -0.8373    0.0007 H       1  LIG1        0.0808
      8 H           1.4918    2.0164   -0.0003 H       1  LIG1        0.0669
      9 O          -1.4853    2.0212    0.0010 O.3     1  LIG1       -0.4929
     10 C          -0.6829    3.2049    0.0012 C.3     1  LIG1        0.0789
     11 H          -1.3178    4.0662    0.0016 H       1  LIG1        0.0660
     12 H          -0.0650    3.2168    0.8747 H       1  LIG1        0.0660
     13 H          -0.0654    3.2174   -0.8726 H       1  LIG1        0.0660
     14 C          -2.3194   -0.8299   -0.0001 C.ar    1  LIG1        0.0701
     15 C          -3.5353   -0.2219   -0.0003 C.ar    1  LIG1        0.0069
     16 C          -4.5290   -1.2530    0.0012 C.ar    1  LIG1        0.1379
     17 C          -3.8767   -2.4457    0.0005 C.ar    1  LIG1        0.0444
     18 N          -2.5238   -2.1913    0.0002 N.ar    1  LIG1       -0.3564
     19 H          -1.8081   -2.8811   -0.0004 H       1  LIG1        0.1655
     20 H          -4.3398   -3.6604    0.0012 H       1  LIG1        0.0844
     21 H          -3.7520    1.0599   -0.0003 H       1  LIG1        0.0676
     22 O          -5.8180   -1.0837    0.0025 O.3     1  LIG1       -0.4936
     23 C          -6.1157    0.3150    0.0029 C.3     1  LIG1        0.0789
     24 H          -7.1766    0.4539    0.0038 H       1  LIG1        0.0660
     25 H          -5.6958    0.7688    0.8763 H       1  LIG1        0.0660
     26 H          -5.6973    0.7690   -0.8710 H       1  LIG1        0.0660
@<TRIPOS>BOND
     1    13    10    1
     2    26    23    1
     3     2     8    1
     4     2     1   ar
     5     2     3   ar
     6    19    18    1
     7    15    21    1
     8    15    14   ar
     9    15    16   ar
    10     4    14    1
    11     4     5   ar
    12     4     3   ar
    13     6     5    1
    14    14    18   ar
    15     5     1   ar
    16    18    17   ar
    17     1     7    1
    18     3     9    1
    19    17    16   ar
    20    17    20    1
    21     9    10    1
    22    10    11    1
    23    10    12    1
    24    16    22    1
    25    22    23    1
    26    23    24    1
    27    23    25    1
