@<TRIPOS>MOLECULE
mol_data/noopt/geoms/mol2/13al6il(310)12dd(210)12ed(320).out
 49 52 0 0 0
SMALL
GASTEIGER

@<TRIPOS>ATOM
      1 C           1.1215   -0.3259    0.0002 C.ar    1  LIG1        0.0057
      2 C           0.7176    0.9721   -0.0005 C.ar    1  LIG1       -0.0019
      3 C          -0.7144    0.9744    0.0003 C.ar    1  LIG1        0.1453
      4 C          -1.1226   -0.3223   -0.0003 C.ar    1  LIG1        0.0905
      5 N          -0.0018   -1.1217    0.0001 N.ar    1  LIG1       -0.3577
      6 H          -0.0034   -2.1157   -0.0003 H       1  LIG1        0.1654
      7 H           2.3167   -0.8373    0.0007 H       1  LIG1        0.0808
      8 H           1.4918    2.0164   -0.0003 H       1  LIG1        0.0669
      9 O          -1.4853    2.0212    0.0010 O.3     1  LIG1       -0.4930
     10 C          -0.6829    3.2049    0.0012 C.3     1  LIG1        0.0789
     11 H          -1.3178    4.0662    0.0016 H       1  LIG1        0.0660
     12 H          -0.0650    3.2168    0.8747 H       1  LIG1        0.0660
     13 H          -0.0654    3.2174   -0.8726 H       1  LIG1        0.0660
     14 C          -2.6692   -1.8262    0.9297 C.ar    1  LIG1        0.0485
     15 C          -2.3194   -0.8299   -0.0001 C.ar    1  LIG1        0.0264
     16 C          -3.2838   -0.4038   -0.9152 C.ar    1  LIG1       -0.0068
     17 C          -4.5536   -0.9820   -0.8713 C.ar    1  LIG1        0.1497
     18 C          -4.8077   -1.9719    0.0957 C.ar    1  LIG1        0.1490
     19 N          -3.8891   -2.3947    0.9861 N.ar    1  LIG1       -0.2444
     20 H          -3.0470    0.3719   -1.6571 H       1  LIG1        0.0662
     21 C          -1.8055   -2.2556    1.8018 C.3     1  LIG1       -0.0217
     22 H          -1.4826   -1.4405    2.4152 H       1  LIG1        0.0293
     23 H          -0.9628   -2.6746    1.2927 H       1  LIG1        0.0293
     24 H          -2.2606   -3.0051    2.4151 H       1  LIG1        0.0293
     25 O          -5.4861   -0.6199   -1.7017 O.3     1  LIG1       -0.4928
     26 C          -5.3403    0.7696   -2.0066 C.3     1  LIG1        0.0789
     27 H          -6.1078    1.0672   -2.6902 H       1  LIG1        0.0660
     28 H          -5.4223    1.3428   -1.1067 H       1  LIG1        0.0660
     29 H          -4.3818    0.9386   -2.4510 H       1  LIG1        0.0660
     30 C          -5.9743   -2.5397    0.1762 C.ar    1  LIG1        0.1761
     31 C          -6.5034   -3.7574   -0.1987 C.ar    1  LIG1        0.1171
     32 C          -7.8970   -3.7428    0.1944 C.ar    1  LIG1        0.1185
     33 C          -8.1272   -2.5167    0.7837 C.ar    1  LIG1        0.1905
     34 O          -6.9568   -1.7571    0.7844 O.2     1  LIG1       -0.4473
     35 N          -5.3560   -5.6099   -1.3110 N.1     1  LIG1       -0.1907
     36 C          -5.8937   -4.7417   -0.7897 C.1     1  LIG1        0.1043
     37 N          -9.4930   -5.5661   -0.1439 N.1     1  LIG1       -0.1907
     38 C          -8.7451   -4.7116    0.0146 C.1     1  LIG1        0.1044
     39 C          -9.1524   -1.9254    1.3216 C.ar    1  LIG1        0.1876
     40 C          -9.7439   -0.6844    1.2068 C.ar    1  LIG1        0.0908
     41 C         -10.8772   -0.6801    2.1081 C.ar    1  LIG1        0.1055
     42 C         -10.9032   -1.9194    2.7141 C.ar    1  LIG1        0.1113
     43 O          -9.8498   -2.7051    2.2454 O.2     1  LIG1       -0.4572
     44 H         -11.6605   -2.5045    3.5940 H       1  LIG1        0.1043
     45 C          -9.3769    0.3047    0.4472 C.1     1  LIG1       -0.0645
     46 C          -9.0378    1.2186   -0.2546 C.1     1  LIG1       -0.1138
     47 H          -8.7358    2.0328   -0.8798 H       1  LIG1        0.1232
     48 N         -12.4177    1.1891    2.4530 N.1     1  LIG1       -0.1907
     49 C         -11.6957    0.3131    2.2914 C.1     1  LIG1        0.1036
@<TRIPOS>BOND
     1    27    26    1
     2    29    26    1
     3    26    25    1
     4    26    28    1
     5    25    17    1
     6    20    16    1
     7    35    36    3
     8    16    17   ar
     9    16    15   ar
    10    47    46    1
    11    13    10    1
    12    17    18   ar
    13    36    31    1
    14    46    45    3
    15    31    30   ar
    16    31    32   ar
    17    37    38    3
    18     2     8    1
    19     2     1   ar
    20     2     3   ar
    21     6     5    1
    22     4    15    1
    23     4     5   ar
    24     4     3   ar
    25    15    14   ar
    26     5     1   ar
    27     1     7    1
    28     3     9    1
    29     9    10    1
    30    10    11    1
    31    10    12    1
    32    38    32    1
    33    18    30    1
    34    18    19   ar
    35    30    34   ar
    36    32    33   ar
    37    45    40    1
    38    33    34   ar
    39    33    39    1
    40    14    19   ar
    41    14    21    1
    42    40    39   ar
    43    40    41   ar
    44    23    21    1
    45    39    43   ar
    46    21    24    1
    47    21    22    1
    48    41    49    1
    49    41    42   ar
    50    43    42   ar
    51    49    48    3
    52    42    44    1
