@<TRIPOS>MOLECULE
mol_data/noopt/geoms/mol2/13al4ei6eh13al.out
 54 57 0 0 0
SMALL
GASTEIGER

@<TRIPOS>ATOM
      1 C           1.1215   -0.3259    0.0002 C.ar    1  LIG1        0.0057
      2 C           0.7176    0.9721   -0.0005 C.ar    1  LIG1       -0.0019
      3 C          -0.7144    0.9744    0.0003 C.ar    1  LIG1        0.1452
      4 C          -1.1226   -0.3223   -0.0003 C.ar    1  LIG1        0.0899
      5 N          -0.0018   -1.1217    0.0001 N.ar    1  LIG1       -0.3577
      6 H          -0.0034   -2.1157   -0.0003 H       1  LIG1        0.1654
      7 H           2.3167   -0.8373    0.0007 H       1  LIG1        0.0808
      8 H           1.4918    2.0164   -0.0003 H       1  LIG1        0.0669
      9 O          -1.4853    2.0212    0.0010 O.3     1  LIG1       -0.4930
     10 C          -0.6829    3.2049    0.0012 C.3     1  LIG1        0.0789
     11 H          -1.3178    4.0662    0.0016 H       1  LIG1        0.0660
     12 H          -0.0650    3.2168    0.8747 H       1  LIG1        0.0660
     13 H          -0.0654    3.2174   -0.8726 H       1  LIG1        0.0660
     14 C          -3.4434    0.0212    0.0008 C.ar    1  LIG1        0.0345
     15 C          -4.7180   -0.5776    0.0025 C.ar    1  LIG1       -0.0377
     16 C          -2.3194   -0.8299   -0.0001 C.ar    1  LIG1        0.0175
     17 C          -4.8692   -1.9625    0.0027 C.ar    1  LIG1       -0.0117
     18 H          -5.5988    0.0606    0.0034 H       1  LIG1        0.0636
     19 C          -2.4697   -2.2124    0.0001 C.ar    1  LIG1       -0.0476
     20 C          -3.7444   -2.7884    0.0015 C.ar    1  LIG1       -0.0386
     21 H          -1.5874   -2.8474   -0.0005 H       1  LIG1        0.0627
     22 C          -3.3661    1.3189    0.0004 C.1     1  LIG1       -0.0690
     23 C          -3.2947    2.5180   -0.0000 C.1     1  LIG1       -0.1139
     24 H          -3.2312    3.5861   -0.0004 H       1  LIG1        0.1232
     25 C          -3.8788   -4.0817    0.0018 C.3     1  LIG1       -0.0231
     26 H          -3.0467   -4.5266    0.5064 H       1  LIG1        0.0316
     27 H          -3.9157   -4.4368   -1.0069 H       1  LIG1        0.0316
     28 H          -4.7847   -4.3460    0.5063 H       1  LIG1        0.0373
     29 C          -6.2281   -3.8786    0.0052 C.ar    1  LIG1        0.0538
     30 C          -6.0610   -2.4816    0.0042 C.ar    1  LIG1        0.0058
     31 C          -7.1997   -1.6739    0.0052 C.ar    1  LIG1       -0.0295
     32 C          -8.4557   -2.2831    0.0070 C.ar    1  LIG1        0.0529
     33 C          -8.5203   -3.6886    0.0076 C.ar    1  LIG1        0.1081
     34 N          -7.4321   -4.4830    0.0069 N.ar    1  LIG1       -0.2474
     35 H          -7.1086   -0.5785    0.0035 H       1  LIG1        0.0643
     36 C          -5.1984   -4.6721    0.0044 C.3     1  LIG1        0.0138
     37 C          -4.2470   -5.4053    0.0037 C.3     1  LIG1       -0.0247
     38 H          -3.3995   -6.0585    0.0031 H       1  LIG1        0.0313
     39 N          -9.5460   -1.5752    0.0078 N.pl3   1  LIG1       -0.3563
     40 H          -9.3811   -0.7087   -0.4635 H       1  LIG1        0.1424
     41 H         -10.2704   -2.0783   -0.4635 H       1  LIG1        0.1424
     42 C          -9.6664   -4.3021    0.0093 C.ar    1  LIG1        0.0703
     43 C         -10.9321   -3.8064    0.0267 C.ar    1  LIG1        0.0070
     44 C         -11.8288   -4.9229    0.0207 C.ar    1  LIG1        0.1379
     45 C         -11.0717   -6.0517   -0.0018 C.ar    1  LIG1        0.0444
     46 N          -9.7472   -5.6763   -0.0084 N.ar    1  LIG1       -0.3563
     47 H          -8.9723   -6.2986   -0.0242 H       1  LIG1        0.1655
     48 H         -11.4234   -7.3032   -0.0152 H       1  LIG1        0.0844
     49 H         -11.2635   -2.5495    0.0467 H       1  LIG1        0.0676
     50 O         -13.1277   -4.8706    0.0339 O.3     1  LIG1       -0.4936
     51 C         -13.5504   -3.5046    0.0387 C.3     1  LIG1        0.0789
     52 H         -14.6195   -3.4620    0.0493 H       1  LIG1        0.0660
     53 H         -13.1653   -3.0150    0.9088 H       1  LIG1        0.0660
     54 H         -13.1827   -3.0143   -0.8384 H       1  LIG1        0.0660
@<TRIPOS>BOND
     1    27    25    1
     2    13    10    1
     3    54    51    1
     4    41    39    1
     5    40    39    1
     6    47    46    1
     7    48    45    1
     8    46    45   ar
     9    46    42   ar
    10    45    44   ar
    11     2     8    1
    12     2     1   ar
    13     2     3   ar
    14    21    19    1
    15    24    23    1
    16     6     5    1
    17     4    16    1
    18     4     5   ar
    19     4     3   ar
    20    16    19   ar
    21    16    14   ar
    22    23    22    3
    23     5     1   ar
    24    19    20   ar
    25     1     7    1
    26     3     9    1
    27    22    14    1
    28    14    15   ar
    29     9    10    1
    30    10    11    1
    31    10    12    1
    32    20    25    1
    33    20    17   ar
    34    25    26    1
    35    15    17   ar
    36    15    18    1
    37    17    30    1
    38    38    37    1
    39    35    31    1
    40    37    36    1
    41    30    29   ar
    42    30    31   ar
    43    36    29    1
    44    36    28    1
    45    29    34   ar
    46    31    32   ar
    47    34    33   ar
    48    32    33   ar
    49    32    39    1
    50    33    42    1
    51    42    43   ar
    52    44    43   ar
    53    44    50    1
    54    43    49    1
    55    50    51    1
    56    51    52    1
    57    51    53    1
