@<TRIPOS>MOLECULE
mol_data/noopt/geoms/mol2/13al13al-.out
 26 27 0 0 0
SMALL
GASTEIGER

@<TRIPOS>ATOM
      1 C           1.1215   -0.3259    0.0002 C.ar    1  LIG1        0.0058
      2 C           0.7176    0.9721   -0.0005 C.ar    1  LIG1       -0.0019
      3 C          -0.7144    0.9744    0.0003 C.ar    1  LIG1        0.1467
      4 C          -1.1226   -0.3223   -0.0003 C.ar    1  LIG1        0.1052
      5 N          -0.0018   -1.1217    0.0001 N.ar    1  LIG1       -0.3566
      6 H          -0.0034   -2.1157   -0.0003 H       1  LIG1        0.1655
      7 H           2.3167   -0.8373    0.0007 H       1  LIG1        0.0808
      8 H           1.4918    2.0164   -0.0003 H       1  LIG1        0.0669
      9 O          -1.4853    2.0212    0.0010 O.3     1  LIG1       -0.4929
     10 C          -0.6829    3.2049    0.0012 C.3     1  LIG1        0.0789
     11 H          -1.3178    4.0662    0.0016 H       1  LIG1        0.0660
     12 H          -0.0650    3.2168    0.8747 H       1  LIG1        0.0660
     13 H          -0.0654    3.2174   -0.8726 H       1  LIG1        0.0660
     14 C          -2.3194   -0.8299   -0.0001 C.ar    1  LIG1        0.0701
     15 C          -2.7274   -2.1266   -0.0005 C.ar    1  LIG1        0.0069
     16 C          -4.1594   -2.1244    0.0011 C.ar    1  LIG1        0.1379
     17 C          -4.5635   -0.8264    0.0006 C.ar    1  LIG1        0.0444
     18 N          -3.4402   -0.0305    0.0003 N.ar    1  LIG1       -0.3564
     19 H          -3.4386    0.9635   -0.0001 H       1  LIG1        0.1655
     20 H          -5.7587   -0.3150    0.0014 H       1  LIG1        0.0844
     21 H          -1.9565   -3.1734   -0.0006 H       1  LIG1        0.0676
     22 O          -4.9337   -3.1687    0.0023 O.3     1  LIG1       -0.4936
     23 C          -6.3008   -2.7494    0.0027 C.3     1  LIG1        0.0789
     24 H          -6.9376   -3.6092    0.0035 H       1  LIG1        0.0660
     25 H          -6.4935   -2.1620    0.8761 H       1  LIG1        0.0660
     26 H          -6.4943   -2.1631   -0.8712 H       1  LIG1        0.0660
@<TRIPOS>BOND
     1    13    10    1
     2    26    23    1
     3    21    15    1
     4     2     8    1
     5     2     1   ar
     6     2     3   ar
     7    15    14   ar
     8    15    16   ar
     9     4    14    1
    10     4     5   ar
    11     4     3   ar
    12     6     5    1
    13    19    18    1
    14    14    18   ar
    15     5     1   ar
    16     1     7    1
    17     3     9    1
    18    18    17   ar
    19    17    16   ar
    20    17    20    1
    21     9    10    1
    22    16    22    1
    23    10    11    1
    24    10    12    1
    25    22    23    1
    26    23    24    1
    27    23    25    1
