@<TRIPOS>MOLECULE
mol_data/noopt/geoms/mol2/13al13al-13al.out
 38 39 0 0 0
SMALL
GASTEIGER

@<TRIPOS>ATOM
      1 C           1.1215   -0.3259    0.0002 C.ar    1  LIG1        0.0058
      2 C           0.7176    0.9721   -0.0005 C.ar    1  LIG1       -0.0019
      3 C          -0.7144    0.9744    0.0003 C.ar    1  LIG1        0.1467
      4 C          -1.1226   -0.3223   -0.0003 C.ar    1  LIG1        0.1052
      5 N          -0.0018   -1.1217    0.0001 N.ar    1  LIG1       -0.3566
      6 H          -0.0034   -2.1157   -0.0003 H       1  LIG1        0.1655
      7 H           2.3167   -0.8373    0.0007 H       1  LIG1        0.0808
      8 H           1.4918    2.0164   -0.0003 H       1  LIG1        0.0669
      9 O          -1.4853    2.0212    0.0010 O.3     1  LIG1       -0.4929
     10 C          -0.6829    3.2049    0.0012 C.3     1  LIG1        0.0789
     11 H          -1.3178    4.0662    0.0016 H       1  LIG1        0.0660
     12 H          -0.0650    3.2168    0.8747 H       1  LIG1        0.0660
     13 H          -0.0654    3.2174   -0.8726 H       1  LIG1        0.0660
     14 C          -2.3194   -0.8299   -0.0001 C.ar    1  LIG1        0.0707
     15 C          -2.7274   -2.1266   -0.0005 C.ar    1  LIG1        0.0127
     16 C          -4.1594   -2.1244    0.0011 C.ar    1  LIG1        0.2062
     17 C          -4.5635   -0.8264    0.0006 C.ar    1  LIG1        0.1128
     18 N          -3.4402   -0.0305    0.0003 N.ar    1  LIG1       -0.3487
     19 H          -3.4386    0.9635   -0.0001 H       1  LIG1        0.1661
     20 H          -1.9565   -3.1734   -0.0006 H       1  LIG1        0.0678
     21 O          -4.9337   -3.1687    0.0023 O.3     1  LIG1       -0.2856
     22 C          -6.3008   -2.7494    0.0027 C.3     2  LIG2       -0.0776
     23 H          -6.9376   -3.6092    0.0035 H       1  LIG1        0.0194
     24 H          -6.4935   -2.1620    0.8761 H       1  LIG1        0.0194
     25 H          -6.4943   -2.1631   -0.8712 H       1  LIG1        0.0194
     26 C          -5.7587   -0.3150    0.0014 C.ar    1  LIG1        0.0945
     27 C          -6.1626    0.9830    0.0016 C.ar    1  LIG1        0.0091
     28 C          -7.5946    0.9853    0.0038 C.ar    1  LIG1        0.1402
     29 C          -8.0028   -0.3114    0.0030 C.ar    1  LIG1        0.0700
     30 N          -6.8820   -1.1108    0.0021 N.ar    1  LIG1       -0.2496
     31 H          -6.8836   -2.1048    0.0013 H       1  LIG1        0.0194
     32 H          -9.1996   -0.8190    0.0041 H       1  LIG1        0.0867
     33 H          -5.3884    2.0273    0.0015 H       1  LIG1        0.0677
     34 O          -8.3655    2.0321    0.0056 O.3     1  LIG1       -0.4935
     35 C          -7.5631    3.2158    0.0062 C.3     1  LIG1        0.0789
     36 H          -8.1980    4.0771    0.0075 H       1  LIG1        0.0660
     37 H          -6.9448    3.2271    0.8794 H       1  LIG1        0.0660
     38 H          -6.9461    3.2289   -0.8679 H       1  LIG1        0.0660
@<TRIPOS>BOND
     1    13    10    1
     2    25    22    1
     3    38    35    1
     4    20    15    1
     5     2     8    1
     6     2     1   ar
     7     2     3   ar
     8    15    14   ar
     9    15    16   ar
    10     6     5    1
    11     4    14    1
    12     4     5   ar
    13     4     3   ar
    14    19    18    1
    15    14    18   ar
    16     5     1   ar
    17     1     7    1
    18     3     9    1
    19    18    17   ar
    20    17    16   ar
    21    17    26    1
    22     9    10    1
    23    16    21    1
    24    10    11    1
    25    10    12    1
    26    31    22    1
    27    26    27   ar
    28    26    30   ar
    29    33    27    1
    30    27    28   ar
    31    30    29   ar
    32    22    23    1
    33    22    24    1
    34    29    28   ar
    35    29    32    1
    36    28    34    1
    37    34    35    1
    38    35    36    1
    39    35    37    1
