@<TRIPOS>MOLECULE
mol_data/noopt/geoms/mol2/13al6ah-4af-13la.out
 48 48 0 0 0
SMALL
GASTEIGER

@<TRIPOS>ATOM
      1 C           1.1215   -0.3259    0.0002 C.ar    1  LIG1        0.0057
      2 C           0.7176    0.9721   -0.0005 C.ar    1  LIG1       -0.0019
      3 C          -0.7144    0.9744    0.0003 C.ar    1  LIG1        0.1453
      4 C          -1.1226   -0.3223   -0.0003 C.ar    1  LIG1        0.0902
      5 N          -0.0018   -1.1217    0.0001 N.ar    1  LIG1       -0.3577
      6 H          -0.0034   -2.1157   -0.0003 H       1  LIG1        0.1654
      7 H           2.3167   -0.8373    0.0007 H       1  LIG1        0.0808
      8 H           1.4918    2.0164   -0.0003 H       1  LIG1        0.0669
      9 O          -1.4853    2.0212    0.0010 O.3     1  LIG1       -0.4930
     10 C          -0.6829    3.2049    0.0012 C.3     1  LIG1        0.0789
     11 H          -1.3178    4.0662    0.0016 H       1  LIG1        0.0660
     12 H          -0.0650    3.2168    0.8747 H       1  LIG1        0.0660
     13 H          -0.0654    3.2174   -0.8726 H       1  LIG1        0.0660
     14 C          -2.5002   -2.2250   -0.0210 C.ar    1  LIG1        0.0376
     15 C          -2.3194   -0.8299   -0.0001 C.ar    1  LIG1        0.0217
     16 C          -3.4501   -0.0114    0.0210 C.ar    1  LIG1       -0.0283
     17 C          -4.7120   -0.6083    0.0204 C.ar    1  LIG1        0.0512
     18 C          -4.7903   -2.0130   -0.0016 C.ar    1  LIG1        0.0880
     19 N          -3.7099   -2.8177   -0.0220 N.ar    1  LIG1       -0.2528
     20 H          -3.3484    1.0830    0.0367 H       1  LIG1        0.0644
     21 H          -1.4783   -3.0283   -0.0410 H       1  LIG1        0.0836
     22 N          -5.7953    0.1100    0.0393 N.pl3   1  LIG1       -0.3563
     23 H          -5.6276    0.9785   -0.4271 H       1  LIG1        0.1424
     24 H          -6.5300   -0.3825   -0.4272 H       1  LIG1        0.1424
     25 C          -7.1311   -1.8576    0.0183 C.3     1  LIG1        0.0012
     26 C          -8.3534   -2.5572    0.0173 C.3     2  LIG2        0.0000
     27 C          -5.9423   -2.6153   -0.0030 C.2     1  LIG1       -0.0125
     28 C          -8.3926   -3.9496   -0.0045 C.2     1  LIG1        0.0561
     29 H          -9.2827   -1.9922    0.0338 H       2  LIG2        0.0194
     30 C          -5.9809   -4.0053   -0.0248 C.2     1  LIG1       -0.0139
     31 C          -7.2050   -4.6820   -0.0258 C.2     1  LIG1        0.1271
     32 H          -5.0504   -4.5670   -0.0409 H       1  LIG1        0.0658
     33 H          -7.1586   -0.5581    0.0389 H       1  LIG1        0.0362
     34 O          -7.2349   -5.9815   -0.0461 O.2     1  LIG1       -0.5061
     35 H          -6.3375   -6.3226   -0.0511 H       1  LIG1        0.2922
     36 C          -9.5387   -4.5631   -0.0049 C.ar    1  LIG1        0.0980
     37 C         -10.8044   -4.0674    0.0111 C.ar    1  LIG1        0.2042
     38 C         -11.7011   -5.1839    0.0031 C.ar    1  LIG1        0.0031
     39 C         -10.9439   -6.3127   -0.0193 C.ar    1  LIG1        0.0059
     40 N          -9.6195   -5.9372   -0.0237 N.ar    1  LIG1       -0.3575
     41 H          -8.8445   -6.5595   -0.0389 H       1  LIG1        0.1654
     42 H         -11.2956   -7.5641   -0.0340 H       1  LIG1        0.0808
     43 O         -11.1358   -2.8105    0.0316 O.3     1  LIG1       -0.2857
     44 C          -9.9541   -2.0053    0.0391 C.3     3  LIG3       -0.0776
     45 H         -10.2273   -0.9709    0.0557 H       2  LIG2        0.0194
     46 H          -9.3718   -2.2344    0.9071 H       2  LIG2        0.0194
     47 H          -9.3788   -2.2081   -0.8400 H       2  LIG2        0.0194
     48 H         -13.0000   -5.1316    0.0145 H       1  LIG1        0.0671
@<TRIPOS>BOND
     1    13    10    1
     2    47    44    1
     3    24    22    1
     4    23    22    1
     5    35    34    1
     6    34    31    1
     7    21    14    1
     8    32    30    1
     9    41    40    1
    10    42    39    1
    11    31    30    1
    12    31    28    2
    13    30    27    2
    14    40    39   ar
    15    40    36   ar
    16    19    14   ar
    17    19    18   ar
    18    14    15   ar
    19    39    38   ar
    20    36    28    1
    21    36    37   ar
    22    27    18    1
    23    27    25    1
    24    18    17   ar
    25     2     8    1
    26     2     1   ar
    27     2     3   ar
    28     6     5    1
    29     4    15    1
    30     4     5   ar
    31     4     3   ar
    32    15    16   ar
    33     5     1   ar
    34     1     7    1
    35     3     9    1
    36     9    10    1
    37    10    11    1
    38    10    12    1
    39    38    37   ar
    40    38    48    1
    41    37    43    1
    42    25    33    1
    43    17    16   ar
    44    17    22    1
    45    16    20    1
    46    29    44    1
    47    44    45    1
    48    44    46    1
