@<TRIPOS>MOLECULE
mol_data/noopt/geoms/mol2/13al13al13al13al.out
 50 53 0 0 0
SMALL
GASTEIGER

@<TRIPOS>ATOM
      1 C           1.1215   -0.3259    0.0002 C.ar    1  LIG1        0.0058
      2 C           0.7176    0.9721   -0.0005 C.ar    1  LIG1       -0.0019
      3 C          -0.7144    0.9744    0.0003 C.ar    1  LIG1        0.1467
      4 C          -1.1226   -0.3223   -0.0003 C.ar    1  LIG1        0.1052
      5 N          -0.0018   -1.1217    0.0001 N.ar    1  LIG1       -0.3566
      6 H          -0.0034   -2.1157   -0.0003 H       1  LIG1        0.1655
      7 H           2.3167   -0.8373    0.0007 H       1  LIG1        0.0808
      8 H           1.4918    2.0164   -0.0003 H       1  LIG1        0.0669
      9 O          -1.4853    2.0212    0.0010 O.3     1  LIG1       -0.4929
     10 C          -0.6829    3.2049    0.0012 C.3     1  LIG1        0.0789
     11 H          -1.3178    4.0662    0.0016 H       1  LIG1        0.0660
     12 H          -0.0650    3.2168    0.8747 H       1  LIG1        0.0660
     13 H          -0.0654    3.2174   -0.8726 H       1  LIG1        0.0660
     14 C          -2.3194   -0.8299   -0.0001 C.ar    1  LIG1        0.0705
     15 C          -3.5353   -0.2219   -0.0003 C.ar    1  LIG1        0.0076
     16 C          -4.5290   -1.2530    0.0012 C.ar    1  LIG1        0.1473
     17 C          -3.8767   -2.4457    0.0005 C.ar    1  LIG1        0.1057
     18 N          -2.5238   -2.1913    0.0002 N.ar    1  LIG1       -0.3488
     19 H          -1.8081   -2.8811   -0.0004 H       1  LIG1        0.1661
     20 H          -3.7520    1.0599   -0.0003 H       1  LIG1        0.0676
     21 O          -5.8180   -1.0837    0.0025 O.3     1  LIG1       -0.4929
     22 C          -6.1157    0.3150    0.0029 C.3     1  LIG1        0.0789
     23 H          -7.1766    0.4539    0.0038 H       1  LIG1        0.0660
     24 H          -5.6958    0.7688    0.8763 H       1  LIG1        0.0660
     25 H          -5.6973    0.7690   -0.8710 H       1  LIG1        0.0660
     26 C          -4.3398   -3.6604    0.0012 C.ar    1  LIG1        0.0706
     27 C          -5.6206   -4.1160    0.0013 C.ar    1  LIG1        0.0076
     28 C          -5.5655   -5.5470    0.0033 C.ar    1  LIG1        0.1473
     29 C          -4.2535   -5.9029    0.0026 C.ar    1  LIG1        0.1057
     30 N          -3.4996   -4.7510    0.0018 N.ar    1  LIG1       -0.3488
     31 H          -2.5064   -4.7127    0.0010 H       1  LIG1        0.1661
     32 H          -6.6951   -3.3843    0.0012 H       1  LIG1        0.0676
     33 O          -6.5806   -6.3592    0.0050 O.3     1  LIG1       -0.4929
     34 C          -7.7954   -5.6049    0.0056 C.3     1  LIG1        0.0789
     35 H          -8.6306   -6.2737    0.0068 H       1  LIG1        0.0660
     36 H          -7.8316   -4.9876    0.8789 H       1  LIG1        0.0660
     37 H          -7.8332   -4.9888   -0.8684 H       1  LIG1        0.0660
     38 C          -3.6983   -7.0784    0.0036 C.ar    1  LIG1        0.0701
     39 C          -4.2571   -8.3176    0.0039 C.ar    1  LIG1        0.0069
     40 C          -3.1870   -9.2693    0.0063 C.ar    1  LIG1        0.1379
     41 C          -2.0214   -8.5697    0.0055 C.ar    1  LIG1        0.0444
     42 N          -2.3298   -7.2280    0.0043 N.ar    1  LIG1       -0.3564
     43 H          -1.6693   -6.4852    0.0035 H       1  LIG1        0.1655
     44 H          -0.7891   -8.9837    0.0068 H       1  LIG1        0.0844
     45 H          -5.5292   -8.5856    0.0038 H       1  LIG1        0.0676
     46 O          -3.3045  -10.5640    0.0083 O.3     1  LIG1       -0.4936
     47 C          -4.6901  -10.9175    0.0089 C.3     1  LIG1        0.0789
     48 H          -4.7864  -11.9831    0.0104 H       1  LIG1        0.0660
     49 H          -5.1603  -10.5157    0.8822 H       1  LIG1        0.0660
     50 H          -5.1606  -10.5181   -0.8651 H       1  LIG1        0.0660
@<TRIPOS>BOND
     1    13    10    1
     2    25    22    1
     3    37    34    1
     4    50    47    1
     5     2     8    1
     6     2     1   ar
     7     2     3   ar
     8    19    18    1
     9    15    20    1
    10    15    14   ar
    11    15    16   ar
    12     4    14    1
    13     4     5   ar
    14     4     3   ar
    15     6     5    1
    16    14    18   ar
    17     5     1   ar
    18    18    17   ar
    19     1     7    1
    20     3     9    1
    21    17    16   ar
    22    17    26    1
    23    31    30    1
    24     9    10    1
    25    16    21    1
    26    10    11    1
    27    10    12    1
    28    26    27   ar
    29    26    30   ar
    30    32    27    1
    31    27    28   ar
    32    30    29   ar
    33    21    22    1
    34    29    28   ar
    35    29    38    1
    36    22    23    1
    37    22    24    1
    38    28    33    1
    39    43    42    1
    40    38    39   ar
    41    38    42   ar
    42    45    39    1
    43    39    40   ar
    44    42    41   ar
    45    33    34    1
    46    41    40   ar
    47    41    44    1
    48    34    35    1
    49    34    36    1
    50    40    46    1
    51    46    47    1
    52    47    48    1
    53    47    49    1
