@<TRIPOS>MOLECULE
mol_data/noopt/geoms/mol2/13al12ea-13el6li.out
 53 56 0 0 0
SMALL
GASTEIGER

@<TRIPOS>ATOM
      1 C           1.1215   -0.3259    0.0002 C.ar    1  LIG1        0.0058
      2 C           0.7176    0.9721   -0.0005 C.ar    1  LIG1       -0.0018
      3 C          -0.7144    0.9744    0.0003 C.ar    1  LIG1        0.1483
      4 C          -1.1226   -0.3223   -0.0003 C.ar    1  LIG1        0.1255
      5 N          -0.0018   -1.1217    0.0001 N.ar    1  LIG1       -0.3553
      6 H          -0.0034   -2.1157   -0.0003 H       1  LIG1        0.1655
      7 H           2.3167   -0.8373    0.0007 H       1  LIG1        0.0808
      8 H           1.4918    2.0164   -0.0003 H       1  LIG1        0.0669
      9 O          -1.4853    2.0212    0.0010 O.3     1  LIG1       -0.4929
     10 C          -0.6829    3.2049    0.0012 C.3     1  LIG1        0.0789
     11 H          -1.3178    4.0662    0.0016 H       1  LIG1        0.0660
     12 H          -0.0650    3.2168    0.8747 H       1  LIG1        0.0660
     13 H          -0.0654    3.2174   -0.8726 H       1  LIG1        0.0660
     14 C          -2.3194   -0.8299   -0.0001 C.ar    1  LIG1        0.1707
     15 C          -3.6025   -0.3232    0.0001 C.ar    1  LIG1        0.0726
     16 C          -4.4979   -1.4613    0.0002 C.ar    1  LIG1        0.0018
     17 C          -3.7022   -2.5884    0.0001 C.ar    1  LIG1        0.1544
     18 O          -2.3550   -2.2250   -0.0002 O.2     1  LIG1       -0.4505
     19 C          -3.9649    0.9252    0.0001 C.1     1  LIG1       -0.0658
     20 C          -4.2998    2.0788    0.0002 C.1     1  LIG1       -0.1138
     21 H          -4.5981    3.1064    0.0003 H       1  LIG1        0.1232
     22 H          -5.7966   -1.4035    0.0004 H       1  LIG1        0.0668
     23 C          -3.9132   -3.8712    0.0002 C.ar    1  LIG1        0.1018
     24 C          -5.0771   -4.5735   -0.0001 C.ar    1  LIG1        0.0951
     25 C          -4.7371   -5.9646    0.0013 C.ar    1  LIG1        0.1614
     26 C          -3.3805   -6.0512    0.0007 C.ar    1  LIG1        0.0956
     27 N          -2.8720   -4.7718    0.0004 N.ar    1  LIG1       -0.3477
     28 H          -1.9064   -4.5359   -0.0001 H       1  LIG1        0.1661
     29 C          -6.2761   -4.0713   -0.0000 C.1     1  LIG1       -0.0637
     30 C          -7.3840   -3.6072    0.0000 C.1     1  LIG1       -0.1137
     31 H          -8.3710   -3.1938    0.0001 H       1  LIG1        0.1232
     32 O          -5.5694   -6.9633    0.0026 O.3     1  LIG1       -0.4917
     33 C          -6.9105   -6.4670    0.0029 C.3     1  LIG1        0.0789
     34 H          -7.5952   -7.2892    0.0038 H       1  LIG1        0.0660
     35 H          -7.0695   -5.8696    0.8764 H       1  LIG1        0.0660
     36 H          -7.0704   -5.8706   -0.8709 H       1  LIG1        0.0660
     37 C          -1.2036   -6.9341    0.0018 C.ar    1  LIG1        0.2239
     38 C          -2.6016   -7.0920    0.0013 C.ar    1  LIG1        0.0637
     39 C          -3.1264   -8.3857    0.0018 C.ar    1  LIG1       -0.0430
     40 C          -2.2452   -9.4683    0.0026 C.ar    1  LIG1       -0.0315
     41 C          -0.8624   -9.2087    0.0028 C.ar    1  LIG1        0.0343
     42 N          -0.3390   -7.9672    0.0025 N.ar    1  LIG1       -0.2205
     43 H          -4.2135   -8.5485    0.0004 H       1  LIG1        0.0629
     44 H          -0.0023  -10.1834    0.0036 H       1  LIG1        0.0833
     45 O          -0.6675   -5.7497    0.0015 O.3     1  LIG1       -0.4792
     46 C           0.7573   -5.8707    0.0013 C.3     1  LIG1        0.0804
     47 H           1.1981   -4.8957    0.0008 H       1  LIG1        0.0660
     48 H           1.0702   -6.4032    0.8751 H       1  LIG1        0.0660
     49 H           1.0699   -6.4038   -0.8722 H       1  LIG1        0.0660
     50 C          -2.6841  -10.6923    0.0029 C.3     1  LIG1       -0.0383
     51 H          -1.9821  -11.3229    0.5074 H       1  LIG1        0.0278
     52 H          -2.8045  -11.0283   -1.0059 H       1  LIG1        0.0278
     53 H          -3.6269  -10.7330    0.5073 H       1  LIG1        0.0278
@<TRIPOS>BOND
     1    52    50    1
     2    13    10    1
     3    49    46    1
     4    36    33    1
     5     2     8    1
     6     2     1   ar
     7     2     3   ar
     8     4    14    1
     9     4     5   ar
    10     4     3   ar
    11     6     5    1
    12    18    14   ar
    13    18    17   ar
    14    28    27    1
    15    14    15   ar
    16    24    29    1
    17    24    23   ar
    18    24    25   ar
    19    29    30    3
    20    30    31    1
    21    15    19    1
    22    15    16   ar
    23     5     1   ar
    24    17    23    1
    25    17    16   ar
    26    19    20    3
    27    20    21    1
    28     1     7    1
    29    23    27   ar
    30    16    22    1
    31     3     9    1
    32    43    39    1
    33    27    26   ar
    34    26    38    1
    35    26    25   ar
    36    47    46    1
    37     9    10    1
    38    10    11    1
    39    10    12    1
    40    46    45    1
    41    46    48    1
    42    38    37   ar
    43    38    39   ar
    44    25    32    1
    45    45    37    1
    46    37    42   ar
    47    39    40   ar
    48    42    41   ar
    49    32    33    1
    50    40    41   ar
    51    40    50    1
    52    41    44    1
    53    50    53    1
    54    50    51    1
    55    33    34    1
    56    33    35    1
