@<TRIPOS>MOLECULE
mol_data/noopt/geoms/mol2/13al13al-13al-13al.out
 50 51 0 0 0
SMALL
GASTEIGER

@<TRIPOS>ATOM
      1 C           1.1215   -0.3259    0.0002 C.ar    1  LIG1        0.0058
      2 C           0.7176    0.9721   -0.0005 C.ar    1  LIG1       -0.0019
      3 C          -0.7144    0.9744    0.0003 C.ar    1  LIG1        0.1467
      4 C          -1.1226   -0.3223   -0.0003 C.ar    1  LIG1        0.1052
      5 N          -0.0018   -1.1217    0.0001 N.ar    1  LIG1       -0.3566
      6 H          -0.0034   -2.1157   -0.0003 H       1  LIG1        0.1655
      7 H           2.3167   -0.8373    0.0007 H       1  LIG1        0.0808
      8 H           1.4918    2.0164   -0.0003 H       1  LIG1        0.0669
      9 O          -1.4853    2.0212    0.0010 O.3     1  LIG1       -0.4929
     10 C          -0.6829    3.2049    0.0012 C.3     1  LIG1        0.0789
     11 H          -1.3178    4.0662    0.0016 H       1  LIG1        0.0660
     12 H          -0.0650    3.2168    0.8747 H       1  LIG1        0.0660
     13 H          -0.0654    3.2174   -0.8726 H       1  LIG1        0.0660
     14 C          -2.3194   -0.8299   -0.0001 C.ar    1  LIG1        0.0707
     15 C          -2.7274   -2.1266   -0.0005 C.ar    1  LIG1        0.0127
     16 C          -4.1594   -2.1244    0.0011 C.ar    1  LIG1        0.2061
     17 C          -4.5635   -0.8264    0.0006 C.ar    1  LIG1        0.1113
     18 N          -3.4402   -0.0305    0.0003 N.ar    1  LIG1       -0.3487
     19 H          -3.4386    0.9635   -0.0001 H       1  LIG1        0.1661
     20 H          -1.9565   -3.1734   -0.0006 H       1  LIG1        0.0678
     21 O          -4.9337   -3.1687    0.0023 O.3     1  LIG1       -0.2856
     22 C          -6.3008   -2.7494    0.0027 C.3     2  LIG2       -0.0776
     23 H          -6.9376   -3.6092    0.0035 H       1  LIG1        0.0194
     24 H          -6.4935   -2.1620    0.8761 H       1  LIG1        0.0194
     25 H          -6.4943   -2.1631   -0.8712 H       1  LIG1        0.0194
     26 C          -5.7587   -0.3150    0.0014 C.ar    1  LIG1        0.0789
     27 C          -6.9765   -0.9191    0.0015 C.ar    1  LIG1        0.0621
     28 C          -7.9670    0.1151    0.0037 C.ar    1  LIG1        0.2140
     29 C          -7.3109    1.3057    0.0031 C.ar    1  LIG1        0.1134
     30 N          -5.9587    1.0470    0.0022 N.ar    1  LIG1       -0.3482
     31 H          -5.2408    1.7345    0.0016 H       1  LIG1        0.1661
     32 H          -7.1973   -2.2002    0.0012 H       1  LIG1        0.0194
     33 O          -9.2565   -0.0501    0.0054 O.3     1  LIG1       -0.2849
     34 C          -9.9012    1.2263    0.0060 C.3     3  LIG3       -0.0776
     35 H         -10.9624    1.0899    0.0073 H       2  LIG2        0.0194
     36 H          -9.6107    1.7723    0.8793 H       2  LIG2        0.0194
     37 H          -9.6128    1.7720   -0.8680 H       2  LIG2        0.0194
     38 C          -7.7701    2.5219    0.0044 C.ar    1  LIG1        0.0945
     39 C          -7.1139    3.7125    0.0049 C.ar    1  LIG1        0.0091
     40 C          -8.1043    4.7467    0.0074 C.ar    1  LIG1        0.1402
     41 C          -9.3222    4.1427    0.0066 C.ar    1  LIG1        0.0700
     42 N          -9.1222    2.7807    0.0052 N.ar    1  LIG1       -0.2496
     43 H          -9.8401    2.0932    0.0043 H       2  LIG2        0.0194
     44 H         -10.5174    4.6541    0.0080 H       1  LIG1        0.0867
     45 H          -5.8244    3.8776    0.0047 H       1  LIG1        0.0677
     46 O          -7.8835    6.0279    0.0096 O.3     1  LIG1       -0.4935
     47 C          -6.4740    6.2692    0.0103 C.3     1  LIG1        0.0789
     48 H          -6.2927    7.3238    0.0120 H       1  LIG1        0.0660
     49 H          -6.0375    5.8310    0.8835 H       1  LIG1        0.0660
     50 H          -6.0371    5.8336   -0.8638 H       1  LIG1        0.0660
@<TRIPOS>BOND
     1    13    10    1
     2    25    22    1
     3    37    34    1
     4    50    47    1
     5    20    15    1
     6     2     8    1
     7     2     1   ar
     8     2     3   ar
     9    15    14   ar
    10    15    16   ar
    11     4    14    1
    12     4     5   ar
    13     4     3   ar
    14     6     5    1
    15    19    18    1
    16    14    18   ar
    17     5     1   ar
    18     1     7    1
    19     3     9    1
    20    18    17   ar
    21    17    16   ar
    22    17    26    1
    23     9    10    1
    24    16    21    1
    25    10    11    1
    26    10    12    1
    27    32    22    1
    28    26    27   ar
    29    26    30   ar
    30    27    28   ar
    31    31    30    1
    32    30    29   ar
    33    22    23    1
    34    22    24    1
    35    29    28   ar
    36    29    38    1
    37    28    33    1
    38    43    34    1
    39    38    39   ar
    40    38    42   ar
    41    45    39    1
    42    39    40   ar
    43    42    41   ar
    44    34    35    1
    45    34    36    1
    46    41    40   ar
    47    41    44    1
    48    40    46    1
    49    46    47    1
    50    47    48    1
    51    47    49    1
