@<TRIPOS>MOLECULE
mol_data/noopt/geoms/mol2/13da13ih(100)4he(100)4ff(280).out
 50 53 0 0 0
SMALL
GASTEIGER

@<TRIPOS>ATOM
      1 C           1.1215   -0.3259    0.0002 C.ar    1  LIG1        0.0197
      2 C           0.7176    0.9721   -0.0005 C.ar    1  LIG1        0.0696
      3 C          -0.7144    0.9744    0.0003 C.ar    1  LIG1       -0.0176
      4 C          -1.1226   -0.3223   -0.0003 C.ar    1  LIG1        0.0645
      5 N          -0.0018   -1.1217    0.0001 N.ar    1  LIG1       -0.3583
      6 H          -0.0034   -2.1157   -0.0003 H       1  LIG1        0.1654
      7 H           2.3167   -0.8373    0.0007 H       1  LIG1        0.0820
      8 N           2.1747    2.9375   -0.0001 N.1     1  LIG1       -0.1908
      9 C           1.4918    2.0164   -0.0003 C.1     1  LIG1        0.1007
     10 H          -1.4853    2.0212    0.0010 H       1  LIG1        0.0652
     11 C          -2.3194   -0.8299   -0.0001 C.ar    1  LIG1        0.0681
     12 C          -3.0554   -1.3530    1.0161 C.ar    1  LIG1       -0.0025
     13 C          -4.3090   -1.7715    0.4649 C.ar    1  LIG1        0.0538
     14 C          -4.2847   -1.4841   -0.8636 C.ar    1  LIG1        0.0700
     15 N          -3.0682   -0.9080   -1.1526 N.ar    1  LIG1       -0.3513
     16 H          -2.7771   -0.5971   -2.0507 H       1  LIG1        0.1660
     17 C          -2.6851   -1.4545    2.2585 C.3     1  LIG1       -0.0359
     18 H          -2.8175   -0.5123    2.7482 H       1  LIG1        0.0279
     19 H          -1.6539   -1.7370    2.3014 H       1  LIG1        0.0279
     20 H          -3.2792   -2.1975    2.7481 H       1  LIG1        0.0279
     21 N          -5.2917   -2.3241    1.1122 N.pl3   1  LIG1       -0.3561
     22 H          -6.1485   -1.8691    0.8694 H       1  LIG1        0.1424
     23 H          -5.3480   -3.2925    0.8694 H       1  LIG1        0.1424
     24 C          -6.4578   -2.1614   -1.4320 C.ar    1  LIG1        0.0345
     25 C          -7.3946   -2.3516   -2.4662 C.ar    1  LIG1       -0.0314
     26 C          -5.1826   -1.6740   -1.7843 C.ar    1  LIG1        0.0219
     27 C          -7.0781   -2.0690   -3.7930 C.ar    1  LIG1        0.0029
     28 H          -8.3844   -2.7271   -2.2165 H       1  LIG1        0.0643
     29 C          -4.8661   -1.3917   -3.1088 C.ar    1  LIG1       -0.0348
     30 C          -5.8106   -1.5868   -4.1219 C.ar    1  LIG1        0.0332
     31 H          -3.8759   -1.0169   -3.3550 H       1  LIG1        0.0637
     32 N          -6.8116   -2.4426   -0.2131 N.pl3   1  LIG1       -0.3574
     33 H          -7.7563   -2.1505   -0.0645 H       1  LIG1        0.1423
     34 H          -6.7404   -3.4289   -0.0644 H       1  LIG1        0.1423
     35 C          -5.5091   -1.3214   -5.3583 C.1     1  LIG1       -0.0690
     36 C          -5.2305   -1.0761   -6.5007 C.1     1  LIG1       -0.1139
     37 H          -4.9823   -0.8576   -7.5183 H       1  LIG1        0.1232
     38 C          -7.6495   -1.9715   -6.0664 C.ar    1  LIG1        0.1248
     39 C          -8.6477   -2.1896   -7.0356 C.ar    1  LIG1       -0.0161
     40 C          -7.9674   -2.2561   -4.7226 C.ar    1  LIG1        0.0282
     41 C          -9.9072   -2.6703   -6.6847 C.ar    1  LIG1       -0.0167
     42 H          -8.4236   -1.9763   -8.0784 H       1  LIG1        0.0655
     43 C          -9.2246   -2.7360   -4.3718 C.ar    1  LIG1       -0.0089
     44 C         -10.2028   -2.9465   -5.3492 C.ar    1  LIG1        0.1177
     45 H          -9.4455   -2.9479   -3.3287 H       1  LIG1        0.0661
     46 H         -10.8051   -2.8602   -7.6054 H       1  LIG1        0.0655
     47 O          -6.4932   -1.5219   -6.4549 O.3     1  LIG1       -0.5062
     48 H          -6.5362   -0.5676   -6.5507 H       1  LIG1        0.2922
     49 O         -11.3764   -3.3952   -5.0153 O.3     1  LIG1       -0.5067
     50 H         -11.3425   -4.3510   -4.9330 H       1  LIG1        0.2921
@<TRIPOS>BOND
     1    42    39    1
     2    46    41    1
     3    37    36    1
     4    39    41   ar
     5    39    38   ar
     6    41    44   ar
     7    48    47    1
     8    36    35    3
     9    47    38    1
    10    38    40   ar
    11    35    30    1
    12    44    49    1
    13    44    43   ar
    14    49    50    1
    15    40    43   ar
    16    40    27    1
    17    43    45    1
    18    30    27   ar
    19    30    29   ar
    20    27    25   ar
    21    31    29    1
    22    29    26   ar
    23    25    28    1
    24    25    24   ar
    25    16    15    1
    26    26    24   ar
    27    26    14    1
    28    24    32    1
    29    15    14   ar
    30    15    11   ar
    31    14    13   ar
    32    32    33    1
    33    32    34    1
    34     2     9    1
    35     2     1   ar
    36     2     3   ar
    37     4    11    1
    38     4     5   ar
    39     4     3   ar
    40     6     5    1
    41     9     8    3
    42    11    12   ar
    43     5     1   ar
    44     1     7    1
    45     3    10    1
    46    13    12   ar
    47    13    21    1
    48    23    21    1
    49    22    21    1
    50    12    17    1
    51    17    19    1
    52    17    20    1
    53    17    18    1
