@<TRIPOS>MOLECULE
mol_data/noopt/geoms/mol2/13da4ei12ad13lf-.out
 47 50 0 0 0
SMALL
GASTEIGER

@<TRIPOS>ATOM
      1 C           1.1215   -0.3259    0.0002 C.ar    1  LIG1        0.0196
      2 C           0.7176    0.9721   -0.0005 C.ar    1  LIG1        0.0696
      3 C          -0.7144    0.9744    0.0003 C.ar    1  LIG1       -0.0190
      4 C          -1.1226   -0.3223   -0.0003 C.ar    1  LIG1        0.0489
      5 N          -0.0018   -1.1217    0.0001 N.ar    1  LIG1       -0.3594
      6 H          -0.0034   -2.1157   -0.0003 H       1  LIG1        0.1654
      7 H           2.3167   -0.8373    0.0007 H       1  LIG1        0.0820
      8 N           2.1747    2.9375   -0.0001 N.1     1  LIG1       -0.1908
      9 C           1.4918    2.0164   -0.0003 C.1     1  LIG1        0.1007
     10 H          -1.4853    2.0212    0.0010 H       1  LIG1        0.0652
     11 C          -3.4434    0.0212    0.0008 C.ar    1  LIG1        0.0345
     12 C          -4.7180   -0.5776    0.0025 C.ar    1  LIG1       -0.0348
     13 C          -2.3194   -0.8299   -0.0001 C.ar    1  LIG1        0.0140
     14 C          -4.8692   -1.9625    0.0027 C.ar    1  LIG1        0.0214
     15 H          -5.5988    0.0606    0.0034 H       1  LIG1        0.0637
     16 C          -2.4697   -2.2124    0.0001 C.ar    1  LIG1       -0.0479
     17 C          -3.7444   -2.7884    0.0015 C.ar    1  LIG1       -0.0391
     18 H          -1.5874   -2.8474   -0.0005 H       1  LIG1        0.0627
     19 C          -3.3661    1.3189    0.0004 C.1     1  LIG1       -0.0690
     20 C          -3.2947    2.5180   -0.0000 C.1     1  LIG1       -0.1139
     21 H          -3.2312    3.5861   -0.0004 H       1  LIG1        0.1232
     22 C          -3.8788   -4.0817    0.0018 C.3     1  LIG1       -0.0390
     23 H          -3.0467   -4.5266    0.5064 H       1  LIG1        0.0278
     24 H          -3.9157   -4.4368   -1.0069 H       1  LIG1        0.0278
     25 H          -4.7847   -4.3460    0.5063 H       1  LIG1        0.0278
     26 C          -6.0610   -2.4816    0.0042 C.ar    1  LIG1        0.1364
     27 C          -7.3488   -1.9875    0.0202 C.ar    1  LIG1       -0.0100
     28 C          -8.2332   -3.1341    0.0109 C.ar    1  LIG1        0.0262
     29 C          -7.4267   -4.2534   -0.0101 C.ar    1  LIG1        0.1606
     30 O          -6.0831   -3.8769   -0.0147 O.2     1  LIG1       -0.4529
     31 H          -7.7233   -0.7428    0.0398 H       1  LIG1        0.0659
     32 N         -10.6783   -3.0492    0.0296 N.3     1  LIG1       -0.2406
     33 C          -9.5324   -3.0890    0.0209 C.3     1  LIG1        0.1129
     34 C          -7.6253   -5.5380   -0.0261 C.ar    1  LIG1        0.1284
     35 C          -8.7823   -6.2517   -0.0207 C.ar    1  LIG1        0.1901
     36 C          -8.4290   -7.6392   -0.0446 C.ar    1  LIG1        0.1770
     37 C          -7.0717   -7.7124   -0.0653 C.ar    1  LIG1        0.0480
     38 N          -6.5756   -6.4283   -0.0536 N.ar    1  LIG1       -0.3522
     39 H          -5.6125   -6.1829   -0.0641 H       1  LIG1        0.1656
     40 H          -6.2829   -8.7455   -0.0909 H       1  LIG1        0.0845
     41 O          -9.9860   -5.7613    0.0034 O.3     1  LIG1       -0.4828
     42 C          -9.9194   -4.3329    0.0122 C.3     1  LIG1        0.1238
     43 H         -10.9103   -3.9297    0.0318 H       1  LIG1        0.1417
     44 H          -9.3841   -4.0061    0.8792 H       1  LIG1        0.0731
     45 H          -9.4138   -3.9940   -0.8678 H       1  LIG1        0.0731
     46 O          -9.2515   -8.6460   -0.0467 O.3     1  LIG1       -0.5023
     47 H          -8.7535   -9.4667   -0.0472 H       1  LIG1        0.2923
@<TRIPOS>BOND
     1    24    22    1
     2    45    42    1
     3    40    37    1
     4    37    38   ar
     5    37    36   ar
     6    39    38    1
     7    38    34   ar
     8    47    46    1
     9    46    36    1
    10    36    35   ar
    11    34    35   ar
    12    34    29    1
    13    35    41    1
    14    30    29   ar
    15    30    26   ar
    16    29    28   ar
    17     2     9    1
    18     2     1   ar
    19     2     3   ar
    20    18    16    1
    21    21    20    1
    22     6     5    1
    23     4    13    1
    24     4     5   ar
    25     4     3   ar
    26     9     8    3
    27    13    16   ar
    28    13    11   ar
    29    20    19    3
    30     5     1   ar
    31    16    17   ar
    32     1     7    1
    33     3    10    1
    34    19    11    1
    35    11    12   ar
    36    17    22    1
    37    17    14   ar
    38    22    25    1
    39    22    23    1
    40    12    14   ar
    41    12    15    1
    42    14    26    1
    43    41    42    1
    44    26    27   ar
    45    28    27   ar
    46    28    33    1
    47    42    44    1
    48    27    31    1
    49    33    32    1
    50    32    43    1
