@<TRIPOS>MOLECULE
mol_data/noopt/geoms/mol2/13da13da-13da13da-.out
 38 41 0 0 0
SMALL
GASTEIGER

@<TRIPOS>ATOM
      1 C           1.1215   -0.3259    0.0002 C.ar    1  LIG1        0.0197
      2 C           0.7176    0.9721   -0.0005 C.ar    1  LIG1        0.0696
      3 C          -0.7144    0.9744    0.0003 C.ar    1  LIG1       -0.0175
      4 C          -1.1226   -0.3223   -0.0003 C.ar    1  LIG1        0.0654
      5 N          -0.0018   -1.1217    0.0001 N.ar    1  LIG1       -0.3583
      6 H          -0.0034   -2.1157   -0.0003 H       1  LIG1        0.1654
      7 H           2.3167   -0.8373    0.0007 H       1  LIG1        0.0820
      8 N           2.1747    2.9375   -0.0001 N.1     1  LIG1       -0.1908
      9 C           1.4918    2.0164   -0.0003 C.1     1  LIG1        0.1007
     10 H          -1.4853    2.0212    0.0010 H       1  LIG1        0.0652
     11 C          -2.3194   -0.8299   -0.0001 C.ar    1  LIG1        0.0810
     12 C          -2.7274   -2.1266   -0.0005 C.ar    1  LIG1        0.0790
     13 C          -4.1594   -2.1244    0.0011 C.ar    1  LIG1       -0.0169
     14 C          -4.5635   -0.8264    0.0006 C.ar    1  LIG1        0.0659
     15 N          -3.4402   -0.0305    0.0003 N.ar    1  LIG1       -0.3508
     16 H          -3.4386    0.9635   -0.0001 H       1  LIG1        0.1660
     17 N          -1.2766   -4.0966   -0.0007 N.1     1  LIG1       -0.1908
     18 C          -1.9565   -3.1734   -0.0006 C.1     1  LIG1        0.1013
     19 H          -4.9336   -3.1687    0.0023 H       1  LIG1        0.0652
     20 C          -5.7587   -0.3150    0.0014 C.ar    1  LIG1        0.0810
     21 C          -6.1626    0.9830    0.0016 C.ar    1  LIG1        0.0790
     22 C          -7.5946    0.9853    0.0038 C.ar    1  LIG1       -0.0169
     23 C          -8.0028   -0.3114    0.0030 C.ar    1  LIG1        0.0659
     24 N          -6.8820   -1.1108    0.0021 N.ar    1  LIG1       -0.3508
     25 H          -6.8836   -2.1048    0.0013 H       1  LIG1        0.1660
     26 N          -4.7055    2.9484    0.0014 N.1     1  LIG1       -0.1908
     27 C          -5.3884    2.0273    0.0015 C.1     1  LIG1        0.1013
     28 H          -8.3655    2.0321    0.0056 H       1  LIG1        0.0652
     29 C          -9.1996   -0.8190    0.0041 C.ar    1  LIG1        0.0805
     30 C          -9.6076   -2.1157    0.0044 C.ar    1  LIG1        0.0784
     31 C         -11.0396   -2.1135    0.0069 C.ar    1  LIG1       -0.0263
     32 C         -11.4437   -0.8155    0.0063 C.ar    1  LIG1        0.0035
     33 N         -10.3204   -0.0196    0.0051 N.ar    1  LIG1       -0.3585
     34 H         -10.3188    0.9744    0.0043 H       1  LIG1        0.1654
     35 H         -12.6389   -0.3041    0.0077 H       1  LIG1        0.0807
     36 N          -8.1568   -4.0857    0.0037 N.1     1  LIG1       -0.1908
     37 C          -8.8367   -3.1625    0.0040 C.1     1  LIG1        0.1013
     38 H         -11.8138   -3.1578    0.0089 H       1  LIG1        0.0645
@<TRIPOS>BOND
     1    17    18    3
     2    18    12    1
     3     2     9    1
     4     2     1   ar
     5     2     3   ar
     6    12    11   ar
     7    12    13   ar
     8     9     8    3
     9     6     5    1
    10     4    11    1
    11     4     5   ar
    12     4     3   ar
    13    16    15    1
    14    11    15   ar
    15     5     1   ar
    16     1     7    1
    17     3    10    1
    18    15    14   ar
    19    14    13   ar
    20    14    20    1
    21    13    19    1
    22    25    24    1
    23    26    27    3
    24    20    21   ar
    25    20    24   ar
    26    27    21    1
    27    21    22   ar
    28    24    23   ar
    29    23    22   ar
    30    23    29    1
    31    36    37    3
    32    22    28    1
    33    37    30    1
    34    29    30   ar
    35    29    33   ar
    36    34    33    1
    37    30    31   ar
    38    33    32   ar
    39    32    31   ar
    40    32    35    1
    41    31    38    1
