@<TRIPOS>MOLECULE
mol_data/noopt/geoms/mol2/13da13da-4da13da.out
 40 43 0 0 0
SMALL
GASTEIGER

@<TRIPOS>ATOM
      1 C           1.1215   -0.3259    0.0002 C.ar    1  LIG1        0.0197
      2 C           0.7176    0.9721   -0.0005 C.ar    1  LIG1        0.0696
      3 C          -0.7144    0.9744    0.0003 C.ar    1  LIG1       -0.0175
      4 C          -1.1226   -0.3223   -0.0003 C.ar    1  LIG1        0.0654
      5 N          -0.0018   -1.1217    0.0001 N.ar    1  LIG1       -0.3583
      6 H          -0.0034   -2.1157   -0.0003 H       1  LIG1        0.1654
      7 H           2.3167   -0.8373    0.0007 H       1  LIG1        0.0820
      8 N           2.1747    2.9375   -0.0001 N.1     1  LIG1       -0.1908
      9 C           1.4918    2.0164   -0.0003 C.1     1  LIG1        0.1007
     10 H          -1.4853    2.0212    0.0010 H       1  LIG1        0.0652
     11 C          -2.3194   -0.8299   -0.0001 C.ar    1  LIG1        0.0809
     12 C          -2.7274   -2.1266   -0.0005 C.ar    1  LIG1        0.0790
     13 C          -4.1594   -2.1244    0.0011 C.ar    1  LIG1       -0.0183
     14 C          -4.5635   -0.8264    0.0006 C.ar    1  LIG1        0.0494
     15 N          -3.4402   -0.0305    0.0003 N.ar    1  LIG1       -0.3520
     16 H          -3.4386    0.9635   -0.0001 H       1  LIG1        0.1660
     17 N          -1.2766   -4.0966   -0.0007 N.1     1  LIG1       -0.1908
     18 C          -1.9565   -3.1734   -0.0006 C.1     1  LIG1        0.1013
     19 H          -4.9336   -3.1687    0.0023 H       1  LIG1        0.0652
     20 C          -5.9236    1.0852    0.0026 C.ar    1  LIG1        0.0615
     21 C          -7.2385    1.5895    0.0050 C.ar    1  LIG1       -0.0346
     22 C          -5.7587   -0.3150    0.0014 C.ar    1  LIG1        0.0157
     23 C          -8.3419    0.7391    0.0056 C.ar    1  LIG1        0.0008
     24 H          -7.3885    2.6668    0.0062 H       1  LIG1        0.0637
     25 C          -6.8598   -1.1644    0.0020 C.ar    1  LIG1       -0.0508
     26 C          -8.1582   -0.6442    0.0040 C.ar    1  LIG1       -0.0519
     27 H          -6.7065   -2.2406    0.0011 H       1  LIG1        0.0625
     28 N          -4.0617    2.6724    0.0014 N.1     1  LIG1       -0.1908
     29 C          -4.9343    1.9285    0.0020 C.1     1  LIG1        0.0998
     30 H          -9.1838   -1.4431    0.0046 H       1  LIG1        0.0624
     31 C          -9.5420    1.2389    0.0077 C.ar    1  LIG1        0.0641
     32 C          -9.9585    2.5329    0.0088 C.ar    1  LIG1        0.0769
     33 C         -11.3904    2.5213    0.0122 C.ar    1  LIG1       -0.0264
     34 C         -11.7860    1.2207    0.0113 C.ar    1  LIG1        0.0034
     35 N         -10.6575    0.4322    0.0090 N.ar    1  LIG1       -0.3596
     36 H         -10.6495   -0.5617    0.0079 H       1  LIG1        0.1654
     37 H         -12.9778    0.7015    0.0134 H       1  LIG1        0.0807
     38 N          -8.5205    4.5124    0.0080 N.1     1  LIG1       -0.1908
     39 C          -9.1944    3.5847    0.0084 C.1     1  LIG1        0.1013
     40 H         -12.1714    3.5606    0.0152 H       1  LIG1        0.0645
@<TRIPOS>BOND
     1    17    18    3
     2    18    12    1
     3     2     9    1
     4     2     1   ar
     5     2     3   ar
     6    12    11   ar
     7    12    13   ar
     8     4    11    1
     9     4     5   ar
    10     4     3   ar
    11     6     5    1
    12     9     8    3
    13    16    15    1
    14    11    15   ar
    15     5     1   ar
    16     1     7    1
    17     3    10    1
    18    15    14   ar
    19    14    13   ar
    20    14    22    1
    21    13    19    1
    22    27    25    1
    23    28    29    3
    24    22    25   ar
    25    22    20   ar
    26    29    20    1
    27    25    26   ar
    28    20    21   ar
    29    26    30    1
    30    26    23   ar
    31    21    23   ar
    32    21    24    1
    33    23    31    1
    34    31    32   ar
    35    31    35   ar
    36    36    35    1
    37    38    39    3
    38    39    32    1
    39    32    33   ar
    40    35    34   ar
    41    34    33   ar
    42    34    37    1
    43    33    40    1
