@<TRIPOS>MOLECULE
mol_data/noopt/geoms/mol2/13da13da13da-13da-.out
 38 41 0 0 0
SMALL
GASTEIGER

@<TRIPOS>ATOM
      1 C           1.1215   -0.3259    0.0002 C.ar    1  LIG1        0.0197
      2 C           0.7176    0.9721   -0.0005 C.ar    1  LIG1        0.0696
      3 C          -0.7144    0.9744    0.0003 C.ar    1  LIG1       -0.0175
      4 C          -1.1226   -0.3223   -0.0003 C.ar    1  LIG1        0.0654
      5 N          -0.0018   -1.1217    0.0001 N.ar    1  LIG1       -0.3583
      6 H          -0.0034   -2.1157   -0.0003 H       1  LIG1        0.1654
      7 H           2.3167   -0.8373    0.0007 H       1  LIG1        0.0820
      8 N           2.1747    2.9375   -0.0001 N.1     1  LIG1       -0.1908
      9 C           1.4918    2.0164   -0.0003 C.1     1  LIG1        0.1007
     10 H          -1.4853    2.0212    0.0010 H       1  LIG1        0.0652
     11 C          -2.3194   -0.8299   -0.0001 C.ar    1  LIG1        0.0810
     12 C          -3.5353   -0.2219   -0.0003 C.ar    1  LIG1        0.0790
     13 C          -4.5290   -1.2530    0.0012 C.ar    1  LIG1       -0.0169
     14 C          -3.8767   -2.4457    0.0005 C.ar    1  LIG1        0.0659
     15 N          -2.5238   -2.1913    0.0002 N.ar    1  LIG1       -0.3508
     16 H          -1.8081   -2.8811   -0.0004 H       1  LIG1        0.1660
     17 N          -3.9431    2.1904   -0.0003 N.1     1  LIG1       -0.1908
     18 C          -3.7520    1.0599   -0.0003 C.1     1  LIG1        0.1013
     19 H          -5.8179   -1.0837    0.0025 H       1  LIG1        0.0652
     20 C          -4.3398   -3.6604    0.0012 C.ar    1  LIG1        0.0810
     21 C          -3.6874   -4.8530    0.0012 C.ar    1  LIG1        0.0790
     22 C          -4.6811   -5.8841    0.0032 C.ar    1  LIG1       -0.0169
     23 C          -5.8970   -5.2763    0.0027 C.ar    1  LIG1        0.0659
     24 N          -5.6927   -3.9149    0.0019 N.ar    1  LIG1       -0.3508
     25 H          -6.4084   -3.2251    0.0013 H       1  LIG1        0.1660
     26 N          -1.2616   -5.1716    0.0007 N.1     1  LIG1       -0.1908
     27 C          -2.3984   -5.0223    0.0009 C.1     1  LIG1        0.1013
     28 H          -4.4643   -7.1660    0.0049 H       1  LIG1        0.0652
     29 C          -7.0939   -5.7839    0.0038 C.ar    1  LIG1        0.0805
     30 C          -7.5019   -7.0806    0.0041 C.ar    1  LIG1        0.0784
     31 C          -8.9339   -7.0784    0.0067 C.ar    1  LIG1       -0.0263
     32 C          -9.3380   -5.7804    0.0061 C.ar    1  LIG1        0.0035
     33 N          -8.2146   -4.9846    0.0048 N.ar    1  LIG1       -0.3585
     34 H          -8.2131   -3.9906    0.0040 H       1  LIG1        0.1654
     35 H         -10.5331   -5.2690    0.0075 H       1  LIG1        0.0807
     36 N          -6.0510   -9.0506    0.0035 N.1     1  LIG1       -0.1908
     37 C          -6.7310   -8.1274    0.0038 C.1     1  LIG1        0.1013
     38 H          -9.7081   -8.1227    0.0087 H       1  LIG1        0.0645
@<TRIPOS>BOND
     1     2     9    1
     2     2     1   ar
     3     2     3   ar
     4    16    15    1
     5    12    18    1
     6    12    11   ar
     7    12    13   ar
     8     4    11    1
     9     4     5   ar
    10     4     3   ar
    11     6     5    1
    12     9     8    3
    13    18    17    3
    14    11    15   ar
    15     5     1   ar
    16    15    14   ar
    17     1     7    1
    18     3    10    1
    19    14    13   ar
    20    14    20    1
    21    26    27    3
    22    27    21    1
    23    21    20   ar
    24    21    22   ar
    25    13    19    1
    26    20    24   ar
    27    25    24    1
    28    24    23   ar
    29    23    22   ar
    30    23    29    1
    31    22    28    1
    32    36    37    3
    33    37    30    1
    34    29    30   ar
    35    29    33   ar
    36    34    33    1
    37    30    31   ar
    38    33    32   ar
    39    32    31   ar
    40    32    35    1
    41    31    38    1
