@<TRIPOS>MOLECULE
mol_data/noopt/geoms/mol2/13da13da6he13dd.out
 43 47 0 0 0
SMALL
GASTEIGER

@<TRIPOS>ATOM
      1 C           1.1215   -0.3259    0.0002 C.ar    1  LIG1        0.0197
      2 C           0.7176    0.9721   -0.0005 C.ar    1  LIG1        0.0696
      3 C          -0.7144    0.9744    0.0003 C.ar    1  LIG1       -0.0175
      4 C          -1.1226   -0.3223   -0.0003 C.ar    1  LIG1        0.0654
      5 N          -0.0018   -1.1217    0.0001 N.ar    1  LIG1       -0.3583
      6 H          -0.0034   -2.1157   -0.0003 H       1  LIG1        0.1654
      7 H           2.3167   -0.8373    0.0007 H       1  LIG1        0.0820
      8 N           2.1747    2.9375   -0.0001 N.1     1  LIG1       -0.1908
      9 C           1.4918    2.0164   -0.0003 C.1     1  LIG1        0.1007
     10 H          -1.4853    2.0212    0.0010 H       1  LIG1        0.0652
     11 C          -2.3194   -0.8299   -0.0001 C.ar    1  LIG1        0.0809
     12 C          -3.5352   -0.2220    0.0163 C.ar    1  LIG1        0.0790
     13 C          -4.5290   -1.2531    0.0088 C.ar    1  LIG1       -0.0185
     14 C          -3.8768   -2.4456   -0.0136 C.ar    1  LIG1        0.0480
     15 N          -2.5238   -2.1911   -0.0187 N.ar    1  LIG1       -0.3521
     16 H          -1.8082   -2.8808   -0.0339 H       1  LIG1        0.1660
     17 N          -3.9430    2.1900    0.0546 N.1     1  LIG1       -0.1908
     18 C          -3.7519    1.0596    0.0366 C.1     1  LIG1        0.1013
     19 H          -5.8179   -1.0839    0.0207 H       1  LIG1        0.0652
     20 C          -3.4590   -4.7572   -0.0357 C.3     1  LIG1        0.1801
     21 C          -4.3399   -3.6602   -0.0280 C.2     1  LIG1        0.0226
     22 C          -5.7137   -3.9084   -0.0358 C.2     1  LIG1       -0.0359
     23 C          -6.1574   -5.2318   -0.0511 C.2     1  LIG1        0.0458
     24 C          -5.1987   -6.2615   -0.0580 C.2     1  LIG1        0.0995
     25 N          -3.8697   -6.0401   -0.0504 N.2     1  LIG1       -0.2497
     26 H          -6.4325   -3.0768   -0.0311 H       1  LIG1        0.0635
     27 N          -2.1715   -4.5770   -0.0288 N.3     1  LIG1       -0.2998
     28 H          -1.7258   -5.3390   -0.4984 H       1  LIG1        0.1208
     29 H          -1.9521   -3.7218   -0.4985 H       1  LIG1        0.1208
     30 C          -7.4261   -5.5152   -0.0590 C.1     1  LIG1       -0.0931
     31 C          -8.5984   -5.7771   -0.0664 C.2     1  LIG1        0.0551
     32 H          -9.6427   -6.0103   -0.0729 H       1  LIG1        0.0888
     33 C          -5.5625   -7.5095   -0.0721 C.ar    1  LIG1        0.0726
     34 C          -6.8024   -8.0666   -0.0821 C.ar    1  LIG1        0.0268
     35 C          -6.6323   -9.4885   -0.0951 C.ar    1  LIG1        0.0751
     36 C          -5.2959   -9.7376   -0.0942 C.ar    1  LIG1        0.0200
     37 N          -4.6372   -8.5288   -0.0798 N.ar    1  LIG1       -0.3580
     38 H          -3.6503   -8.4107   -0.0761 H       1  LIG1        0.1654
     39 H          -4.6479  -10.8645   -0.1035 H       1  LIG1        0.0820
     40 N          -8.9289   -6.8568   -0.0757 N.pl3   1  LIG1       -0.2335
     41 C          -7.9323   -7.4238   -0.0787 C.3     1  LIG1        0.1407
     42 N          -8.4133  -11.1657   -0.1158 N.1     1  LIG1       -0.1908
     43 C          -7.5786  -10.3797   -0.1061 C.1     1  LIG1        0.1010
@<TRIPOS>BOND
     1    29    27    1
     2    28    27    1
     3    42    43    3
     4    43    35    1
     5    39    36    1
     6    35    36   ar
     7    35    34   ar
     8    36    37   ar
     9    34    41    1
    10    34    33   ar
    11    37    38    1
    12    37    33   ar
    13    41    40    1
    14    40    31    1
    15    32    31    1
    16    33    24    1
    17    31    30    2
    18    30    23    2
    19    24    23    1
    20    24    25    2
    21    23    22    1
    22    25    20    1
    23    22    26    1
    24    22    21    2
    25    20    27    1
    26    20    21    1
    27    16    15    1
    28    21    14    1
    29    15    14   ar
    30    15    11   ar
    31    14    13   ar
    32     2     9    1
    33     2     1   ar
    34     2     3   ar
    35     9     8    3
    36     6     5    1
    37     4    11    1
    38     4     5   ar
    39     4     3   ar
    40    11    12   ar
    41     5     1   ar
    42     1     7    1
    43     3    10    1
    44    13    12   ar
    45    13    19    1
    46    12    18    1
    47    18    17    3
