@<TRIPOS>MOLECULE
mol_data/noopt/geoms/mol2/13da13da-13da.out
 29 31 0 0 0
SMALL
GASTEIGER

@<TRIPOS>ATOM
      1 C           1.1215   -0.3259    0.0002 C.ar    1  LIG1        0.0197
      2 C           0.7176    0.9721   -0.0005 C.ar    1  LIG1        0.0696
      3 C          -0.7144    0.9744    0.0003 C.ar    1  LIG1       -0.0175
      4 C          -1.1226   -0.3223   -0.0003 C.ar    1  LIG1        0.0654
      5 N          -0.0018   -1.1217    0.0001 N.ar    1  LIG1       -0.3583
      6 H          -0.0034   -2.1157   -0.0003 H       1  LIG1        0.1654
      7 H           2.3167   -0.8373    0.0007 H       1  LIG1        0.0820
      8 N           2.1747    2.9375   -0.0001 N.1     1  LIG1       -0.1908
      9 C           1.4918    2.0164   -0.0003 C.1     1  LIG1        0.1007
     10 H          -1.4853    2.0212    0.0010 H       1  LIG1        0.0652
     11 C          -2.3194   -0.8299   -0.0001 C.ar    1  LIG1        0.0810
     12 C          -2.7274   -2.1266   -0.0005 C.ar    1  LIG1        0.0790
     13 C          -4.1594   -2.1244    0.0011 C.ar    1  LIG1       -0.0169
     14 C          -4.5635   -0.8264    0.0006 C.ar    1  LIG1        0.0659
     15 N          -3.4402   -0.0305    0.0003 N.ar    1  LIG1       -0.3508
     16 H          -3.4386    0.9635   -0.0001 H       1  LIG1        0.1660
     17 N          -1.2766   -4.0966   -0.0007 N.1     1  LIG1       -0.1908
     18 C          -1.9565   -3.1734   -0.0006 C.1     1  LIG1        0.1013
     19 H          -4.9336   -3.1687    0.0023 H       1  LIG1        0.0652
     20 C          -5.7587   -0.3150    0.0014 C.ar    1  LIG1        0.0805
     21 C          -6.1626    0.9830    0.0016 C.ar    1  LIG1        0.0784
     22 C          -7.5946    0.9853    0.0038 C.ar    1  LIG1       -0.0263
     23 C          -8.0028   -0.3114    0.0030 C.ar    1  LIG1        0.0035
     24 N          -6.8820   -1.1108    0.0021 N.ar    1  LIG1       -0.3585
     25 H          -6.8836   -2.1048    0.0013 H       1  LIG1        0.1654
     26 H          -9.1996   -0.8190    0.0041 H       1  LIG1        0.0807
     27 N          -4.7055    2.9484    0.0014 N.1     1  LIG1       -0.1908
     28 C          -5.3884    2.0273    0.0015 C.1     1  LIG1        0.1013
     29 H          -8.3655    2.0321    0.0056 H       1  LIG1        0.0645
@<TRIPOS>BOND
     1    17    18    3
     2    18    12    1
     3     2     9    1
     4     2     1   ar
     5     2     3   ar
     6    12    11   ar
     7    12    13   ar
     8     4    11    1
     9     4     5   ar
    10     4     3   ar
    11     6     5    1
    12     9     8    3
    13    16    15    1
    14    11    15   ar
    15     5     1   ar
    16     1     7    1
    17     3    10    1
    18    15    14   ar
    19    14    13   ar
    20    14    20    1
    21    13    19    1
    22    25    24    1
    23    27    28    3
    24    20    21   ar
    25    20    24   ar
    26    28    21    1
    27    21    22   ar
    28    24    23   ar
    29    23    22   ar
    30    23    26    1
    31    22    29    1
