@<TRIPOS>MOLECULE
mol_data/noopt/geoms/mol2/13da13da.out
 20 21 0 0 0
SMALL
GASTEIGER

@<TRIPOS>ATOM
      1 C           1.1215   -0.3259    0.0002 C.ar    1  LIG1        0.0197
      2 C           0.7176    0.9721   -0.0005 C.ar    1  LIG1        0.0696
      3 C          -0.7144    0.9744    0.0003 C.ar    1  LIG1       -0.0175
      4 C          -1.1226   -0.3223   -0.0003 C.ar    1  LIG1        0.0654
      5 N          -0.0018   -1.1217    0.0001 N.ar    1  LIG1       -0.3583
      6 H          -0.0034   -2.1157   -0.0003 H       1  LIG1        0.1654
      7 H           2.3167   -0.8373    0.0007 H       1  LIG1        0.0820
      8 N           2.1747    2.9375   -0.0001 N.1     1  LIG1       -0.1908
      9 C           1.4918    2.0164   -0.0003 C.1     1  LIG1        0.1007
     10 H          -1.4853    2.0212    0.0010 H       1  LIG1        0.0652
     11 C          -2.3194   -0.8299   -0.0001 C.ar    1  LIG1        0.0805
     12 C          -3.5353   -0.2219   -0.0003 C.ar    1  LIG1        0.0784
     13 C          -4.5290   -1.2530    0.0012 C.ar    1  LIG1       -0.0263
     14 C          -3.8767   -2.4457    0.0005 C.ar    1  LIG1        0.0035
     15 N          -2.5238   -2.1913    0.0002 N.ar    1  LIG1       -0.3585
     16 H          -1.8081   -2.8811   -0.0004 H       1  LIG1        0.1654
     17 H          -4.3398   -3.6604    0.0012 H       1  LIG1        0.0807
     18 N          -3.9431    2.1904   -0.0003 N.1     1  LIG1       -0.1908
     19 C          -3.7520    1.0599   -0.0003 C.1     1  LIG1        0.1013
     20 H          -5.8179   -1.0837    0.0025 H       1  LIG1        0.0645
@<TRIPOS>BOND
     1     2     9    1
     2     2     1   ar
     3     2     3   ar
     4    16    15    1
     5    12    19    1
     6    12    11   ar
     7    12    13   ar
     8     4    11    1
     9     4     5   ar
    10     4     3   ar
    11     6     5    1
    12     9     8    3
    13    19    18    3
    14    11    15   ar
    15     5     1   ar
    16    15    14   ar
    17     1     7    1
    18     3    10    1
    19    14    13   ar
    20    14    17    1
    21    13    20    1
