@<TRIPOS>MOLECULE
mol_data/noopt/geoms/mol2/13da13da13da13da-.out
 38 41 0 0 0
SMALL
GASTEIGER

@<TRIPOS>ATOM
      1 C           1.1215   -0.3259    0.0002 C.ar    1  LIG1        0.0197
      2 C           0.7176    0.9721   -0.0005 C.ar    1  LIG1        0.0696
      3 C          -0.7144    0.9744    0.0003 C.ar    1  LIG1       -0.0175
      4 C          -1.1226   -0.3223   -0.0003 C.ar    1  LIG1        0.0654
      5 N          -0.0018   -1.1217    0.0001 N.ar    1  LIG1       -0.3583
      6 H          -0.0034   -2.1157   -0.0003 H       1  LIG1        0.1654
      7 H           2.3167   -0.8373    0.0007 H       1  LIG1        0.0820
      8 N           2.1747    2.9375   -0.0001 N.1     1  LIG1       -0.1908
      9 C           1.4918    2.0164   -0.0003 C.1     1  LIG1        0.1007
     10 H          -1.4853    2.0212    0.0010 H       1  LIG1        0.0652
     11 C          -2.3194   -0.8299   -0.0001 C.ar    1  LIG1        0.0810
     12 C          -3.5353   -0.2219   -0.0003 C.ar    1  LIG1        0.0790
     13 C          -4.5290   -1.2530    0.0012 C.ar    1  LIG1       -0.0169
     14 C          -3.8767   -2.4457    0.0005 C.ar    1  LIG1        0.0659
     15 N          -2.5238   -2.1913    0.0002 N.ar    1  LIG1       -0.3508
     16 H          -1.8081   -2.8811   -0.0004 H       1  LIG1        0.1660
     17 N          -3.9431    2.1904   -0.0003 N.1     1  LIG1       -0.1908
     18 C          -3.7520    1.0599   -0.0003 C.1     1  LIG1        0.1013
     19 H          -5.8179   -1.0837    0.0025 H       1  LIG1        0.0652
     20 C          -4.3398   -3.6604    0.0012 C.ar    1  LIG1        0.0810
     21 C          -5.6206   -4.1160    0.0013 C.ar    1  LIG1        0.0790
     22 C          -5.5655   -5.5470    0.0033 C.ar    1  LIG1       -0.0169
     23 C          -4.2535   -5.9029    0.0026 C.ar    1  LIG1        0.0659
     24 N          -3.4996   -4.7510    0.0018 N.ar    1  LIG1       -0.3508
     25 H          -2.5064   -4.7127    0.0010 H       1  LIG1        0.1660
     26 N          -7.6428   -2.7389    0.0012 N.1     1  LIG1       -0.1908
     27 C          -6.6951   -3.3843    0.0012 C.1     1  LIG1        0.1013
     28 H          -6.5805   -6.3592    0.0050 H       1  LIG1        0.0652
     29 C          -3.6983   -7.0784    0.0036 C.ar    1  LIG1        0.0805
     30 C          -2.3863   -7.4341    0.0038 C.ar    1  LIG1        0.0784
     31 C          -2.3311   -8.8651    0.0062 C.ar    1  LIG1       -0.0263
     32 C          -3.6119   -9.3208    0.0056 C.ar    1  LIG1        0.0035
     33 N          -4.4521   -8.2303    0.0045 N.ar    1  LIG1       -0.3585
     34 H          -5.4454   -8.2686    0.0038 H       1  LIG1        0.1654
     35 H          -4.0750  -10.5356    0.0070 H       1  LIG1        0.0807
     36 N          -0.4760   -5.9055    0.0032 N.1     1  LIG1       -0.1908
     37 C          -1.3713   -6.6219    0.0035 C.1     1  LIG1        0.1013
     38 H          -1.2566   -9.5968    0.0081 H       1  LIG1        0.0645
@<TRIPOS>BOND
     1     2     9    1
     2     2     1   ar
     3     2     3   ar
     4    16    15    1
     5    12    18    1
     6    12    11   ar
     7    12    13   ar
     8     4    11    1
     9     4     5   ar
    10     4     3   ar
    11     6     5    1
    12     9     8    3
    13    18    17    3
    14    11    15   ar
    15     5     1   ar
    16    15    14   ar
    17     1     7    1
    18     3    10    1
    19    14    13   ar
    20    14    20    1
    21    25    24    1
    22    26    27    3
    23    13    19    1
    24    20    21   ar
    25    20    24   ar
    26    27    21    1
    27    21    22   ar
    28    24    23   ar
    29    23    22   ar
    30    23    29    1
    31    36    37    3
    32    22    28    1
    33    37    30    1
    34    29    30   ar
    35    29    33   ar
    36    34    33    1
    37    30    31   ar
    38    33    32   ar
    39    32    31   ar
    40    32    35    1
    41    31    38    1
