@<TRIPOS>MOLECULE
mol_data/noopt/geoms/mol2/13da12ha12fa-13ie-.out
 41 44 0 0 0
SMALL
GASTEIGER

@<TRIPOS>ATOM
      1 C           1.1215   -0.3259    0.0002 C.ar    1  LIG1        0.0197
      2 C           0.7176    0.9721   -0.0005 C.ar    1  LIG1        0.0697
      3 C          -0.7144    0.9744    0.0003 C.ar    1  LIG1       -0.0159
      4 C          -1.1226   -0.3223   -0.0003 C.ar    1  LIG1        0.0852
      5 N          -0.0018   -1.1217    0.0001 N.ar    1  LIG1       -0.3570
      6 H          -0.0034   -2.1157   -0.0003 H       1  LIG1        0.1655
      7 H           2.3167   -0.8373    0.0007 H       1  LIG1        0.0820
      8 N           2.1747    2.9375   -0.0001 N.1     1  LIG1       -0.1908
      9 C           1.4918    2.0164   -0.0003 C.1     1  LIG1        0.1007
     10 H          -1.4853    2.0212    0.0010 H       1  LIG1        0.0653
     11 C          -2.3194   -0.8299   -0.0001 C.ar    1  LIG1        0.1724
     12 C          -3.6024   -0.3233    0.0148 C.ar    1  LIG1        0.0731
     13 C          -4.4979   -1.4613    0.0044 C.ar    1  LIG1        0.0088
     14 C          -3.7022   -2.5883   -0.0164 C.ar    1  LIG1        0.1761
     15 O          -2.3551   -2.2249   -0.0196 O.2     1  LIG1       -0.4482
     16 N          -3.9648    0.9250    0.0347 N.pl3   1  LIG1       -0.3550
     17 H          -3.2756    1.4796   -0.4316 H       1  LIG1        0.1424
     18 H          -4.8438    1.0244   -0.4317 H       1  LIG1        0.1424
     19 H          -5.7965   -1.4036    0.0131 H       1  LIG1        0.0675
     20 C          -3.9133   -3.8709   -0.0331 C.ar    1  LIG1        0.2118
     21 C          -5.0275   -4.6843   -0.0309 C.ar    1  LIG1        0.1664
     22 C          -4.5447   -6.0493   -0.0579 C.ar    1  LIG1        0.0280
     23 C          -3.1668   -5.9794   -0.0748 C.ar    1  LIG1        0.1558
     24 O          -2.7535   -4.6468   -0.0601 O.2     1  LIG1       -0.4464
     25 O          -6.2762   -4.3232   -0.0091 O.3     1  LIG1       -0.5031
     26 H          -6.8353   -5.1036   -0.0037 H       1  LIG1        0.2923
     27 H          -5.2879   -7.1158   -0.0644 H       1  LIG1        0.0693
     28 C          -2.1958   -6.8434   -0.1006 C.ar    1  LIG1        0.0864
     29 C          -2.2247   -8.2023   -0.1184 C.ar    1  LIG1       -0.0068
     30 C          -0.8675   -8.6587   -0.1431 C.ar    1  LIG1        0.0455
     31 C          -0.0690   -7.5585   -0.1411 C.ar    1  LIG1        0.0180
     32 N          -0.8781   -6.4450   -0.1146 N.ar    1  LIG1       -0.3569
     33 H          -0.5612   -5.5029   -0.1075 H       1  LIG1        0.1655
     34 H           1.2268   -7.4566   -0.1584 H       1  LIG1        0.0819
     35 C          -3.2904   -8.9473   -0.1123 C.3     1  LIG1       -0.0364
     36 H          -3.0803   -9.8664    0.3938 H       1  LIG1        0.0279
     37 H          -3.5866   -9.1544   -1.1195 H       1  LIG1        0.0279
     38 H          -4.0813   -8.4342    0.3937 H       1  LIG1        0.0279
     39 C          -0.4687   -9.8958   -0.1642 C.1     1  LIG1       -0.0679
     40 C          -0.1002  -11.0389   -0.1836 C.1     1  LIG1       -0.1139
     41 H           0.2281  -12.0572   -0.2009 H       1  LIG1        0.1232
@<TRIPOS>BOND
     1    37    35    1
     2    18    16    1
     3    17    16    1
     4    41    40    1
     5    40    39    3
     6    39    30    1
     7    34    31    1
     8    30    31   ar
     9    30    29   ar
    10    31    32   ar
    11    29    35    1
    12    29    28   ar
    13    32    33    1
    14    32    28   ar
    15    35    38    1
    16    35    36    1
    17    28    23    1
    18    23    24   ar
    19    23    22   ar
    20    27    22    1
    21    24    20   ar
    22    22    21   ar
    23    20    21   ar
    24    20    14    1
    25    21    25    1
    26    15    14   ar
    27    15    11   ar
    28    14    13   ar
    29    25    26    1
    30     2     9    1
    31     2     1   ar
    32     2     3   ar
    33     4    11    1
    34     4     5   ar
    35     4     3   ar
    36     6     5    1
    37     9     8    3
    38    11    12   ar
    39     5     1   ar
    40     1     7    1
    41     3    10    1
    42    13    19    1
    43    13    12   ar
    44    12    16    1
