@<TRIPOS>MOLECULE
mol_data/noopt/geoms/mol2/13da13al(300)4ea(10)12il(20).out
 49 52 0 0 0
SMALL
GASTEIGER

@<TRIPOS>ATOM
      1 C           1.1215   -0.3259    0.0002 C.ar    1  LIG1        0.0197
      2 C           0.7176    0.9721   -0.0005 C.ar    1  LIG1        0.0696
      3 C          -0.7144    0.9744    0.0003 C.ar    1  LIG1       -0.0176
      4 C          -1.1226   -0.3223   -0.0003 C.ar    1  LIG1        0.0643
      5 N          -0.0018   -1.1217    0.0001 N.ar    1  LIG1       -0.3583
      6 H          -0.0034   -2.1157   -0.0003 H       1  LIG1        0.1654
      7 H           2.3167   -0.8373    0.0007 H       1  LIG1        0.0820
      8 N           2.1747    2.9375   -0.0001 N.1     1  LIG1       -0.1908
      9 C           1.4918    2.0164   -0.0003 C.1     1  LIG1        0.1007
     10 H          -1.4853    2.0212    0.0010 H       1  LIG1        0.0652
     11 C          -2.3194   -0.8299   -0.0001 C.ar    1  LIG1        0.0669
     12 C          -3.3460   -0.6685   -0.8764 C.ar    1  LIG1        0.0075
     13 C          -4.4428   -1.4564   -0.4001 C.ar    1  LIG1        0.1459
     14 C          -4.0376   -2.0661    0.7454 C.ar    1  LIG1        0.0904
     15 N          -2.7384   -1.6849    0.9942 N.ar    1  LIG1       -0.3501
     16 H          -2.1897   -1.9806    1.7685 H       1  LIG1        0.1661
     17 H          -3.3316    0.0678   -1.9477 H       1  LIG1        0.0676
     18 O          -5.6116   -1.5706   -0.9577 O.3     1  LIG1       -0.4930
     19 C          -6.1718   -0.2709   -1.1625 C.3     1  LIG1        0.0789
     20 H          -7.1337   -0.3653   -1.6216 H       1  LIG1        0.0660
     21 H          -6.2735    0.2262   -0.2204 H       1  LIG1        0.0660
     22 H          -5.5274    0.2991   -1.7987 H       1  LIG1        0.0660
     23 C          -5.8823   -2.4686    2.1378 C.ar    1  LIG1        0.0346
     24 C          -6.5305   -3.3818    2.9917 C.ar    1  LIG1       -0.0350
     25 C          -4.6722   -2.8759    1.5399 C.ar    1  LIG1        0.0173
     26 C          -5.9995   -4.6455    3.2403 C.ar    1  LIG1        0.0188
     27 H          -7.4654   -3.0878    3.4636 H       1  LIG1        0.0637
     28 C          -4.1417   -4.1374    1.7877 C.ar    1  LIG1       -0.0507
     29 C          -4.8007   -5.0305    2.6387 C.ar    1  LIG1       -0.0504
     30 H          -3.2071   -4.4280    1.3147 H       1  LIG1        0.0625
     31 C          -6.4269   -1.3041    1.9444 C.1     1  LIG1       -0.0690
     32 C          -6.9300   -0.2281    1.7658 C.1     1  LIG1       -0.1139
     33 H          -7.3782    0.7304    1.6066 H       1  LIG1        0.1232
     34 H          -4.2999   -6.2083    2.8668 H       1  LIG1        0.0625
     35 C          -6.6245   -5.4635    4.0340 C.ar    1  LIG1        0.1414
     36 C          -7.7208   -5.3802    4.8672 C.ar    1  LIG1        0.0370
     37 C          -7.8809   -6.6852    5.4740 C.ar    1  LIG1        0.1611
     38 C          -6.8714   -7.4799    4.9710 C.ar    1  LIG1        0.1343
     39 O          -6.0835   -6.7491    4.0809 O.2     1  LIG1       -0.4589
     40 H          -6.4976   -8.7147    5.1311 H       1  LIG1        0.1068
     41 C          -8.4789   -4.3462    5.0840 C.3     1  LIG1       -0.0326
     42 H          -9.3417   -4.6470    5.6408 H       1  LIG1        0.0280
     43 H          -8.7864   -3.9270    4.1487 H       1  LIG1        0.0280
     44 H          -7.9325   -3.6138    5.6407 H       1  LIG1        0.0280
     45 O          -8.8060   -7.0168    6.3251 O.3     1  LIG1       -0.4917
     46 C          -9.6005   -5.8696    6.6375 C.3     1  LIG1        0.0789
     47 H         -10.3618   -6.1429    7.3378 H       1  LIG1        0.0660
     48 H          -8.9787   -5.1107    7.0647 H       1  LIG1        0.0660
     49 H         -10.0553   -5.4966    5.7437 H       1  LIG1        0.0660
@<TRIPOS>BOND
     1    17    12    1
     2    22    19    1
     3    20    19    1
     4    19    18    1
     5    19    21    1
     6    18    13    1
     7    12    13   ar
     8    12    11   ar
     9    13    14   ar
    10     2     9    1
    11     2     1   ar
    12     2     3   ar
    13     4    11    1
    14     4     5   ar
    15     4     3   ar
    16     6     5    1
    17     9     8    3
    18    11    15   ar
    19     5     1   ar
    20     1     7    1
    21     3    10    1
    22    14    15   ar
    23    14    25    1
    24    15    16    1
    25    30    28    1
    26    25    28   ar
    27    25    23   ar
    28    33    32    1
    29    32    31    3
    30    28    29   ar
    31    31    23    1
    32    23    24   ar
    33    29    34    1
    34    29    26   ar
    35    24    26   ar
    36    24    27    1
    37    26    35    1
    38    35    39   ar
    39    35    36   ar
    40    39    38   ar
    41    43    41    1
    42    36    41    1
    43    36    37   ar
    44    38    40    1
    45    38    37   ar
    46    41    44    1
    47    41    42    1
    48    37    45    1
    49    49    46    1
    50    45    46    1
    51    46    48    1
    52    46    47    1
