@<TRIPOS>MOLECULE
mol_data/noopt/geoms/mol2/13da6da(50)12ee(120)4ai(30).out
 45 48 0 0 0
SMALL
GASTEIGER

@<TRIPOS>ATOM
      1 C           1.1215   -0.3259    0.0002 C.ar    1  LIG1        0.0196
      2 C           0.7176    0.9721   -0.0005 C.ar    1  LIG1        0.0696
      3 C          -0.7144    0.9744    0.0003 C.ar    1  LIG1       -0.0189
      4 C          -1.1226   -0.3223   -0.0003 C.ar    1  LIG1        0.0505
      5 N          -0.0018   -1.1217    0.0001 N.ar    1  LIG1       -0.3594
      6 H          -0.0034   -2.1157   -0.0003 H       1  LIG1        0.1654
      7 H           2.3167   -0.8373    0.0007 H       1  LIG1        0.0820
      8 N           2.1747    2.9375   -0.0001 N.1     1  LIG1       -0.1908
      9 C           1.4918    2.0164   -0.0003 C.1     1  LIG1        0.1007
     10 H          -1.4853    2.0212    0.0010 H       1  LIG1        0.0652
     11 C          -2.6693   -1.8265   -0.9295 C.ar    1  LIG1        0.1499
     12 C          -2.3194   -0.8299   -0.0001 C.ar    1  LIG1        0.0342
     13 C          -3.2835   -0.4039    0.9154 C.ar    1  LIG1       -0.0478
     14 C          -4.5532   -0.9823    0.8721 C.ar    1  LIG1       -0.0319
     15 C          -4.8076   -1.9723   -0.0948 C.ar    1  LIG1        0.1087
     16 N          -3.8893   -2.3952   -0.9853 N.ar    1  LIG1       -0.2326
     17 H          -3.0471    0.3734    1.6558 H       1  LIG1        0.0626
     18 N          -1.0449   -2.6346   -2.5708 N.1     1  LIG1       -0.1893
     19 C          -1.8062   -2.2559   -1.8016 C.1     1  LIG1        0.1198
     20 H          -5.4854   -0.6200    1.7026 H       1  LIG1        0.0640
     21 C          -5.9741   -2.5404   -0.1746 C.ar    1  LIG1        0.1704
     22 C          -6.6681   -3.4705    0.5713 C.ar    1  LIG1        0.0879
     23 C          -7.9426   -3.6638   -0.0885 C.ar    1  LIG1        0.0864
     24 C          -7.9429   -2.8386   -1.1942 C.ar    1  LIG1        0.1523
     25 O          -6.7400   -2.1355   -1.2688 O.2     1  LIG1       -0.4508
     26 C          -6.2786   -4.0710    1.6564 C.1     1  LIG1       -0.0646
     27 C          -5.9186   -4.6259    2.6592 C.1     1  LIG1       -0.1138
     28 H          -5.5980   -5.1202    3.5524 H       1  LIG1        0.1232
     29 C          -8.8861   -4.4663    0.3064 C.1     1  LIG1       -0.0646
     30 C          -9.7579   -5.2077    0.6713 C.1     1  LIG1       -0.1138
     31 H         -10.5345   -5.8681    0.9963 H       1  LIG1        0.1232
     32 C          -9.3449   -1.2863   -2.2566 C.ar    1  LIG1       -0.0510
     33 C         -10.2481   -1.0508   -3.3112 C.ar    1  LIG1       -0.0608
     34 C          -8.7807   -2.5742   -2.1524 C.ar    1  LIG1        0.0188
     35 C         -10.5760   -2.0516   -4.2230 C.ar    1  LIG1       -0.0588
     36 H         -10.6953   -0.0641   -3.4100 H       1  LIG1        0.0618
     37 C          -9.1076   -3.5736   -3.0624 C.ar    1  LIG1       -0.0481
     38 C         -10.0067   -3.3200   -4.1035 C.ar    1  LIG1       -0.0498
     39 H          -8.6592   -4.5586   -2.9607 H       1  LIG1        0.0627
     40 H         -11.4136   -1.7993   -5.1847 H       1  LIG1        0.0620
     41 H          -9.0780   -0.3128   -1.4375 H       1  LIG1        0.0625
     42 C         -10.3088   -4.2584   -4.9513 C.3     1  LIG1       -0.0397
     43 H          -9.6608   -5.0966   -4.8015 H       1  LIG1        0.0278
     44 H         -10.1901   -3.8897   -5.9488 H       1  LIG1        0.0278
     45 H         -11.3241   -4.5611   -4.8015 H       1  LIG1        0.0278
@<TRIPOS>BOND
     1    44    42    1
     2    40    35    1
     3    42    45    1
     4    42    43    1
     5    42    38    1
     6    35    38   ar
     7    35    33   ar
     8    38    37   ar
     9    36    33    1
    10    33    32   ar
    11    37    39    1
    12    37    34   ar
    13    18    19    3
    14    32    34   ar
    15    32    41    1
    16    34    24    1
    17    19    11    1
    18    25    24   ar
    19    25    21   ar
    20    24    23   ar
    21    16    11   ar
    22    16    15   ar
    23    11    12   ar
    24    21    15    1
    25    21    22   ar
    26    15    14   ar
    27    23    29    1
    28    23    22   ar
    29     2     9    1
    30     2     1   ar
    31     2     3   ar
    32     4    12    1
    33     4     5   ar
    34     4     3   ar
    35     6     5    1
    36     9     8    3
    37    12    13   ar
    38     5     1   ar
    39     1     7    1
    40     3    10    1
    41    29    30    3
    42    22    26    1
    43    30    31    1
    44    14    13   ar
    45    14    20    1
    46    13    17    1
    47    26    27    3
    48    27    28    1
