@<TRIPOS>MOLECULE
mol_data/noopt/geoms/mol2/13da13da-13da-13da.out
 38 41 0 0 0
SMALL
GASTEIGER

@<TRIPOS>ATOM
      1 C           1.1215   -0.3259    0.0002 C.ar    1  LIG1        0.0197
      2 C           0.7176    0.9721   -0.0005 C.ar    1  LIG1        0.0696
      3 C          -0.7144    0.9744    0.0003 C.ar    1  LIG1       -0.0175
      4 C          -1.1226   -0.3223   -0.0003 C.ar    1  LIG1        0.0654
      5 N          -0.0018   -1.1217    0.0001 N.ar    1  LIG1       -0.3583
      6 H          -0.0034   -2.1157   -0.0003 H       1  LIG1        0.1654
      7 H           2.3167   -0.8373    0.0007 H       1  LIG1        0.0820
      8 N           2.1747    2.9375   -0.0001 N.1     1  LIG1       -0.1908
      9 C           1.4918    2.0164   -0.0003 C.1     1  LIG1        0.1007
     10 H          -1.4853    2.0212    0.0010 H       1  LIG1        0.0652
     11 C          -2.3194   -0.8299   -0.0001 C.ar    1  LIG1        0.0810
     12 C          -2.7274   -2.1266   -0.0005 C.ar    1  LIG1        0.0790
     13 C          -4.1594   -2.1244    0.0011 C.ar    1  LIG1       -0.0169
     14 C          -4.5635   -0.8264    0.0006 C.ar    1  LIG1        0.0659
     15 N          -3.4402   -0.0305    0.0003 N.ar    1  LIG1       -0.3508
     16 H          -3.4386    0.9635   -0.0001 H       1  LIG1        0.1660
     17 N          -1.2766   -4.0966   -0.0007 N.1     1  LIG1       -0.1908
     18 C          -1.9565   -3.1734   -0.0006 C.1     1  LIG1        0.1013
     19 H          -4.9336   -3.1687    0.0023 H       1  LIG1        0.0652
     20 C          -5.7587   -0.3150    0.0014 C.ar    1  LIG1        0.0810
     21 C          -6.9765   -0.9191    0.0015 C.ar    1  LIG1        0.0790
     22 C          -7.9670    0.1151    0.0037 C.ar    1  LIG1       -0.0169
     23 C          -7.3109    1.3057    0.0031 C.ar    1  LIG1        0.0659
     24 N          -5.9587    1.0470    0.0022 N.ar    1  LIG1       -0.3508
     25 H          -5.2408    1.7345    0.0016 H       1  LIG1        0.1660
     26 N          -7.3920   -3.3302    0.0010 N.1     1  LIG1       -0.1908
     27 C          -7.1973   -2.2002    0.0012 C.1     1  LIG1        0.1013
     28 H          -9.2564   -0.0501    0.0054 H       1  LIG1        0.0652
     29 C          -7.7701    2.5219    0.0044 C.ar    1  LIG1        0.0805
     30 C          -7.1139    3.7125    0.0049 C.ar    1  LIG1        0.0784
     31 C          -8.1043    4.7467    0.0074 C.ar    1  LIG1       -0.0263
     32 C          -9.3222    4.1427    0.0066 C.ar    1  LIG1        0.0035
     33 N          -9.1222    2.7807    0.0052 N.ar    1  LIG1       -0.3585
     34 H          -9.8401    2.0932    0.0043 H       1  LIG1        0.1654
     35 H         -10.5174    4.6541    0.0080 H       1  LIG1        0.0807
     36 N          -4.6871    4.0233    0.0045 N.1     1  LIG1       -0.1908
     37 C          -5.8244    3.8776    0.0047 C.1     1  LIG1        0.1013
     38 H          -7.8835    6.0278    0.0096 H       1  LIG1        0.0645
@<TRIPOS>BOND
     1    17    18    3
     2    18    12    1
     3     2     9    1
     4     2     1   ar
     5     2     3   ar
     6    12    11   ar
     7    12    13   ar
     8     9     8    3
     9     6     5    1
    10     4    11    1
    11     4     5   ar
    12     4     3   ar
    13    16    15    1
    14    11    15   ar
    15     5     1   ar
    16     1     7    1
    17     3    10    1
    18    15    14   ar
    19    14    13   ar
    20    14    20    1
    21    26    27    3
    22    13    19    1
    23    27    21    1
    24    20    21   ar
    25    20    24   ar
    26    21    22   ar
    27    25    24    1
    28    24    23   ar
    29    23    22   ar
    30    23    29    1
    31    22    28    1
    32    34    33    1
    33    29    30   ar
    34    29    33   ar
    35    36    37    3
    36    37    30    1
    37    30    31   ar
    38    33    32   ar
    39    32    31   ar
    40    32    35    1
    41    31    38    1
