@<TRIPOS>MOLECULE
mol_data/noopt/geoms/mol2/13dd13dd13dd13dd-.out
 42 45 0 0 0
SMALL
GASTEIGER

@<TRIPOS>ATOM
      1 C           1.1215   -0.3259    0.0002 C.ar    1  LIG1        0.0210
      2 C           0.7176    0.9721   -0.0005 C.ar    1  LIG1        0.0870
      3 C          -0.7144    0.9744    0.0003 C.ar    1  LIG1        0.0957
      4 C          -1.1226   -0.3223   -0.0003 C.ar    1  LIG1        0.0831
      5 N          -0.0018   -1.1217    0.0001 N.ar    1  LIG1       -0.3573
      6 H          -0.0034   -2.1157   -0.0003 H       1  LIG1        0.1655
      7 H           2.3167   -0.8373    0.0007 H       1  LIG1        0.0820
      8 N           2.1747    2.9375   -0.0001 N.1     1  LIG1       -0.1908
      9 C           1.4918    2.0164   -0.0003 C.1     1  LIG1        0.1020
     10 N          -2.1652    2.9444    0.0016 N.1     1  LIG1       -0.1908
     11 C          -1.4853    2.0212    0.0010 C.1     1  LIG1        0.1026
     12 C          -2.3194   -0.8299   -0.0001 C.ar    1  LIG1        0.0835
     13 C          -3.5353   -0.2219   -0.0003 C.ar    1  LIG1        0.0964
     14 C          -4.5290   -1.2530    0.0012 C.ar    1  LIG1        0.0964
     15 C          -3.8767   -2.4457    0.0005 C.ar    1  LIG1        0.0835
     16 N          -2.5238   -2.1913    0.0002 N.ar    1  LIG1       -0.3497
     17 H          -1.8081   -2.8811   -0.0004 H       1  LIG1        0.1661
     18 N          -3.9431    2.1904   -0.0003 N.1     1  LIG1       -0.1908
     19 C          -3.7520    1.0599   -0.0003 C.1     1  LIG1        0.1026
     20 N          -6.9548   -0.9344    0.0036 N.1     1  LIG1       -0.1908
     21 C          -5.8179   -1.0837    0.0025 C.1     1  LIG1        0.1026
     22 C          -4.3398   -3.6604    0.0012 C.ar    1  LIG1        0.0835
     23 C          -5.6206   -4.1160    0.0013 C.ar    1  LIG1        0.0964
     24 C          -5.5655   -5.5470    0.0033 C.ar    1  LIG1        0.0964
     25 C          -4.2535   -5.9029    0.0026 C.ar    1  LIG1        0.0835
     26 N          -3.4996   -4.7510    0.0018 N.ar    1  LIG1       -0.3497
     27 H          -2.5064   -4.7127    0.0010 H       1  LIG1        0.1661
     28 N          -7.6428   -2.7389    0.0012 N.1     1  LIG1       -0.1908
     29 C          -6.6951   -3.3843    0.0012 C.1     1  LIG1        0.1026
     30 N          -7.4758   -7.0756    0.0065 N.1     1  LIG1       -0.1908
     31 C          -6.5805   -6.3592    0.0050 C.1     1  LIG1        0.1026
     32 C          -3.6983   -7.0784    0.0036 C.ar    1  LIG1        0.0831
     33 C          -2.3863   -7.4341    0.0038 C.ar    1  LIG1        0.0957
     34 C          -2.3311   -8.8651    0.0062 C.ar    1  LIG1        0.0870
     35 C          -3.6119   -9.3208    0.0056 C.ar    1  LIG1        0.0210
     36 N          -4.4521   -8.2303    0.0045 N.ar    1  LIG1       -0.3573
     37 H          -5.4454   -8.2686    0.0038 H       1  LIG1        0.1655
     38 H          -4.0750  -10.5356    0.0070 H       1  LIG1        0.0820
     39 N          -0.4760   -5.9055    0.0032 N.1     1  LIG1       -0.1908
     40 C          -1.3713   -6.6219    0.0035 C.1     1  LIG1        0.1026
     41 N          -0.3089  -10.2422    0.0098 N.1     1  LIG1       -0.1908
     42 C          -1.2566   -9.5968    0.0081 C.1     1  LIG1        0.1020
@<TRIPOS>BOND
     1     2     9    1
     2     2     1   ar
     3     2     3   ar
     4    17    16    1
     5    13    19    1
     6    13    12   ar
     7    13    14   ar
     8     4    12    1
     9     4     5   ar
    10     4     3   ar
    11     6     5    1
    12     9     8    3
    13    19    18    3
    14    12    16   ar
    15     5     1   ar
    16    16    15   ar
    17     1     7    1
    18     3    11    1
    19    15    14   ar
    20    15    22    1
    21    27    26    1
    22    11    10    3
    23    28    29    3
    24    14    21    1
    25    22    23   ar
    26    22    26   ar
    27    29    23    1
    28    23    24   ar
    29    26    25   ar
    30    21    20    3
    31    25    24   ar
    32    25    32    1
    33    39    40    3
    34    24    31    1
    35    40    33    1
    36    32    33   ar
    37    32    36   ar
    38    37    36    1
    39    33    34   ar
    40    36    35   ar
    41    31    30    3
    42    35    34   ar
    43    35    38    1
    44    34    42    1
    45    42    41    3
