@<TRIPOS>MOLECULE
mol_data/noopt/geoms/mol2/13dd13dd-.out
 22 23 0 0 0
SMALL
GASTEIGER

@<TRIPOS>ATOM
      1 C           1.1215   -0.3259    0.0002 C.ar    1  LIG1        0.0210
      2 C           0.7176    0.9721   -0.0005 C.ar    1  LIG1        0.0870
      3 C          -0.7144    0.9744    0.0003 C.ar    1  LIG1        0.0957
      4 C          -1.1226   -0.3223   -0.0003 C.ar    1  LIG1        0.0830
      5 N          -0.0018   -1.1217    0.0001 N.ar    1  LIG1       -0.3573
      6 H          -0.0034   -2.1157   -0.0003 H       1  LIG1        0.1655
      7 H           2.3167   -0.8373    0.0007 H       1  LIG1        0.0820
      8 N           2.1747    2.9375   -0.0001 N.1     1  LIG1       -0.1908
      9 C           1.4918    2.0164   -0.0003 C.1     1  LIG1        0.1020
     10 N          -2.1652    2.9444    0.0016 N.1     1  LIG1       -0.1908
     11 C          -1.4853    2.0212    0.0010 C.1     1  LIG1        0.1026
     12 C          -2.3194   -0.8299   -0.0001 C.ar    1  LIG1        0.0830
     13 C          -2.7274   -2.1266   -0.0005 C.ar    1  LIG1        0.0957
     14 C          -4.1594   -2.1244    0.0011 C.ar    1  LIG1        0.0870
     15 C          -4.5635   -0.8264    0.0006 C.ar    1  LIG1        0.0210
     16 N          -3.4402   -0.0305    0.0003 N.ar    1  LIG1       -0.3573
     17 H          -3.4386    0.9635   -0.0001 H       1  LIG1        0.1655
     18 H          -5.7587   -0.3150    0.0014 H       1  LIG1        0.0820
     19 N          -1.2766   -4.0966   -0.0007 N.1     1  LIG1       -0.1908
     20 C          -1.9565   -3.1734   -0.0006 C.1     1  LIG1        0.1026
     21 N          -5.6165   -4.0898    0.0034 N.1     1  LIG1       -0.1908
     22 C          -4.9336   -3.1687    0.0023 C.1     1  LIG1        0.1020
@<TRIPOS>BOND
     1    19    20    3
     2    20    13    1
     3     2     9    1
     4     2     1   ar
     5     2     3   ar
     6    13    12   ar
     7    13    14   ar
     8     4    12    1
     9     4     5   ar
    10     4     3   ar
    11     6     5    1
    12     9     8    3
    13    17    16    1
    14    12    16   ar
    15     5     1   ar
    16     1     7    1
    17     3    11    1
    18    16    15   ar
    19    15    14   ar
    20    15    18    1
    21    11    10    3
    22    14    22    1
    23    22    21    3
