@<TRIPOS>MOLECULE
mol_data/noopt/geoms/mol2/13dd6ii6ee6if-.out
 53 56 0 0 0
SMALL
GASTEIGER

@<TRIPOS>ATOM
      1 C           1.1215   -0.3259    0.0002 C.ar    1  LIG1        0.0209
      2 C           0.7176    0.9721   -0.0005 C.ar    1  LIG1        0.0870
      3 C          -0.7144    0.9744    0.0003 C.ar    1  LIG1        0.0943
      4 C          -1.1226   -0.3223   -0.0003 C.ar    1  LIG1        0.0671
      5 N          -0.0018   -1.1217    0.0001 N.ar    1  LIG1       -0.3584
      6 H          -0.0034   -2.1157   -0.0003 H       1  LIG1        0.1654
      7 H           2.3167   -0.8373    0.0007 H       1  LIG1        0.0820
      8 N           2.1747    2.9375   -0.0001 N.1     1  LIG1       -0.1908
      9 C           1.4918    2.0164   -0.0003 C.1     1  LIG1        0.1020
     10 N          -2.1652    2.9444    0.0016 N.1     1  LIG1       -0.1908
     11 C          -1.4853    2.0212    0.0010 C.1     1  LIG1        0.1026
     12 C          -2.5001   -2.2252    0.0002 C.ar    1  LIG1        0.0480
     13 C          -2.3194   -0.8299   -0.0001 C.ar    1  LIG1        0.0209
     14 C          -3.4502   -0.0112    0.0002 C.ar    1  LIG1       -0.0459
     15 C          -4.7120   -0.6082    0.0005 C.ar    1  LIG1       -0.0237
     16 C          -4.7903   -2.0130    0.0006 C.ar    1  LIG1        0.0769
     17 N          -3.7098   -2.8179    0.0005 N.ar    1  LIG1       -0.2509
     18 H          -3.3485    1.0833   -0.0010 H       1  LIG1        0.0628
     19 C          -1.4779   -3.0288    0.0000 C.3     1  LIG1       -0.0217
     20 H          -0.6575   -2.5625    0.5044 H       1  LIG1        0.0293
     21 H          -1.1975   -3.2492   -1.0089 H       1  LIG1        0.0293
     22 H          -1.7375   -3.9361    0.5044 H       1  LIG1        0.0293
     23 C          -5.7957    0.1105    0.0006 C.3     1  LIG1       -0.0377
     24 H          -6.5758   -0.4205    0.5050 H       1  LIG1        0.0278
     25 H          -6.0931    0.3076   -1.0082 H       1  LIG1        0.0278
     26 H          -5.6100    1.0357    0.5050 H       1  LIG1        0.0278
     27 C          -6.0100   -4.0206    0.0013 C.ar    1  LIG1        0.1230
     28 C          -5.9423   -2.6153    0.0010 C.ar    1  LIG1        0.0356
     29 C          -7.1354   -1.8904    0.0013 C.ar    1  LIG1       -0.0324
     30 C          -8.3451   -2.5870    0.0019 C.ar    1  LIG1        0.0514
     31 C          -8.3099   -3.9936    0.0020 C.ar    1  LIG1        0.0896
     32 N          -7.1681   -4.7088    0.0019 N.ar    1  LIG1       -0.2365
     33 H          -7.1222   -0.7912    0.0001 H       1  LIG1        0.0638
     34 C          -4.9267   -4.7392    0.0011 C.1     1  LIG1       -0.0491
     35 C          -3.9257   -5.4031    0.0009 C.1     1  LIG1       -0.1124
     36 H          -3.0340   -5.9945    0.0007 H       1  LIG1        0.1232
     37 C          -9.4828   -1.9582    0.0021 C.1     1  LIG1       -0.0675
     38 C         -10.5341   -1.3771    0.0022 C.1     1  LIG1       -0.1138
     39 H         -11.4706   -0.8594    0.0024 H       1  LIG1        0.1232
     40 C          -9.3641   -6.0928   -0.0181 C.ar    1  LIG1        0.0476
     41 C          -9.4097   -4.6868    0.0026 C.ar    1  LIG1        0.0260
     42 C         -10.6572   -4.0604    0.0240 C.ar    1  LIG1       -0.0077
     43 C         -11.8068   -4.8523    0.0237 C.ar    1  LIG1        0.1355
     44 C         -11.6585   -6.2512    0.0019 C.ar    1  LIG1        0.0693
     45 N         -10.4629   -6.8721   -0.0186 N.ar    1  LIG1       -0.2559
     46 H         -10.7325   -2.9639    0.0395 H       1  LIG1        0.0662
     47 H         -12.6989   -7.0307    0.0009 H       1  LIG1        0.0867
     48 C          -8.2262   -6.7217   -0.0383 C.3     1  LIG1       -0.0217
     49 H          -7.4845   -6.1335    0.4606 H       1  LIG1        0.0293
     50 H          -7.9277   -6.8866   -1.0525 H       1  LIG1        0.0293
     51 H          -8.3299   -7.6627    0.4605 H       1  LIG1        0.0293
     52 O         -12.9914   -4.3172    0.0429 O.3     1  LIG1       -0.5052
     53 H         -13.6559   -5.0100    0.0477 H       1  LIG1        0.2922
@<TRIPOS>BOND
     1    50    48    1
     2    21    19    1
     3    25    23    1
     4    48    40    1
     5    48    51    1
     6    48    49    1
     7    45    40   ar
     8    45    44   ar
     9    40    41   ar
    10    18    14    1
    11     2     9    1
    12     2     1   ar
    13     2     3   ar
    14     4    13    1
    15     4     5   ar
    16     4     3   ar
    17     6     5    1
    18     9     8    3
    19    13    12   ar
    20    13    14   ar
    21    19    12    1
    22    19    22    1
    23    19    20    1
    24    33    29    1
    25     5     1   ar
    26    12    17   ar
    27    14    15   ar
    28     1     7    1
    29     3    11    1
    30    17    16   ar
    31    15    16   ar
    32    15    23    1
    33    16    28    1
    34    23    26    1
    35    23    24    1
    36    36    35    1
    37    35    34    3
    38    47    44    1
    39    28    27   ar
    40    28    29   ar
    41    11    10    3
    42    34    27    1
    43    27    32   ar
    44    29    30   ar
    45    32    31   ar
    46    30    31   ar
    47    30    37    1
    48    44    43   ar
    49    31    41    1
    50    37    38    3
    51    38    39    1
    52    41    42   ar
    53    43    42   ar
    54    43    52    1
    55    42    46    1
    56    52    53    1
