@<TRIPOS>MOLECULE
mol_data/noopt/geoms/mol2/13dd6eh13el6ii-.out
 54 57 0 0 0
SMALL
GASTEIGER

@<TRIPOS>ATOM
      1 C           1.1215   -0.3259    0.0002 C.ar    1  LIG1        0.0209
      2 C           0.7176    0.9721   -0.0005 C.ar    1  LIG1        0.0870
      3 C          -0.7144    0.9744    0.0003 C.ar    1  LIG1        0.0944
      4 C          -1.1226   -0.3223   -0.0003 C.ar    1  LIG1        0.0681
      5 N          -0.0018   -1.1217    0.0001 N.ar    1  LIG1       -0.3584
      6 H          -0.0034   -2.1157   -0.0003 H       1  LIG1        0.1654
      7 H           2.3167   -0.8373    0.0007 H       1  LIG1        0.0820
      8 N           2.1747    2.9375   -0.0001 N.1     1  LIG1       -0.1908
      9 C           1.4918    2.0164   -0.0003 C.1     1  LIG1        0.1020
     10 N          -2.1652    2.9444    0.0016 N.1     1  LIG1       -0.1908
     11 C          -1.4853    2.0212    0.0010 C.1     1  LIG1        0.1026
     12 C          -2.5001   -2.2252    0.0002 C.ar    1  LIG1        0.1231
     13 C          -2.3194   -0.8299   -0.0001 C.ar    1  LIG1        0.0352
     14 C          -3.4502   -0.0112    0.0002 C.ar    1  LIG1       -0.0271
     15 C          -4.7120   -0.6082    0.0005 C.ar    1  LIG1        0.0531
     16 C          -4.7903   -2.0130    0.0006 C.ar    1  LIG1        0.1104
     17 N          -3.7098   -2.8179    0.0005 N.ar    1  LIG1       -0.2344
     18 H          -3.3485    1.0833   -0.0010 H       1  LIG1        0.0644
     19 C          -1.4781   -3.0286    0.0000 C.1     1  LIG1       -0.0491
     20 C          -0.5338   -3.7711   -0.0001 C.1     1  LIG1       -0.1124
     21 H           0.3073   -4.4324   -0.0002 H       1  LIG1        0.1232
     22 N          -5.7955    0.1103    0.0006 N.pl3   1  LIG1       -0.3563
     23 H          -5.6220    0.9750   -0.4708 H       1  LIG1        0.1424
     24 H          -6.5245   -0.3859   -0.4708 H       1  LIG1        0.1424
     25 C          -5.9423   -2.6153    0.0010 C.ar    1  LIG1        0.0865
     26 C          -7.2032   -2.1074    0.0175 C.ar    1  LIG1        0.0937
     27 C          -8.1106   -3.2151    0.0102 C.ar    1  LIG1        0.1613
     28 C          -7.3645   -4.3512   -0.0122 C.ar    1  LIG1        0.0922
     29 N          -6.0364   -3.9886   -0.0175 N.ar    1  LIG1       -0.3489
     30 H          -5.2676   -4.6184   -0.0328 H       1  LIG1        0.1661
     31 C          -7.5223   -0.8473    0.0378 C.1     1  LIG1       -0.0638
     32 C          -7.8173    0.3170    0.0565 C.1     1  LIG1       -0.1137
     33 H          -8.0800    1.3541    0.0732 H       1  LIG1        0.1232
     34 O          -9.4090   -3.1503    0.0222 O.3     1  LIG1       -0.4917
     35 C          -9.8184   -1.7801    0.0266 C.3     1  LIG1        0.0789
     36 H         -10.8871   -1.7272    0.0363 H       1  LIG1        0.0660
     37 H          -9.4294   -1.2943    0.8970 H       1  LIG1        0.0660
     38 H          -9.4453   -1.2935   -0.8502 H       1  LIG1        0.0660
     39 C          -6.7619   -6.6213   -0.0553 C.ar    1  LIG1        0.0474
     40 C          -7.7283   -5.5992   -0.0265 C.ar    1  LIG1        0.0232
     41 C          -9.0775   -5.9575   -0.0134 C.ar    1  LIG1       -0.0464
     42 C          -9.4132   -7.3123   -0.0295 C.ar    1  LIG1       -0.0317
     43 C          -8.3747   -8.2612   -0.0584 C.ar    1  LIG1        0.0308
     44 N          -7.0680   -7.9332   -0.0712 N.ar    1  LIG1       -0.2592
     45 H          -9.8609   -5.1867    0.0081 H       1  LIG1        0.0628
     46 H          -8.6368   -9.5343   -0.0742 H       1  LIG1        0.0832
     47 C          -5.4930   -6.3377   -0.0683 C.3     1  LIG1       -0.0217
     48 H          -5.3306   -5.4062    0.4325 H       1  LIG1        0.0293
     49 H          -5.1548   -6.2620   -1.0807 H       1  LIG1        0.0293
     50 H          -4.9495   -7.1114    0.4325 H       1  LIG1        0.0293
     51 C         -10.6552   -7.6973   -0.0185 C.3     1  LIG1       -0.0383
     52 H         -10.7331   -8.6362    0.4890 H       1  LIG1        0.0278
     53 H         -11.0040   -7.8056   -1.0243 H       1  LIG1        0.0278
     54 H         -11.2504   -6.9672    0.4889 H       1  LIG1        0.0278
@<TRIPOS>BOND
     1    49    47    1
     2    53    51    1
     3    38    35    1
     4    24    22    1
     5    23    22    1
     6    46    43    1
     7    44    43   ar
     8    44    39   ar
     9    47    39    1
    10    47    50    1
    11    47    48    1
    12    43    42   ar
    13    39    40   ar
    14    30    29    1
    15    42    51    1
    16    42    41   ar
    17    40    41   ar
    18    40    28    1
    19    51    54    1
    20    51    52    1
    21    29    28   ar
    22    29    25   ar
    23    41    45    1
    24    28    27   ar
    25    18    14    1
    26     2     9    1
    27     2     1   ar
    28     2     3   ar
    29     4    13    1
    30     4     5   ar
    31     4     3   ar
    32     6     5    1
    33     9     8    3
    34    21    20    1
    35    13    12   ar
    36    13    14   ar
    37    20    19    3
    38    19    12    1
    39     5     1   ar
    40    12    17   ar
    41    14    15   ar
    42     1     7    1
    43     3    11    1
    44    17    16   ar
    45    15    16   ar
    46    15    22    1
    47    16    25    1
    48    25    26   ar
    49    11    10    3
    50    27    26   ar
    51    27    34    1
    52    26    31    1
    53    34    35    1
    54    35    36    1
    55    35    37    1
    56    31    32    3
    57    32    33    1
