@<TRIPOS>MOLECULE
mol_data/noopt/geoms/mol2/13dd13dd-4dd13dd.out
 44 47 0 0 0
SMALL
GASTEIGER

@<TRIPOS>ATOM
      1 C           1.1215   -0.3259    0.0002 C.ar    1  LIG1        0.0210
      2 C           0.7176    0.9721   -0.0005 C.ar    1  LIG1        0.0870
      3 C          -0.7144    0.9744    0.0003 C.ar    1  LIG1        0.0957
      4 C          -1.1226   -0.3223   -0.0003 C.ar    1  LIG1        0.0831
      5 N          -0.0018   -1.1217    0.0001 N.ar    1  LIG1       -0.3573
      6 H          -0.0034   -2.1157   -0.0003 H       1  LIG1        0.1655
      7 H           2.3167   -0.8373    0.0007 H       1  LIG1        0.0820
      8 N           2.1747    2.9375   -0.0001 N.1     1  LIG1       -0.1908
      9 C           1.4918    2.0164   -0.0003 C.1     1  LIG1        0.1020
     10 N          -2.1652    2.9444    0.0016 N.1     1  LIG1       -0.1908
     11 C          -1.4853    2.0212    0.0010 C.1     1  LIG1        0.1026
     12 C          -2.3194   -0.8299   -0.0001 C.ar    1  LIG1        0.0835
     13 C          -2.7274   -2.1266   -0.0005 C.ar    1  LIG1        0.0964
     14 C          -4.1594   -2.1244    0.0011 C.ar    1  LIG1        0.0950
     15 C          -4.5635   -0.8264    0.0006 C.ar    1  LIG1        0.0671
     16 N          -3.4402   -0.0305    0.0003 N.ar    1  LIG1       -0.3509
     17 H          -3.4386    0.9635   -0.0001 H       1  LIG1        0.1660
     18 N          -1.2766   -4.0966   -0.0007 N.1     1  LIG1       -0.1908
     19 C          -1.9565   -3.1734   -0.0006 C.1     1  LIG1        0.1026
     20 N          -5.6165   -4.0898    0.0034 N.1     1  LIG1       -0.1908
     21 C          -4.9336   -3.1687    0.0023 C.1     1  LIG1        0.1026
     22 C          -5.9236    1.0852    0.0026 C.ar    1  LIG1        0.0616
     23 C          -7.2385    1.5895    0.0050 C.ar    1  LIG1       -0.0333
     24 C          -5.7587   -0.3150    0.0014 C.ar    1  LIG1        0.0182
     25 C          -8.3419    0.7391    0.0056 C.ar    1  LIG1        0.0182
     26 H          -7.3885    2.6668    0.0062 H       1  LIG1        0.0637
     27 C          -6.8598   -1.1644    0.0020 C.ar    1  LIG1       -0.0333
     28 C          -8.1582   -0.6442    0.0040 C.ar    1  LIG1        0.0616
     29 H          -6.7065   -2.2406    0.0011 H       1  LIG1        0.0637
     30 N          -4.0617    2.6724    0.0014 N.1     1  LIG1       -0.1908
     31 C          -4.9343    1.9285    0.0020 C.1     1  LIG1        0.0998
     32 N         -10.0883   -2.1477    0.0052 N.1     1  LIG1       -0.1908
     33 C          -9.1838   -1.4431    0.0046 C.1     1  LIG1        0.0998
     34 C          -9.5420    1.2389    0.0077 C.ar    1  LIG1        0.0666
     35 C          -9.9585    2.5329    0.0088 C.ar    1  LIG1        0.0943
     36 C         -11.3904    2.5213    0.0122 C.ar    1  LIG1        0.0870
     37 C         -11.7860    1.2207    0.0113 C.ar    1  LIG1        0.0209
     38 N         -10.6575    0.4322    0.0090 N.ar    1  LIG1       -0.3584
     39 H         -10.6495   -0.5617    0.0079 H       1  LIG1        0.1654
     40 H         -12.9778    0.7015    0.0134 H       1  LIG1        0.0820
     41 N          -8.5205    4.5124    0.0080 N.1     1  LIG1       -0.1908
     42 C          -9.1944    3.5847    0.0084 C.1     1  LIG1        0.1026
     43 N         -12.8602    4.4772    0.0178 N.1     1  LIG1       -0.1908
     44 C         -12.1714    3.5606    0.0152 C.1     1  LIG1        0.1020
@<TRIPOS>BOND
     1    18    19    3
     2    19    13    1
     3     2     9    1
     4     2     1   ar
     5     2     3   ar
     6    13    12   ar
     7    13    14   ar
     8     4    12    1
     9     4     5   ar
    10     4     3   ar
    11     6     5    1
    12     9     8    3
    13    17    16    1
    14    12    16   ar
    15     5     1   ar
    16     1     7    1
    17     3    11    1
    18    16    15   ar
    19    15    14   ar
    20    15    24    1
    21    11    10    3
    22    14    21    1
    23    29    27    1
    24    30    31    3
    25    24    27   ar
    26    24    22   ar
    27    31    22    1
    28    27    28   ar
    29    21    20    3
    30    22    23   ar
    31    28    33    1
    32    28    25   ar
    33    33    32    3
    34    23    25   ar
    35    23    26    1
    36    25    34    1
    37    34    35   ar
    38    34    38   ar
    39    39    38    1
    40    41    42    3
    41    42    35    1
    42    35    36   ar
    43    38    37   ar
    44    37    36   ar
    45    37    40    1
    46    36    44    1
    47    44    43    3
