@<TRIPOS>MOLECULE
mol_data/noopt/geoms/mol2/13dd13dd-13dd13dd-.out
 42 45 0 0 0
SMALL
GASTEIGER

@<TRIPOS>ATOM
      1 C           1.1215   -0.3259    0.0002 C.ar    1  LIG1        0.0210
      2 C           0.7176    0.9721   -0.0005 C.ar    1  LIG1        0.0870
      3 C          -0.7144    0.9744    0.0003 C.ar    1  LIG1        0.0957
      4 C          -1.1226   -0.3223   -0.0003 C.ar    1  LIG1        0.0831
      5 N          -0.0018   -1.1217    0.0001 N.ar    1  LIG1       -0.3573
      6 H          -0.0034   -2.1157   -0.0003 H       1  LIG1        0.1655
      7 H           2.3167   -0.8373    0.0007 H       1  LIG1        0.0820
      8 N           2.1747    2.9375   -0.0001 N.1     1  LIG1       -0.1908
      9 C           1.4918    2.0164   -0.0003 C.1     1  LIG1        0.1020
     10 N          -2.1652    2.9444    0.0016 N.1     1  LIG1       -0.1908
     11 C          -1.4853    2.0212    0.0010 C.1     1  LIG1        0.1026
     12 C          -2.3194   -0.8299   -0.0001 C.ar    1  LIG1        0.0835
     13 C          -2.7274   -2.1266   -0.0005 C.ar    1  LIG1        0.0964
     14 C          -4.1594   -2.1244    0.0011 C.ar    1  LIG1        0.0964
     15 C          -4.5635   -0.8264    0.0006 C.ar    1  LIG1        0.0835
     16 N          -3.4402   -0.0305    0.0003 N.ar    1  LIG1       -0.3497
     17 H          -3.4386    0.9635   -0.0001 H       1  LIG1        0.1661
     18 N          -1.2766   -4.0966   -0.0007 N.1     1  LIG1       -0.1908
     19 C          -1.9565   -3.1734   -0.0006 C.1     1  LIG1        0.1026
     20 N          -5.6165   -4.0898    0.0034 N.1     1  LIG1       -0.1908
     21 C          -4.9336   -3.1687    0.0023 C.1     1  LIG1        0.1026
     22 C          -5.7587   -0.3150    0.0014 C.ar    1  LIG1        0.0835
     23 C          -6.1626    0.9830    0.0016 C.ar    1  LIG1        0.0964
     24 C          -7.5946    0.9853    0.0038 C.ar    1  LIG1        0.0964
     25 C          -8.0028   -0.3114    0.0030 C.ar    1  LIG1        0.0835
     26 N          -6.8820   -1.1108    0.0021 N.ar    1  LIG1       -0.3497
     27 H          -6.8836   -2.1048    0.0013 H       1  LIG1        0.1661
     28 N          -4.7055    2.9484    0.0014 N.1     1  LIG1       -0.1908
     29 C          -5.3884    2.0273    0.0015 C.1     1  LIG1        0.1026
     30 N          -9.0454    2.9553    0.0072 N.1     1  LIG1       -0.1908
     31 C          -8.3655    2.0321    0.0056 C.1     1  LIG1        0.1026
     32 C          -9.1996   -0.8190    0.0041 C.ar    1  LIG1        0.0831
     33 C          -9.6076   -2.1157    0.0044 C.ar    1  LIG1        0.0957
     34 C         -11.0396   -2.1135    0.0069 C.ar    1  LIG1        0.0870
     35 C         -11.4437   -0.8155    0.0063 C.ar    1  LIG1        0.0210
     36 N         -10.3204   -0.0196    0.0051 N.ar    1  LIG1       -0.3573
     37 H         -10.3188    0.9744    0.0043 H       1  LIG1        0.1655
     38 H         -12.6389   -0.3041    0.0077 H       1  LIG1        0.0820
     39 N          -8.1568   -4.0857    0.0037 N.1     1  LIG1       -0.1908
     40 C          -8.8367   -3.1625    0.0040 C.1     1  LIG1        0.1026
     41 N         -12.4967   -4.0789    0.0107 N.1     1  LIG1       -0.1908
     42 C         -11.8138   -3.1578    0.0089 C.1     1  LIG1        0.1020
@<TRIPOS>BOND
     1    18    19    3
     2    19    13    1
     3     2     9    1
     4     2     1   ar
     5     2     3   ar
     6    13    12   ar
     7    13    14   ar
     8     4    12    1
     9     4     5   ar
    10     4     3   ar
    11     6     5    1
    12     9     8    3
    13    17    16    1
    14    12    16   ar
    15     5     1   ar
    16     1     7    1
    17     3    11    1
    18    16    15   ar
    19    15    14   ar
    20    15    22    1
    21    11    10    3
    22    14    21    1
    23    27    26    1
    24    28    29    3
    25    22    23   ar
    26    22    26   ar
    27    29    23    1
    28    23    24   ar
    29    26    25   ar
    30    21    20    3
    31    25    24   ar
    32    25    32    1
    33    39    40    3
    34    24    31    1
    35    40    33    1
    36    32    33   ar
    37    32    36   ar
    38    37    36    1
    39    33    34   ar
    40    36    35   ar
    41    31    30    3
    42    35    34   ar
    43    35    38    1
    44    34    42    1
    45    42    41    3
