@<TRIPOS>MOLECULE
mol_data/noopt/geoms/mol2/13de13de-13de-13de.out
 46 50 0 0 0
SMALL
GASTEIGER

@<TRIPOS>ATOM
      1 C           1.1215   -0.3259    0.0002 C.ar    1  LIG1        0.0209
      2 C           0.7176    0.9721   -0.0005 C.ar    1  LIG1        0.0850
      3 C          -0.7144    0.9744    0.0003 C.ar    1  LIG1        0.0685
      4 C          -1.1226   -0.3223   -0.0003 C.ar    1  LIG1        0.0785
      5 N          -0.0018   -1.1217    0.0001 N.ar    1  LIG1       -0.3575
      6 H          -0.0034   -2.1157   -0.0003 H       1  LIG1        0.1654
      7 H           2.3167   -0.8373    0.0007 H       1  LIG1        0.0820
      8 N           2.1747    2.9375   -0.0001 N.1     1  LIG1       -0.1908
      9 C           1.4918    2.0164   -0.0003 C.1     1  LIG1        0.1019
     10 C          -1.4853    2.0212    0.0010 C.1     1  LIG1       -0.0662
     11 C          -2.1976    2.9884    0.0016 C.1     1  LIG1       -0.1138
     12 H          -2.8321    3.8500    0.0022 H       1  LIG1        0.1232
     13 C          -2.3194   -0.8299   -0.0001 C.2     1  LIG1        0.0715
     14 C          -2.7274   -2.1266   -0.0005 C.2     1  LIG1        0.0879
     15 C          -4.1594   -2.1244    0.0011 C.2     1  LIG1        0.0470
     16 C          -4.5635   -0.8264    0.0006 C.3     1  LIG1        0.1382
     17 N          -3.4402   -0.0305    0.0003 N.pl3   1  LIG1       -0.3240
     18 H          -3.4386    0.9635   -0.0001 H       1  LIG1        0.1475
     19 N          -1.2766   -4.0966   -0.0007 N.1     1  LIG1       -0.1908
     20 C          -1.9565   -3.1734   -0.0006 C.1     1  LIG1        0.1020
     21 C          -4.9336   -3.1687    0.0023 C.1     1  LIG1       -0.0957
     22 C          -5.6490   -4.1337    0.0035 C.2     1  LIG1        0.0549
     23 H          -6.2862   -4.9932    0.0045 H       1  LIG1        0.0888
     24 C          -5.7587   -0.3150    0.0014 C.ar    1  LIG1        0.0549
     25 C          -6.9765   -0.9191    0.0015 C.ar    1  LIG1        0.0218
     26 C          -7.9670    0.1151    0.0037 C.ar    1  LIG1        0.0571
     27 C          -7.3109    1.3057    0.0031 C.ar    1  LIG1        0.0803
     28 N          -5.9587    1.0470    0.0022 N.ar    1  LIG1       -0.3534
     29 H          -5.2408    1.7345    0.0016 H       1  LIG1        0.1658
     30 N          -7.3920   -3.3302    0.0010 N.pl3   1  LIG1       -0.2335
     31 C          -7.1973   -2.2002    0.0012 C.3     1  LIG1        0.1403
     32 C          -9.2564   -0.0501    0.0054 C.1     1  LIG1       -0.0671
     33 C         -10.4479   -0.2027    0.0070 C.1     1  LIG1       -0.1138
     34 H         -11.5092   -0.3387    0.0085 H       1  LIG1        0.1232
     35 C          -7.7701    2.5219    0.0044 C.ar    1  LIG1        0.0829
     36 C          -7.1139    3.7125    0.0049 C.ar    1  LIG1        0.0937
     37 C          -8.1043    4.7467    0.0074 C.ar    1  LIG1        0.0600
     38 C          -9.3222    4.1427    0.0066 C.ar    1  LIG1        0.0190
     39 N          -9.1222    2.7807    0.0052 N.ar    1  LIG1       -0.3573
     40 H          -9.8401    2.0932    0.0043 H       1  LIG1        0.1655
     41 H         -10.5174    4.6541    0.0080 H       1  LIG1        0.0820
     42 N          -4.6871    4.0233    0.0045 N.1     1  LIG1       -0.1908
     43 C          -5.8244    3.8776    0.0047 C.1     1  LIG1        0.1026
     44 C          -7.8835    6.0278    0.0096 C.1     1  LIG1       -0.0669
     45 C          -7.6795    7.2116    0.0116 C.1     1  LIG1       -0.1138
     46 H          -7.4977    8.2660    0.0134 H       1  LIG1        0.1232
@<TRIPOS>BOND
     1    19    20    3
     2    20    14    1
     3     2     9    1
     4     2     1   ar
     5     2     3   ar
     6    14    13    2
     7    14    15    1
     8     4    13    1
     9     4     5   ar
    10     4     3   ar
    11     6     5    1
    12     9     8    3
    13    18    17    1
    14    13    17    1
    15     5     1   ar
    16     1     7    1
    17     3    10    1
    18    17    16    1
    19    16    15    1
    20    16    24    1
    21    30    31    1
    22    30    22    1
    23    10    11    3
    24    15    21    2
    25    31    25    1
    26    24    25   ar
    27    24    28   ar
    28    25    26   ar
    29    29    28    1
    30    11    12    1
    31    28    27   ar
    32    21    22    2
    33    27    26   ar
    34    27    35    1
    35    22    23    1
    36    26    32    1
    37    40    39    1
    38    35    36   ar
    39    35    39   ar
    40    42    43    3
    41    43    36    1
    42    36    37   ar
    43    39    38   ar
    44    32    33    3
    45    38    37   ar
    46    38    41    1
    47    33    34    1
    48    37    44    1
    49    44    45    3
    50    45    46    1
