@<TRIPOS>MOLECULE
mol_data/noopt/geoms/mol2/13de13de13de-13de.out
 46 50 0 0 0
SMALL
GASTEIGER

@<TRIPOS>ATOM
      1 C           1.1215   -0.3259    0.0002 C.2     1  LIG1        0.0090
      2 C           0.7176    0.9721   -0.0005 C.2     1  LIG1        0.0785
      3 C          -0.7144    0.9744    0.0003 C.2     1  LIG1        0.0463
      4 C          -1.1226   -0.3223   -0.0003 C.3     1  LIG1        0.1378
      5 N          -0.0018   -1.1217    0.0001 N.pl3   1  LIG1       -0.3315
      6 H          -0.0034   -2.1157   -0.0003 H       1  LIG1        0.1469
      7 H           2.3167   -0.8373    0.0007 H       1  LIG1        0.0792
      8 N           2.1747    2.9375   -0.0001 N.1     1  LIG1       -0.1908
      9 C           1.4918    2.0164   -0.0003 C.1     1  LIG1        0.1014
     10 C          -1.4853    2.0212    0.0010 C.1     1  LIG1       -0.0957
     11 C          -2.1976    2.9884    0.0016 C.2     1  LIG1        0.0549
     12 H          -2.8321    3.8500    0.0022 H       1  LIG1        0.0888
     13 C          -2.3194   -0.8299   -0.0001 C.ar    1  LIG1        0.0549
     14 C          -3.5353   -0.2219   -0.0003 C.ar    1  LIG1        0.0218
     15 C          -4.5290   -1.2530    0.0012 C.ar    1  LIG1        0.0571
     16 C          -3.8767   -2.4457    0.0005 C.ar    1  LIG1        0.0804
     17 N          -2.5238   -2.1913    0.0002 N.ar    1  LIG1       -0.3534
     18 H          -1.8081   -2.8811   -0.0004 H       1  LIG1        0.1658
     19 N          -3.9431    2.1904   -0.0003 N.pl3   1  LIG1       -0.2335
     20 C          -3.7520    1.0599   -0.0003 C.3     1  LIG1        0.1403
     21 C          -5.8179   -1.0837    0.0025 C.1     1  LIG1       -0.0671
     22 C          -7.0089   -0.9273    0.0037 C.1     1  LIG1       -0.1138
     23 H          -8.0698   -0.7879    0.0048 H       1  LIG1        0.1232
     24 C          -4.3398   -3.6604    0.0012 C.ar    1  LIG1        0.0834
     25 C          -3.6874   -4.8530    0.0012 C.ar    1  LIG1        0.0944
     26 C          -4.6811   -5.8841    0.0032 C.ar    1  LIG1        0.0694
     27 C          -5.8970   -5.2763    0.0027 C.ar    1  LIG1        0.0815
     28 N          -5.6927   -3.9149    0.0019 N.ar    1  LIG1       -0.3498
     29 H          -6.4084   -3.2251    0.0013 H       1  LIG1        0.1661
     30 N          -1.2616   -5.1716    0.0007 N.1     1  LIG1       -0.1908
     31 C          -2.3984   -5.0223    0.0009 C.1     1  LIG1        0.1026
     32 C          -4.4643   -7.1660    0.0049 C.1     1  LIG1       -0.0662
     33 C          -4.2641   -8.3503    0.0064 C.1     1  LIG1       -0.1138
     34 H          -4.0857   -9.4054    0.0077 H       1  LIG1        0.1232
     35 C          -7.0939   -5.7839    0.0038 C.ar    1  LIG1        0.0829
     36 C          -8.3097   -5.1759    0.0043 C.ar    1  LIG1        0.0937
     37 C          -9.3034   -6.2070    0.0067 C.ar    1  LIG1        0.0600
     38 C          -8.6511   -7.3997    0.0060 C.ar    1  LIG1        0.0190
     39 N          -7.2982   -7.1453    0.0047 N.ar    1  LIG1       -0.3573
     40 H          -6.5825   -7.8351    0.0038 H       1  LIG1        0.1655
     41 H          -9.1142   -8.6144    0.0073 H       1  LIG1        0.0820
     42 N          -8.7176   -2.7636    0.0039 N.1     1  LIG1       -0.1908
     43 C          -8.5264   -3.8941    0.0041 C.1     1  LIG1        0.1026
     44 C         -10.5924   -6.0377    0.0089 C.1     1  LIG1       -0.0669
     45 C         -11.7833   -5.8813    0.0108 C.1     1  LIG1       -0.1138
     46 H         -12.8442   -5.7420    0.0126 H       1  LIG1        0.1232
@<TRIPOS>BOND
     1     2     9    1
     2     2     1    2
     3     2     3    1
     4    18    17    1
     5    14    20    1
     6    14    13   ar
     7    14    15   ar
     8     4    13    1
     9     4     5    1
    10     4     3    1
    11     6     5    1
    12     9     8    3
    13    20    19    1
    14    19    11    1
    15    13    17   ar
    16     5     1    1
    17    17    16   ar
    18     1     7    1
    19     3    10    2
    20    16    15   ar
    21    16    24    1
    22    30    31    3
    23    31    25    1
    24    10    11    2
    25    25    24   ar
    26    25    26   ar
    27    15    21    1
    28    24    28   ar
    29    29    28    1
    30    11    12    1
    31    28    27   ar
    32    21    22    3
    33    27    26   ar
    34    27    35    1
    35    26    32    1
    36    22    23    1
    37    40    39    1
    38    35    36   ar
    39    35    39   ar
    40    42    43    3
    41    43    36    1
    42    36    37   ar
    43    39    38   ar
    44    32    33    3
    45    38    37   ar
    46    38    41    1
    47    33    34    1
    48    37    44    1
    49    44    45    3
    50    45    46    1
