@<TRIPOS>MOLECULE
mol_data/noopt/geoms/mol2/13de4al-12il-12il.out
 55 55 0 0 0
SMALL
GASTEIGER

@<TRIPOS>ATOM
      1 C           1.1215   -0.3259    0.0002 C.ar    1  LIG1        0.0209
      2 C           0.7176    0.9721   -0.0005 C.ar    1  LIG1        0.0850
      3 C          -0.7144    0.9744    0.0003 C.ar    1  LIG1        0.0672
      4 C          -1.1226   -0.3223   -0.0003 C.ar    1  LIG1        0.0634
      5 N          -0.0018   -1.1217    0.0001 N.ar    1  LIG1       -0.3585
      6 H          -0.0034   -2.1157   -0.0003 H       1  LIG1        0.1654
      7 H           2.3167   -0.8373    0.0007 H       1  LIG1        0.0820
      8 N           2.1747    2.9375   -0.0001 N.1     1  LIG1       -0.1908
      9 C           1.4918    2.0164   -0.0003 C.1     1  LIG1        0.1019
     10 C          -1.4853    2.0212    0.0010 C.1     1  LIG1       -0.0663
     11 C          -2.1976    2.9884    0.0016 C.1     1  LIG1       -0.1138
     12 H          -2.8321    3.8500    0.0022 H       1  LIG1        0.1232
     13 C          -3.4433    0.0211    0.0221 C.ar    1  LIG1       -0.0518
     14 C          -4.7179   -0.5778    0.0229 C.ar    1  LIG1       -0.0497
     15 C          -2.3194   -0.8299   -0.0001 C.ar    1  LIG1        0.0032
     16 C          -4.8691   -1.9625    0.0019 C.ar    1  LIG1        0.0298
     17 H          -5.5986    0.0603    0.0400 H       1  LIG1        0.0625
     18 C          -2.4698   -2.2123   -0.0211 C.ar    1  LIG1       -0.0052
     19 C          -3.7445   -2.7882   -0.0203 C.ar    1  LIG1        0.1873
     20 H          -1.5876   -2.8471   -0.0379 H       1  LIG1        0.0662
     21 H          -3.3660    1.3186    0.0420 H       1  LIG1        0.0624
     22 O          -3.8789   -4.0811   -0.0398 O.3     1  LIG1       -0.2872
     23 C          -5.2691   -4.4164   -0.0470 C.3     1  LIG1        0.1118
     24 H          -5.3793   -5.4805   -0.0632 H       1  LIG1        0.0647
     25 H          -5.7355   -4.0228    0.8320 H       1  LIG1        0.2100
     26 H          -5.7327   -3.9965   -0.9151 H       2  UNK2        0.0000
     27 C          -6.0610   -2.4817    0.0032 C.2     1  LIG1        0.0003
     28 C          -7.3489   -1.9875    0.0042 C.2     1  LIG1        0.0003
     29 C          -8.2332   -3.1342    0.0054 C.2     1  LIG1        0.1350
     30 C          -7.4266   -4.2536    0.0050 C.2     1  LIG1        0.0736
     31 O          -6.0830   -3.8771    0.0036 O.3     1  LIG1       -0.3865
     32 C          -7.7235   -0.7423    0.0041 C.3     1  LIG1       -0.0356
     33 H          -8.6629   -0.6524    0.5085 H       1  LIG1        0.0279
     34 H          -7.8264   -0.4008   -1.0048 H       1  LIG1        0.0279
     35 H          -6.9897   -0.1491    0.5085 H       1  LIG1        0.0279
     36 O          -9.5325   -3.0890    0.0066 O.2     1  LIG1       -0.4941
     37 C          -9.9626   -1.7253    0.0069 C.3     1  LIG1        0.0788
     38 H         -11.0320   -1.6886    0.0077 H       1  LIG1        0.0660
     39 H          -9.5882   -1.2334    0.8804 H       1  LIG1        0.0660
     40 H          -9.5895   -1.2333   -0.8669 H       1  LIG1        0.0660
     41 C          -7.6251   -5.5383    0.0057 C.ar    1  LIG1        0.1456
     42 C          -8.7314   -6.3624    0.0062 C.ar    1  LIG1        0.0371
     43 C          -8.2352   -7.7228    0.0069 C.ar    1  LIG1        0.1611
     44 C          -6.8580   -7.6397    0.0066 C.ar    1  LIG1        0.1343
     45 O          -6.4577   -6.3031    0.0058 O.2     1  LIG1       -0.4588
     46 H          -5.8785   -8.4945    0.0070 H       1  LIG1        0.1068
     47 C          -9.9839   -6.0132    0.0062 C.3     1  LIG1       -0.0326
     48 H         -10.5621   -6.7589    0.5107 H       1  LIG1        0.0280
     49 H         -10.3276   -5.9174   -1.0026 H       1  LIG1        0.0280
     50 H         -10.0928   -5.0758    0.5106 H       1  LIG1        0.0280
     51 O          -8.9681   -8.7966    0.0075 O.3     1  LIG1       -0.4917
     52 C         -10.3506   -8.4309    0.0077 C.3     1  LIG1        0.0789
     53 H         -10.9534   -9.3149    0.0080 H       1  LIG1        0.0660
     54 H         -10.5662   -7.8518    0.8812 H       1  LIG1        0.0660
     55 H         -10.5666   -7.8523   -0.8661 H       1  LIG1        0.0660
@<TRIPOS>BOND
     1    34    32    1
     2    49    47    1
     3    40    37    1
     4    55    52    1
     5    24    23    1
     6    23    31    1
     7    22    19    1
     8    20    18    1
     9    18    19   ar
    10    18    15   ar
    11    19    16   ar
    12     2     9    1
    13     2     1   ar
    14     2     3   ar
    15     9     8    3
    16     6     5    1
    17     4    15    1
    18     4     5   ar
    19     4     3   ar
    20    15    13   ar
    21     5     1   ar
    22     1     7    1
    23     3    10    1
    24    10    11    3
    25    11    12    1
    26    16    27    1
    27    16    14   ar
    28    27    28    2
    29    31    25    1
    30    32    28    1
    31    32    35    1
    32    32    33    1
    33    28    29    1
    34    30    29    2
    35    30    41    1
    36    29    36    1
    37    41    45   ar
    38    41    42   ar
    39    45    44   ar
    40    42    47    1
    41    42    43   ar
    42    47    50    1
    43    47    48    1
    44    36    37    1
    45    44    43   ar
    46    44    46    1
    47    43    51    1
    48    37    38    1
    49    37    39    1
    50    51    52    1
    51    52    53    1
    52    52    54    1
    53    13    14   ar
    54    13    21    1
    55    14    17    1
