@<TRIPOS>MOLECULE
mol_data/noopt/geoms/mol2/13de13de-4de13de.out
 48 52 0 0 0
SMALL
GASTEIGER

@<TRIPOS>ATOM
      1 C           1.1215   -0.3259    0.0002 C.2     1  LIG1        0.0090
      2 C           0.7176    0.9721   -0.0005 C.2     1  LIG1        0.0785
      3 C          -0.7144    0.9744    0.0003 C.2     1  LIG1        0.0463
      4 C          -1.1226   -0.3223   -0.0003 C.3     1  LIG1        0.1387
      5 N          -0.0018   -1.1217    0.0001 N.pl3   1  LIG1       -0.3315
      6 H          -0.0034   -2.1157   -0.0003 H       1  LIG1        0.1469
      7 H           2.3167   -0.8373    0.0007 H       1  LIG1        0.0792
      8 N           2.1747    2.9375   -0.0001 N.1     1  LIG1       -0.1908
      9 C           1.4918    2.0164   -0.0003 C.1     1  LIG1        0.1014
     10 C          -1.4853    2.0212    0.0010 C.1     1  LIG1       -0.0957
     11 C          -2.1976    2.9884    0.0016 C.2     1  LIG1        0.0549
     12 H          -2.8321    3.8500    0.0022 H       1  LIG1        0.0888
     13 C          -2.3194   -0.8299   -0.0001 C.ar    1  LIG1        0.0669
     14 C          -2.7274   -2.1266   -0.0005 C.ar    1  LIG1        0.0908
     15 C          -4.1594   -2.1244    0.0011 C.ar    1  LIG1        0.0676
     16 C          -4.5635   -0.8264    0.0006 C.ar    1  LIG1        0.0640
     17 N          -3.4402   -0.0305    0.0003 N.ar    1  LIG1       -0.3539
     18 H          -3.4386    0.9635   -0.0001 H       1  LIG1        0.1657
     19 N          -1.2766   -4.0966   -0.0007 N.1     1  LIG1       -0.1908
     20 C          -1.9565   -3.1734   -0.0006 C.1     1  LIG1        0.1023
     21 C          -4.9336   -3.1687    0.0023 C.1     1  LIG1       -0.0662
     22 C          -5.6490   -4.1337    0.0035 C.1     1  LIG1       -0.1138
     23 H          -6.2862   -4.9932    0.0045 H       1  LIG1        0.1232
     24 C          -5.9236    1.0852    0.0026 C.ar    1  LIG1       -0.0075
     25 C          -7.2385    1.5895    0.0050 C.ar    1  LIG1       -0.0453
     26 C          -5.7587   -0.3150    0.0014 C.ar    1  LIG1        0.0062
     27 C          -8.3419    0.7391    0.0056 C.ar    1  LIG1        0.0153
     28 H          -7.3885    2.6668    0.0062 H       1  LIG1        0.0628
     29 C          -6.8598   -1.1644    0.0020 C.ar    1  LIG1       -0.0362
     30 C          -8.1582   -0.6442    0.0040 C.ar    1  LIG1        0.0344
     31 H          -6.7065   -2.2406    0.0011 H       1  LIG1        0.0637
     32 N          -4.0617    2.6724    0.0014 N.pl3   1  LIG1       -0.2336
     33 C          -4.9343    1.9285    0.0020 C.3     1  LIG1        0.1379
     34 C          -9.1838   -1.4431    0.0046 C.1     1  LIG1       -0.0690
     35 C         -10.1314   -2.1813    0.0053 C.1     1  LIG1       -0.1139
     36 H         -10.9755   -2.8388    0.0058 H       1  LIG1        0.1232
     37 C          -9.5420    1.2389    0.0077 C.ar    1  LIG1        0.0665
     38 C          -9.9585    2.5329    0.0088 C.ar    1  LIG1        0.0923
     39 C         -11.3904    2.5213    0.0122 C.ar    1  LIG1        0.0599
     40 C         -11.7860    1.2207    0.0113 C.ar    1  LIG1        0.0189
     41 N         -10.6575    0.4322    0.0090 N.ar    1  LIG1       -0.3585
     42 H         -10.6495   -0.5617    0.0079 H       1  LIG1        0.1654
     43 H         -12.9778    0.7015    0.0134 H       1  LIG1        0.0820
     44 N          -8.5205    4.5124    0.0080 N.1     1  LIG1       -0.1908
     45 C          -9.1944    3.5847    0.0084 C.1     1  LIG1        0.1025
     46 C         -12.1714    3.5606    0.0152 C.1     1  LIG1       -0.0669
     47 C         -12.8930    4.5208    0.0179 C.1     1  LIG1       -0.1138
     48 H         -13.5359    5.3762    0.0203 H       1  LIG1        0.1232
@<TRIPOS>BOND
     1    19    20    3
     2    20    14    1
     3     2     9    1
     4     2     1    2
     5     2     3    1
     6    14    13   ar
     7    14    15   ar
     8     4    13    1
     9     4     5    1
    10     4     3    1
    11     6     5    1
    12     9     8    3
    13    18    17    1
    14    13    17   ar
    15     5     1    1
    16     1     7    1
    17     3    10    2
    18    17    16   ar
    19    16    15   ar
    20    16    26    1
    21    10    11    2
    22    15    21    1
    23    31    29    1
    24    32    11    1
    25    32    33    1
    26    26    29   ar
    27    26    24   ar
    28    11    12    1
    29    33    24    1
    30    29    30   ar
    31    21    22    3
    32    24    25   ar
    33    22    23    1
    34    30    34    1
    35    30    27   ar
    36    34    35    3
    37    25    27   ar
    38    25    28    1
    39    35    36    1
    40    27    37    1
    41    37    38   ar
    42    37    41   ar
    43    42    41    1
    44    44    45    3
    45    45    38    1
    46    38    39   ar
    47    41    40   ar
    48    40    39   ar
    49    40    43    1
    50    39    46    1
    51    46    47    3
    52    47    48    1
