@<TRIPOS>MOLECULE
mol_data/noopt/geoms/mol2/13de13if-4de-4ef.out
 51 54 0 0 0
SMALL
GASTEIGER

@<TRIPOS>ATOM
      1 C           1.1215   -0.3259    0.0002 C.ar    1  LIG1        0.0209
      2 C           0.7176    0.9721   -0.0005 C.ar    1  LIG1        0.0850
      3 C          -0.7144    0.9744    0.0003 C.ar    1  LIG1        0.0687
      4 C          -1.1226   -0.3223   -0.0003 C.ar    1  LIG1        0.0801
      5 N          -0.0018   -1.1217    0.0001 N.ar    1  LIG1       -0.3573
      6 H          -0.0034   -2.1157   -0.0003 H       1  LIG1        0.1655
      7 H           2.3167   -0.8373    0.0007 H       1  LIG1        0.0820
      8 N           2.1747    2.9375   -0.0001 N.1     1  LIG1       -0.1908
      9 C           1.4918    2.0164   -0.0003 C.1     1  LIG1        0.1019
     10 C          -1.4853    2.0212    0.0010 C.1     1  LIG1       -0.0662
     11 C          -2.1976    2.9884    0.0016 C.1     1  LIG1       -0.1138
     12 H          -2.8321    3.8500    0.0022 H       1  LIG1        0.1232
     13 C          -2.3194   -0.8299   -0.0001 C.ar    1  LIG1        0.0711
     14 C          -3.5353   -0.2219   -0.0003 C.ar    1  LIG1        0.0183
     15 C          -4.5290   -1.2530    0.0012 C.ar    1  LIG1        0.1456
     16 C          -3.8767   -2.4457    0.0005 C.ar    1  LIG1        0.0905
     17 N          -2.5238   -2.1913    0.0002 N.ar    1  LIG1       -0.3498
     18 H          -1.8081   -2.8811   -0.0004 H       1  LIG1        0.1661
     19 C          -3.7520    1.0602   -0.0003 C.3     1  LIG1       -0.0342
     20 H          -4.6729    1.2662    0.5041 H       1  LIG1        0.0279
     21 H          -3.8116    1.4119   -1.0091 H       1  LIG1        0.0279
     22 H          -2.9500    1.5575    0.5041 H       1  LIG1        0.0279
     23 O          -5.8180   -1.0837    0.0025 O.3     1  LIG1       -0.5044
     24 H          -6.2535   -1.9392    0.0028 H       1  LIG1        0.2922
     25 C          -5.7321   -3.8814    0.0237 C.ar    1  LIG1        0.0616
     26 C          -6.1832   -5.2154    0.0250 C.ar    1  LIG1       -0.0348
     27 C          -4.3398   -3.6604    0.0012 C.ar    1  LIG1        0.0204
     28 C          -5.2895   -6.2838    0.0042 C.ar    1  LIG1        0.0000
     29 H          -7.2536   -5.4085    0.0423 H       1  LIG1        0.0637
     30 C          -3.4471   -4.7266   -0.0195 C.ar    1  LIG1       -0.0353
     31 C          -3.9149   -6.0448   -0.0182 C.ar    1  LIG1        0.0331
     32 H          -2.3781   -4.5302   -0.0365 H       1  LIG1        0.0637
     33 N          -7.3923   -2.0846    0.0607 N.1     1  LIG1       -0.1908
     34 C          -6.6142   -2.9267    0.0434 C.1     1  LIG1        0.0998
     35 C          -3.0757   -7.0375   -0.0375 C.1     1  LIG1       -0.0690
     36 C          -2.3003   -7.9547   -0.0553 C.1     1  LIG1       -0.1139
     37 H          -1.6096   -8.7717   -0.0711 H       1  LIG1        0.1232
     38 C          -7.1310   -7.7373    0.0077 C.ar    1  LIG1        0.0326
     39 C          -7.5692   -9.0757    0.0112 C.ar    1  LIG1       -0.0423
     40 C          -5.7407   -7.5029    0.0060 C.ar    1  LIG1        0.0021
     41 C          -6.6650  -10.1354    0.0122 C.ar    1  LIG1       -0.0190
     42 H          -8.6378   -9.2791    0.0127 H       1  LIG1        0.0631
     43 C          -4.8376   -8.5604    0.0071 C.ar    1  LIG1       -0.0113
     44 C          -5.2925   -9.8831    0.0101 C.ar    1  LIG1        0.1175
     45 H          -3.7704   -8.3537    0.0058 H       1  LIG1        0.0660
     46 H          -7.1044  -11.3589    0.0153 H       1  LIG1        0.0654
     47 C          -8.0226   -6.7912    0.0066 C.1     1  LIG1       -0.0690
     48 C          -8.8463   -5.9170    0.0056 C.1     1  LIG1       -0.1139
     49 H          -9.5801   -5.1383    0.0047 H       1  LIG1        0.1232
     50 O          -4.4435  -10.8677    0.0112 O.3     1  LIG1       -0.5067
     51 H          -3.5490  -10.5194    0.0115 H       1  LIG1        0.2921
@<TRIPOS>BOND
     1    21    19    1
     2    37    36    1
     3    36    35    3
     4    35    31    1
     5    32    30    1
     6    30    31   ar
     7    30    27   ar
     8    31    28   ar
     9     2     9    1
    10     2     1   ar
    11     2     3   ar
    12    18    17    1
    13    14    19    1
    14    14    13   ar
    15    14    15   ar
    16     4    13    1
    17     4     5   ar
    18     4     3   ar
    19     6     5    1
    20     9     8    3
    21    19    22    1
    22    19    20    1
    23    13    17   ar
    24     5     1   ar
    25    17    16   ar
    26     1     7    1
    27     3    10    1
    28    16    15   ar
    29    16    27    1
    30    10    11    3
    31    15    23    1
    32    27    25   ar
    33    11    12    1
    34    23    24    1
    35    28    40    1
    36    28    26   ar
    37    49    48    1
    38    48    47    3
    39    45    43    1
    40    40    43   ar
    41    40    38   ar
    42    47    38    1
    43    43    44   ar
    44    38    39   ar
    45    44    50    1
    46    44    41   ar
    47    39    41   ar
    48    39    42    1
    49    50    51    1
    50    41    46    1
    51    25    26   ar
    52    25    34    1
    53    26    29    1
    54    34    33    3
