@<TRIPOS>MOLECULE
mol_data/noopt/geoms/mol2/13de13de.out
 24 26 0 0 0
SMALL
GASTEIGER

@<TRIPOS>ATOM
      1 C           1.1215   -0.3259    0.0002 C.2     1  LIG1        0.0090
      2 C           0.7176    0.9721   -0.0005 C.2     1  LIG1        0.0785
      3 C          -0.7144    0.9744    0.0003 C.2     1  LIG1        0.0463
      4 C          -1.1226   -0.3223   -0.0003 C.3     1  LIG1        0.1377
      5 N          -0.0018   -1.1217    0.0001 N.pl3   1  LIG1       -0.3315
      6 H          -0.0034   -2.1157   -0.0003 H       1  LIG1        0.1469
      7 H           2.3167   -0.8373    0.0007 H       1  LIG1        0.0792
      8 N           2.1747    2.9375   -0.0001 N.1     1  LIG1       -0.1908
      9 C           1.4918    2.0164   -0.0003 C.1     1  LIG1        0.1014
     10 C          -1.4853    2.0212    0.0010 C.1     1  LIG1       -0.0957
     11 C          -2.1976    2.9884    0.0016 C.2     1  LIG1        0.0549
     12 H          -2.8321    3.8500    0.0022 H       1  LIG1        0.0888
     13 C          -2.3194   -0.8299   -0.0001 C.ar    1  LIG1        0.0544
     14 C          -3.5353   -0.2219   -0.0003 C.ar    1  LIG1        0.0212
     15 C          -4.5290   -1.2530    0.0012 C.ar    1  LIG1        0.0477
     16 C          -3.8767   -2.4457    0.0005 C.ar    1  LIG1        0.0178
     17 N          -2.5238   -2.1913    0.0002 N.ar    1  LIG1       -0.3610
     18 H          -1.8081   -2.8811   -0.0004 H       1  LIG1        0.1651
     19 H          -4.3398   -3.6604    0.0012 H       1  LIG1        0.0819
     20 N          -3.9431    2.1904   -0.0003 N.pl3   1  LIG1       -0.2335
     21 C          -3.7520    1.0599   -0.0003 C.3     1  LIG1        0.1403
     22 C          -5.8179   -1.0837    0.0025 C.1     1  LIG1       -0.0678
     23 C          -7.0089   -0.9273    0.0037 C.1     1  LIG1       -0.1139
     24 H          -8.0698   -0.7879    0.0048 H       1  LIG1        0.1232
@<TRIPOS>BOND
     1     2     9    1
     2     2     1    2
     3     2     3    1
     4    18    17    1
     5    14    21    1
     6    14    13   ar
     7    14    15   ar
     8     4    13    1
     9     4     5    1
    10     4     3    1
    11     6     5    1
    12     9     8    3
    13    21    20    1
    14    20    11    1
    15    13    17   ar
    16     5     1    1
    17    17    16   ar
    18     1     7    1
    19     3    10    2
    20    16    15   ar
    21    16    19    1
    22    10    11    2
    23    15    22    1
    24    11    12    1
    25    22    23    3
    26    23    24    1
