@<TRIPOS>MOLECULE
mol_data/noopt/geoms/mol2/13de13de-13de.out
 35 37 0 0 0
SMALL
GASTEIGER

@<TRIPOS>ATOM
      1 C           1.1215   -0.3259    0.0002 C.ar    1  LIG1        0.0209
      2 C           0.7176    0.9721   -0.0005 C.ar    1  LIG1        0.0850
      3 C          -0.7144    0.9744    0.0003 C.ar    1  LIG1        0.0687
      4 C          -1.1226   -0.3223   -0.0003 C.ar    1  LIG1        0.0810
      5 N          -0.0018   -1.1217    0.0001 N.ar    1  LIG1       -0.3573
      6 H          -0.0034   -2.1157   -0.0003 H       1  LIG1        0.1655
      7 H           2.3167   -0.8373    0.0007 H       1  LIG1        0.0820
      8 N           2.1747    2.9375   -0.0001 N.1     1  LIG1       -0.1908
      9 C           1.4918    2.0164   -0.0003 C.1     1  LIG1        0.1019
     10 C          -1.4853    2.0212    0.0010 C.1     1  LIG1       -0.0662
     11 C          -2.1976    2.9884    0.0016 C.1     1  LIG1       -0.1138
     12 H          -2.8321    3.8500    0.0022 H       1  LIG1        0.1232
     13 C          -2.3194   -0.8299   -0.0001 C.ar    1  LIG1        0.0834
     14 C          -2.7274   -2.1266   -0.0005 C.ar    1  LIG1        0.0944
     15 C          -4.1594   -2.1244    0.0011 C.ar    1  LIG1        0.0694
     16 C          -4.5635   -0.8264    0.0006 C.ar    1  LIG1        0.0815
     17 N          -3.4402   -0.0305    0.0003 N.ar    1  LIG1       -0.3498
     18 H          -3.4386    0.9635   -0.0001 H       1  LIG1        0.1661
     19 N          -1.2766   -4.0966   -0.0007 N.1     1  LIG1       -0.1908
     20 C          -1.9565   -3.1734   -0.0006 C.1     1  LIG1        0.1026
     21 C          -4.9336   -3.1687    0.0023 C.1     1  LIG1       -0.0662
     22 C          -5.6490   -4.1337    0.0035 C.1     1  LIG1       -0.1138
     23 H          -6.2862   -4.9932    0.0045 H       1  LIG1        0.1232
     24 C          -5.7587   -0.3150    0.0014 C.ar    1  LIG1        0.0829
     25 C          -6.1626    0.9830    0.0016 C.ar    1  LIG1        0.0937
     26 C          -7.5946    0.9853    0.0038 C.ar    1  LIG1        0.0600
     27 C          -8.0028   -0.3114    0.0030 C.ar    1  LIG1        0.0190
     28 N          -6.8820   -1.1108    0.0021 N.ar    1  LIG1       -0.3573
     29 H          -6.8836   -2.1048    0.0013 H       1  LIG1        0.1655
     30 H          -9.1996   -0.8190    0.0041 H       1  LIG1        0.0820
     31 N          -4.7055    2.9484    0.0014 N.1     1  LIG1       -0.1908
     32 C          -5.3884    2.0273    0.0015 C.1     1  LIG1        0.1026
     33 C          -8.3655    2.0321    0.0056 C.1     1  LIG1       -0.0669
     34 C          -9.0778    2.9993    0.0073 C.1     1  LIG1       -0.1138
     35 H          -9.7123    3.8609    0.0088 H       1  LIG1        0.1232
@<TRIPOS>BOND
     1    19    20    3
     2    20    14    1
     3     2     9    1
     4     2     1   ar
     5     2     3   ar
     6    14    13   ar
     7    14    15   ar
     8     4    13    1
     9     4     5   ar
    10     4     3   ar
    11     6     5    1
    12     9     8    3
    13    18    17    1
    14    13    17   ar
    15     5     1   ar
    16     1     7    1
    17     3    10    1
    18    17    16   ar
    19    16    15   ar
    20    16    24    1
    21    10    11    3
    22    15    21    1
    23    29    28    1
    24    31    32    3
    25    24    25   ar
    26    24    28   ar
    27    32    25    1
    28    25    26   ar
    29    11    12    1
    30    28    27   ar
    31    21    22    3
    32    27    26   ar
    33    27    30    1
    34    22    23    1
    35    26    33    1
    36    33    34    3
    37    34    35    1
