@<TRIPOS>MOLECULE
mol_data/noopt/geoms/mol2/13de13de13de.out
 35 39 0 0 0
SMALL
GASTEIGER

@<TRIPOS>ATOM
      1 C           1.1215   -0.3259    0.0002 C.2     1  LIG1        0.0090
      2 C           0.7176    0.9721   -0.0005 C.2     1  LIG1        0.0785
      3 C          -0.7144    0.9744    0.0003 C.2     1  LIG1        0.0461
      4 C          -1.1226   -0.3223   -0.0003 C.3     1  LIG1        0.1352
      5 N          -0.0018   -1.1217    0.0001 N.pl3   1  LIG1       -0.3317
      6 H          -0.0034   -2.1157   -0.0003 H       1  LIG1        0.1469
      7 H           2.3167   -0.8373    0.0007 H       1  LIG1        0.0792
      8 N           2.1747    2.9375   -0.0001 N.1     1  LIG1       -0.1908
      9 C           1.4918    2.0164   -0.0003 C.1     1  LIG1        0.1014
     10 C          -1.4853    2.0212    0.0010 C.1     1  LIG1       -0.0957
     11 C          -2.1976    2.9884    0.0016 C.2     1  LIG1        0.0549
     12 H          -2.8321    3.8500    0.0022 H       1  LIG1        0.0888
     13 C          -2.3194   -0.8299   -0.0001 C.2     1  LIG1        0.0430
     14 C          -3.5353   -0.2219   -0.0003 C.2     1  LIG1        0.0153
     15 C          -4.5290   -1.2530    0.0012 C.2     1  LIG1        0.0347
     16 C          -3.8767   -2.4457    0.0005 C.3     1  LIG1        0.1371
     17 N          -2.5238   -2.1913    0.0002 N.pl3   1  LIG1       -0.3276
     18 H          -1.8081   -2.8811   -0.0004 H       1  LIG1        0.1472
     19 N          -3.9431    2.1904   -0.0003 N.pl3   1  LIG1       -0.2335
     20 C          -3.7520    1.0599   -0.0003 C.3     1  LIG1        0.1398
     21 C          -5.8179   -1.0837    0.0025 C.1     1  LIG1       -0.0966
     22 C          -7.0089   -0.9273    0.0037 C.2     1  LIG1        0.0548
     23 H          -8.0698   -0.7879    0.0048 H       1  LIG1        0.0888
     24 C          -4.3398   -3.6604    0.0012 C.ar    1  LIG1        0.0544
     25 C          -5.6206   -4.1160    0.0013 C.ar    1  LIG1        0.0212
     26 C          -5.5655   -5.5470    0.0033 C.ar    1  LIG1        0.0477
     27 C          -4.2535   -5.9029    0.0026 C.ar    1  LIG1        0.0178
     28 N          -3.4996   -4.7510    0.0018 N.ar    1  LIG1       -0.3610
     29 H          -2.5064   -4.7127    0.0010 H       1  LIG1        0.1651
     30 H          -3.6983   -7.0784    0.0036 H       1  LIG1        0.0819
     31 N          -7.6428   -2.7389    0.0012 N.pl3   1  LIG1       -0.2335
     32 C          -6.6951   -3.3843    0.0012 C.3     1  LIG1        0.1403
     33 C          -6.5805   -6.3592    0.0050 C.1     1  LIG1       -0.0678
     34 C          -7.5184   -7.1097    0.0066 C.1     1  LIG1       -0.1139
     35 H          -8.3539   -7.7782    0.0080 H       1  LIG1        0.1232
@<TRIPOS>BOND
     1     2     9    1
     2     2     1    2
     3     2     3    1
     4    18    17    1
     5    14    20    1
     6    14    13    2
     7    14    15    1
     8     4    13    1
     9     4     5    1
    10     4     3    1
    11     6     5    1
    12     9     8    3
    13    20    19    1
    14    19    11    1
    15    13    17    1
    16     5     1    1
    17    17    16    1
    18     1     7    1
    19     3    10    2
    20    16    15    1
    21    16    24    1
    22    29    28    1
    23    10    11    2
    24    31    32    1
    25    31    22    1
    26    15    21    2
    27    24    25   ar
    28    24    28   ar
    29    32    25    1
    30    25    26   ar
    31    11    12    1
    32    28    27   ar
    33    21    22    2
    34    27    26   ar
    35    27    30    1
    36    26    33    1
    37    22    23    1
    38    33    34    3
    39    34    35    1
