@<TRIPOS>MOLECULE
mol_data/noopt/geoms/mol2/13de13de13de13de.out
 46 52 0 0 0
SMALL
GASTEIGER

@<TRIPOS>ATOM
      1 C           1.1215   -0.3259    0.0002 C.2     1  LIG1        0.0090
      2 C           0.7176    0.9721   -0.0005 C.2     1  LIG1        0.0785
      3 C          -0.7144    0.9744    0.0003 C.2     1  LIG1        0.0461
      4 C          -1.1226   -0.3223   -0.0003 C.3     1  LIG1        0.1352
      5 N          -0.0018   -1.1217    0.0001 N.pl3   1  LIG1       -0.3317
      6 H          -0.0034   -2.1157   -0.0003 H       1  LIG1        0.1469
      7 H           2.3167   -0.8373    0.0007 H       1  LIG1        0.0792
      8 N           2.1747    2.9375   -0.0001 N.1     1  LIG1       -0.1908
      9 C           1.4918    2.0164   -0.0003 C.1     1  LIG1        0.1014
     10 C          -1.4853    2.0212    0.0010 C.1     1  LIG1       -0.0957
     11 C          -2.1976    2.9884    0.0016 C.2     1  LIG1        0.0549
     12 H          -2.8321    3.8500    0.0022 H       1  LIG1        0.0888
     13 C          -2.3194   -0.8299   -0.0001 C.2     1  LIG1        0.0430
     14 C          -3.5353   -0.2219   -0.0003 C.2     1  LIG1        0.0153
     15 C          -4.5290   -1.2530    0.0012 C.2     1  LIG1        0.0345
     16 C          -3.8767   -2.4457    0.0005 C.3     1  LIG1        0.1346
     17 N          -2.5238   -2.1913    0.0002 N.pl3   1  LIG1       -0.3278
     18 H          -1.8081   -2.8811   -0.0004 H       1  LIG1        0.1472
     19 N          -3.9431    2.1904   -0.0003 N.pl3   1  LIG1       -0.2335
     20 C          -3.7520    1.0599   -0.0003 C.3     1  LIG1        0.1398
     21 C          -5.8179   -1.0837    0.0025 C.1     1  LIG1       -0.0966
     22 C          -7.0089   -0.9273    0.0037 C.2     1  LIG1        0.0548
     23 H          -8.0698   -0.7879    0.0048 H       1  LIG1        0.0888
     24 C          -4.3398   -3.6604    0.0012 C.2     1  LIG1        0.0430
     25 C          -5.6206   -4.1160    0.0013 C.2     1  LIG1        0.0153
     26 C          -5.5655   -5.5470    0.0033 C.2     1  LIG1        0.0347
     27 C          -4.2535   -5.9029    0.0026 C.3     1  LIG1        0.1371
     28 N          -3.4996   -4.7510    0.0018 N.pl3   1  LIG1       -0.3276
     29 H          -2.5064   -4.7127    0.0010 H       1  LIG1        0.1472
     30 N          -7.6428   -2.7389    0.0012 N.pl3   1  LIG1       -0.2335
     31 C          -6.6951   -3.3843    0.0012 C.3     1  LIG1        0.1398
     32 C          -6.5805   -6.3592    0.0050 C.1     1  LIG1       -0.0966
     33 C          -7.5184   -7.1097    0.0066 C.2     1  LIG1        0.0548
     34 H          -8.3539   -7.7782    0.0080 H       1  LIG1        0.0888
     35 C          -3.6983   -7.0784    0.0036 C.ar    1  LIG1        0.0544
     36 C          -4.2571   -8.3176    0.0039 C.ar    1  LIG1        0.0212
     37 C          -3.1870   -9.2693    0.0063 C.ar    1  LIG1        0.0477
     38 C          -2.0214   -8.5697    0.0055 C.ar    1  LIG1        0.0178
     39 N          -2.3298   -7.2280    0.0043 N.ar    1  LIG1       -0.3610
     40 H          -1.6693   -6.4852    0.0035 H       1  LIG1        0.1651
     41 H          -0.7891   -8.9837    0.0068 H       1  LIG1        0.0819
     42 N          -6.6512   -8.8219    0.0036 N.pl3   1  LIG1       -0.2335
     43 C          -5.5292   -8.5856    0.0038 C.3     1  LIG1        0.1403
     44 C          -3.3045  -10.5639    0.0083 C.1     1  LIG1       -0.0678
     45 C          -3.4131  -11.7602    0.0101 C.1     1  LIG1       -0.1139
     46 H          -3.5098  -12.8258    0.0118 H       1  LIG1        0.1232
@<TRIPOS>BOND
     1     2     9    1
     2     2     1    2
     3     2     3    1
     4    18    17    1
     5    14    20    1
     6    14    13    2
     7    14    15    1
     8     4    13    1
     9     4     5    1
    10     4     3    1
    11     6     5    1
    12     9     8    3
    13    20    19    1
    14    19    11    1
    15    13    17    1
    16     5     1    1
    17    17    16    1
    18     1     7    1
    19     3    10    2
    20    16    15    1
    21    16    24    1
    22    29    28    1
    23    10    11    2
    24    30    31    1
    25    30    22    1
    26    15    21    2
    27    24    25    2
    28    24    28    1
    29    31    25    1
    30    25    26    1
    31    11    12    1
    32    28    27    1
    33    21    22    2
    34    27    26    1
    35    27    35    1
    36    26    32    2
    37    40    39    1
    38    35    36   ar
    39    35    39   ar
    40    42    43    1
    41    42    33    1
    42    22    23    1
    43    43    36    1
    44    36    37   ar
    45    39    38   ar
    46    32    33    2
    47    38    37   ar
    48    38    41    1
    49    37    44    1
    50    33    34    1
    51    44    45    3
    52    45    46    1
