@<TRIPOS>MOLECULE
mol_data/noopt/geoms/mol2/13de13dd13ha-4fi.out
 47 50 0 0 0
SMALL
GASTEIGER

@<TRIPOS>ATOM
      1 C           1.1215   -0.3259    0.0002 C.ar    1  LIG1        0.0209
      2 C           0.7176    0.9721   -0.0005 C.ar    1  LIG1        0.0850
      3 C          -0.7144    0.9744    0.0003 C.ar    1  LIG1        0.0687
      4 C          -1.1226   -0.3223   -0.0003 C.ar    1  LIG1        0.0810
      5 N          -0.0018   -1.1217    0.0001 N.ar    1  LIG1       -0.3573
      6 H          -0.0034   -2.1157   -0.0003 H       1  LIG1        0.1655
      7 H           2.3167   -0.8373    0.0007 H       1  LIG1        0.0820
      8 N           2.1747    2.9375   -0.0001 N.1     1  LIG1       -0.1908
      9 C           1.4918    2.0164   -0.0003 C.1     1  LIG1        0.1019
     10 C          -1.4853    2.0212    0.0010 C.1     1  LIG1       -0.0662
     11 C          -2.1976    2.9884    0.0016 C.1     1  LIG1       -0.1138
     12 H          -2.8321    3.8500    0.0022 H       1  LIG1        0.1232
     13 C          -2.3194   -0.8299   -0.0001 C.ar    1  LIG1        0.0835
     14 C          -3.5352   -0.2220    0.0163 C.ar    1  LIG1        0.0964
     15 C          -4.5290   -1.2531    0.0088 C.ar    1  LIG1        0.0964
     16 C          -3.8768   -2.4456   -0.0136 C.ar    1  LIG1        0.0840
     17 N          -2.5238   -2.1911   -0.0187 N.ar    1  LIG1       -0.3497
     18 H          -1.8082   -2.8808   -0.0339 H       1  LIG1        0.1661
     19 N          -3.9430    2.1900    0.0546 N.1     1  LIG1       -0.1908
     20 C          -3.7519    1.0596    0.0366 C.1     1  LIG1        0.1026
     21 N          -6.9547   -0.9346    0.0312 N.1     1  LIG1       -0.1908
     22 C          -5.8179   -1.0839    0.0207 C.1     1  LIG1        0.1026
     23 C          -4.3399   -3.6602   -0.0280 C.ar    1  LIG1        0.0856
     24 C          -5.6206   -4.1159   -0.0215 C.ar    1  LIG1        0.0523
     25 C          -5.5656   -5.5467   -0.0437 C.ar    1  LIG1       -0.0149
     26 C          -4.2537   -5.9024   -0.0646 C.ar    1  LIG1        0.0523
     27 N          -3.4998   -4.7505   -0.0546 N.ar    1  LIG1       -0.3514
     28 H          -2.5066   -4.7122   -0.0655 H       1  LIG1        0.1660
     29 N          -6.6950   -3.3844    0.0022 N.pl3   1  LIG1       -0.3563
     30 H          -6.5181   -2.5171   -0.4630 H       1  LIG1        0.1424
     31 H          -7.4371   -3.8669   -0.4630 H       1  LIG1        0.1424
     32 H          -6.5806   -6.3589   -0.0444 H       1  LIG1        0.0657
     33 C          -4.5041   -8.2348   -0.1015 C.ar    1  LIG1        0.1260
     34 C          -3.8547   -9.4842   -0.1265 C.ar    1  LIG1       -0.0193
     35 C          -3.6987   -7.0776   -0.0891 C.ar    1  LIG1        0.0400
     36 C          -2.4650   -9.5796   -0.1392 C.ar    1  LIG1       -0.0554
     37 H          -4.4572  -10.3898   -0.1363 H       1  LIG1        0.0654
     38 C          -2.3112   -7.1724   -0.1017 C.ar    1  LIG1       -0.0462
     39 C          -1.6848   -8.4227   -0.1269 C.ar    1  LIG1       -0.0496
     40 H          -1.7121   -6.2654   -0.0916 H       1  LIG1        0.0628
     41 H          -1.8986  -10.7495   -0.1623 H       1  LIG1        0.0621
     42 O          -5.8039   -8.2097   -0.0910 O.3     1  LIG1       -0.5061
     43 H          -6.1417   -9.1083   -0.0884 H       1  LIG1        0.2922
     44 C          -0.3872   -8.5051   -0.1385 C.3     1  LIG1       -0.0397
     45 H           0.0286   -7.6561    0.3628 H       1  LIG1        0.0278
     46 H          -0.0401   -8.5271   -1.1504 H       1  LIG1        0.0278
     47 H          -0.0821   -9.3999    0.3627 H       1  LIG1        0.0278
@<TRIPOS>BOND
     1    46    44    1
     2    31    29    1
     3    30    29    1
     4    41    36    1
     5    36    39   ar
     6    36    34   ar
     7    44    39    1
     8    44    47    1
     9    44    45    1
    10    37    34    1
    11    39    38   ar
    12    34    33   ar
    13    38    40    1
    14    38    35   ar
    15    33    42    1
    16    33    35   ar
    17    42    43    1
    18    35    26    1
    19    28    27    1
    20    26    27   ar
    21    26    25   ar
    22    27    23   ar
    23    32    25    1
    24    25    24   ar
    25    18    17    1
    26    23    24   ar
    27    23    16    1
    28    24    29    1
    29    17    16   ar
    30    17    13   ar
    31    16    15   ar
    32     2     9    1
    33     2     1   ar
    34     2     3   ar
    35     9     8    3
    36     6     5    1
    37     4    13    1
    38     4     5   ar
    39     4     3   ar
    40    13    14   ar
    41     5     1   ar
    42     1     7    1
    43     3    10    1
    44    10    11    3
    45    11    12    1
    46    15    14   ar
    47    15    22    1
    48    14    20    1
    49    22    21    3
    50    20    19    3
