@<TRIPOS>MOLECULE
mol_data/noopt/geoms/mol2/13de13lf4dh-6af.out
 49 51 0 0 0
SMALL
GASTEIGER

@<TRIPOS>ATOM
      1 C           1.1215   -0.3259    0.0002 C.ar    1  LIG1        0.0203
      2 C           0.7176    0.9721   -0.0005 C.ar    1  LIG1        0.0774
      3 C          -0.7144    0.9744    0.0003 C.ar    1  LIG1        0.0296
      4 C          -1.1226   -0.3223   -0.0003 C.ar    1  LIG1        0.0760
      5 N          -0.0018   -1.1217    0.0001 N.ar    1  LIG1       -0.3577
      6 H          -0.0034   -2.1157   -0.0003 H       1  LIG1        0.1654
      7 H           2.3167   -0.8373    0.0007 H       1  LIG1        0.0820
      8 N           2.1747    2.9375   -0.0001 N.1     1  LIG1       -0.1908
      9 C           1.4918    2.0164   -0.0003 C.1     1  LIG1        0.1013
     10 C          -1.4853    2.0212    0.0010 C.3     1  LIG1       -0.0163
     11 C          -2.1976    2.9884    0.0016 C.3     1  LIG1       -0.0273
     12 H          -2.8321    3.8500    0.0022 H       1  LIG1        0.0312
     13 C          -2.3194   -0.8299   -0.0001 C.ar    1  LIG1        0.1150
     14 C          -3.5352   -0.2220    0.0163 C.ar    1  LIG1        0.2472
     15 C          -4.5290   -1.2531    0.0088 C.ar    1  LIG1        0.1902
     16 C          -3.8768   -2.4456   -0.0136 C.ar    1  LIG1        0.0942
     17 N          -2.5238   -2.1911   -0.0187 N.ar    1  LIG1       -0.3469
     18 H          -1.8082   -2.8808   -0.0339 H       1  LIG1        0.1662
     19 O          -3.7519    1.0597    0.0366 O.3     1  LIG1       -0.2817
     20 C          -2.5023    1.7549    0.0440 C.3     1  LIG1       -0.0582
     21 H          -2.6810    2.8097    0.0606 H       1  LIG1        0.0236
     22 H          -1.9431    1.4742    0.9121 H       1  LIG1        0.0236
     23 H          -1.9476    1.5009   -0.8350 H       1  LIG1        0.0236
     24 O          -5.8179   -1.0839    0.0207 O.3     1  LIG1       -0.5018
     25 H          -6.2534   -1.9394    0.0236 H       1  LIG1        0.2924
     26 C          -5.7322   -3.8813   -0.0137 C.ar    1  LIG1        0.0617
     27 C          -6.1835   -5.2152   -0.0286 C.ar    1  LIG1       -0.0342
     28 C          -4.3399   -3.6602   -0.0280 C.ar    1  LIG1        0.0211
     29 C          -5.2897   -6.2834   -0.0572 C.ar    1  LIG1        0.0056
     30 H          -7.2539   -5.4084   -0.0178 H       1  LIG1        0.0637
     31 C          -3.4472   -4.7262   -0.0565 C.ar    1  LIG1       -0.0300
     32 C          -3.9150   -6.0443   -0.0714 C.ar    1  LIG1        0.0331
     33 H          -2.3781   -4.5297   -0.0670 H       1  LIG1        0.0643
     34 N          -7.3925   -2.0849    0.0360 N.1     1  LIG1       -0.1908
     35 C          -6.6144   -2.9268    0.0127 C.1     1  LIG1        0.0998
     36 N          -3.0757   -7.0368   -0.0980 N.pl3   1  LIG1       -0.3575
     37 H          -3.4903   -7.8111   -0.5761 H       1  LIG1        0.1423
     38 H          -2.2433   -6.7567   -0.5761 H       1  LIG1        0.1423
     39 C          -4.8495   -8.5908   -0.0776 C.ar    1  LIG1        0.0356
     40 C          -5.7410   -7.5025   -0.0705 C.ar    1  LIG1        0.0055
     41 C          -7.1124   -7.7640   -0.0777 C.ar    1  LIG1       -0.0095
     42 C          -7.5432   -9.0916   -0.0919 C.ar    1  LIG1        0.1354
     43 C          -6.5745  -10.1120   -0.0983 C.ar    1  LIG1        0.0690
     44 N          -5.2477   -9.8777   -0.0913 N.ar    1  LIG1       -0.2590
     45 H          -7.8392   -6.9393   -0.0735 H       1  LIG1        0.0661
     46 H          -6.9261  -11.3634   -0.1113 H       1  LIG1        0.0867
     47 H          -3.5638   -8.3981   -0.0713 H       1  LIG1        0.0836
     48 O          -8.8092   -9.3874   -0.0992 O.3     1  LIG1       -0.5052
     49 H          -8.9153  -10.3415   -0.1010 H       1  LIG1        0.2922
@<TRIPOS>BOND
     1    23    20    1
     2    38    36    1
     3    37    36    1
     4    46    43    1
     5    49    48    1
     6    48    42    1
     7    43    42   ar
     8    43    44   ar
     9    36    32    1
    10    42    41   ar
    11    44    39   ar
    12    41    45    1
    13    41    40   ar
    14    39    47    1
    15    39    40   ar
    16    32    29   ar
    17    32    31   ar
    18    40    29    1
    19    33    31    1
    20    29    27   ar
    21    31    28   ar
    22    18    17    1
    23    27    30    1
    24    27    26   ar
    25    28    26   ar
    26    28    16    1
    27    17    16   ar
    28    17    13   ar
    29    26    35    1
    30    16    15   ar
    31     2     9    1
    32     2     1   ar
    33     2     3   ar
    34     9     8    3
    35     6     5    1
    36     4    13    1
    37     4     5   ar
    38     4     3   ar
    39    13    14   ar
    40     5     1   ar
    41     1     7    1
    42    10    11    1
    43    10    20    1
    44    11    12    1
    45    15    14   ar
    46    15    24    1
    47    35    34    3
    48    14    19    1
    49    24    25    1
    50    20    21    1
    51    20    22    1
