@<TRIPOS>MOLECULE
mol_data/noopt/geoms/mol2/13de13de13de-13de-.out
 46 51 0 0 0
SMALL
GASTEIGER

@<TRIPOS>ATOM
      1 C           1.1215   -0.3259    0.0002 C.2     1  LIG1        0.0090
      2 C           0.7176    0.9721   -0.0005 C.2     1  LIG1        0.0785
      3 C          -0.7144    0.9744    0.0003 C.2     1  LIG1        0.0463
      4 C          -1.1226   -0.3223   -0.0003 C.3     1  LIG1        0.1378
      5 N          -0.0018   -1.1217    0.0001 N.pl3   1  LIG1       -0.3315
      6 H          -0.0034   -2.1157   -0.0003 H       1  LIG1        0.1469
      7 H           2.3167   -0.8373    0.0007 H       1  LIG1        0.0792
      8 N           2.1747    2.9375   -0.0001 N.1     1  LIG1       -0.1908
      9 C           1.4918    2.0164   -0.0003 C.1     1  LIG1        0.1014
     10 C          -1.4853    2.0212    0.0010 C.1     1  LIG1       -0.0957
     11 C          -2.1976    2.9884    0.0016 C.2     1  LIG1        0.0549
     12 H          -2.8321    3.8500    0.0022 H       1  LIG1        0.0888
     13 C          -2.3194   -0.8299   -0.0001 C.ar    1  LIG1        0.0549
     14 C          -3.5353   -0.2219   -0.0003 C.ar    1  LIG1        0.0218
     15 C          -4.5290   -1.2530    0.0012 C.ar    1  LIG1        0.0569
     16 C          -3.8767   -2.4457    0.0005 C.ar    1  LIG1        0.0779
     17 N          -2.5238   -2.1913    0.0002 N.ar    1  LIG1       -0.3536
     18 H          -1.8081   -2.8811   -0.0004 H       1  LIG1        0.1657
     19 N          -3.9431    2.1904   -0.0003 N.pl3   1  LIG1       -0.2335
     20 C          -3.7520    1.0599   -0.0003 C.3     1  LIG1        0.1403
     21 C          -5.8179   -1.0837    0.0025 C.1     1  LIG1       -0.0671
     22 C          -7.0089   -0.9273    0.0037 C.1     1  LIG1       -0.1138
     23 H          -8.0698   -0.7879    0.0048 H       1  LIG1        0.1232
     24 C          -4.3398   -3.6604    0.0012 C.2     1  LIG1        0.0715
     25 C          -3.6874   -4.8530    0.0012 C.2     1  LIG1        0.0879
     26 C          -4.6811   -5.8841    0.0032 C.2     1  LIG1        0.0470
     27 C          -5.8970   -5.2763    0.0027 C.3     1  LIG1        0.1382
     28 N          -5.6927   -3.9149    0.0019 N.pl3   1  LIG1       -0.3240
     29 H          -6.4084   -3.2251    0.0013 H       1  LIG1        0.1475
     30 N          -1.2616   -5.1716    0.0007 N.1     1  LIG1       -0.1908
     31 C          -2.3984   -5.0223    0.0009 C.1     1  LIG1        0.1020
     32 C          -4.4643   -7.1660    0.0049 C.1     1  LIG1       -0.0957
     33 C          -4.2641   -8.3503    0.0064 C.2     1  LIG1        0.0549
     34 H          -4.0857   -9.4054    0.0077 H       1  LIG1        0.0888
     35 C          -7.0939   -5.7839    0.0038 C.ar    1  LIG1        0.0544
     36 C          -7.5019   -7.0806    0.0041 C.ar    1  LIG1        0.0212
     37 C          -8.9339   -7.0784    0.0067 C.ar    1  LIG1        0.0477
     38 C          -9.3380   -5.7804    0.0061 C.ar    1  LIG1        0.0178
     39 N          -8.2146   -4.9846    0.0048 N.ar    1  LIG1       -0.3610
     40 H          -8.2131   -3.9906    0.0040 H       1  LIG1        0.1651
     41 H         -10.5331   -5.2690    0.0075 H       1  LIG1        0.0819
     42 N          -6.0510   -9.0506    0.0035 N.pl3   1  LIG1       -0.2335
     43 C          -6.7310   -8.1274    0.0038 C.3     1  LIG1        0.1403
     44 C          -9.7081   -8.1227    0.0087 C.1     1  LIG1       -0.0678
     45 C         -10.4234   -9.0877    0.0106 C.1     1  LIG1       -0.1139
     46 H         -11.0606   -9.9472    0.0122 H       1  LIG1        0.1232
@<TRIPOS>BOND
     1     2     9    1
     2     2     1    2
     3     2     3    1
     4    18    17    1
     5    14    20    1
     6    14    13   ar
     7    14    15   ar
     8     4    13    1
     9     4     5    1
    10     4     3    1
    11     6     5    1
    12     9     8    3
    13    20    19    1
    14    19    11    1
    15    13    17   ar
    16     5     1    1
    17    17    16   ar
    18     1     7    1
    19     3    10    2
    20    16    15   ar
    21    16    24    1
    22    30    31    3
    23    31    25    1
    24    10    11    2
    25    25    24    2
    26    25    26    1
    27    15    21    1
    28    24    28    1
    29    29    28    1
    30    11    12    1
    31    28    27    1
    32    21    22    3
    33    27    26    1
    34    27    35    1
    35    26    32    2
    36    42    43    1
    37    42    33    1
    38    22    23    1
    39    43    36    1
    40    35    36   ar
    41    35    39   ar
    42    40    39    1
    43    36    37   ar
    44    39    38   ar
    45    32    33    2
    46    38    37   ar
    47    38    41    1
    48    33    34    1
    49    37    44    1
    50    44    45    3
    51    45    46    1
