@<TRIPOS>MOLECULE
mol_data/noopt/geoms/mol2/13df12da13aa13ff.out
 38 41 0 0 0
SMALL
GASTEIGER

@<TRIPOS>ATOM
      1 C           1.1215   -0.3259    0.0002 C.ar    1  LIG1        0.0234
      2 C           0.7176    0.9721   -0.0005 C.ar    1  LIG1        0.1111
      3 C          -0.7144    0.9744    0.0003 C.ar    1  LIG1        0.1625
      4 C          -1.1226   -0.3223   -0.0003 C.ar    1  LIG1        0.1267
      5 N          -0.0018   -1.1217    0.0001 N.ar    1  LIG1       -0.3541
      6 H          -0.0034   -2.1157   -0.0003 H       1  LIG1        0.1656
      7 H           2.3167   -0.8373    0.0007 H       1  LIG1        0.0821
      8 N           2.1747    2.9375   -0.0001 N.1     1  LIG1       -0.1907
      9 C           1.4918    2.0164   -0.0003 C.1     1  LIG1        0.1043
     10 O          -1.4853    2.0212    0.0010 O.3     1  LIG1       -0.5034
     11 H          -2.4040    1.7426    0.0012 H       1  LIG1        0.2923
     12 C          -2.3194   -0.8299   -0.0001 C.ar    1  LIG1        0.1727
     13 C          -3.6024   -0.3233    0.0148 C.ar    1  LIG1        0.0996
     14 C          -4.4979   -1.4613    0.0044 C.ar    1  LIG1        0.0037
     15 C          -3.7022   -2.5883   -0.0164 C.ar    1  LIG1        0.1531
     16 O          -2.3551   -2.2249   -0.0196 O.2     1  LIG1       -0.4504
     17 N          -4.2844    2.0260    0.0521 N.1     1  LIG1       -0.1907
     18 C          -3.9648    0.9250    0.0347 C.1     1  LIG1        0.1030
     19 H          -5.7965   -1.4036    0.0131 H       1  LIG1        0.0669
     20 C          -3.9133   -3.8710   -0.0331 C.ar    1  LIG1        0.0826
     21 C          -5.0772   -4.5732   -0.0448 C.ar    1  LIG1       -0.0328
     22 C          -4.7373   -5.9642   -0.0604 C.ar    1  LIG1       -0.0342
     23 C          -3.3807   -6.0508   -0.0593 C.ar    1  LIG1        0.0671
     24 N          -2.8722   -4.7716   -0.0421 N.ar    1  LIG1       -0.3505
     25 H          -1.9066   -4.5357   -0.0377 H       1  LIG1        0.1660
     26 H          -6.2762   -4.0709   -0.0408 H       1  LIG1        0.0640
     27 H          -5.5696   -6.9627   -0.0736 H       1  LIG1        0.0639
     28 C          -2.6018   -7.0916   -0.0703 C.ar    1  LIG1        0.1086
     29 C          -2.9015   -8.4175   -0.0615 C.ar    1  LIG1        0.1856
     30 C          -1.6630   -9.1361   -0.0804 C.ar    1  LIG1        0.1767
     31 C          -0.6610   -8.2177   -0.1016 C.ar    1  LIG1        0.0480
     32 N          -1.2313   -6.9647   -0.0951 N.ar    1  LIG1       -0.3535
     33 H          -0.7326   -6.1049   -0.1070 H       1  LIG1        0.1656
     34 H           0.6290   -8.3771   -0.1238 H       1  LIG1        0.0845
     35 O          -4.0942   -8.9343   -0.0386 O.3     1  LIG1       -0.5019
     36 H          -4.0284   -9.8920   -0.0329 H       1  LIG1        0.2924
     37 O          -1.5193  -10.4282   -0.0782 O.3     1  LIG1       -0.5023
     38 H          -0.5845  -10.6466   -0.0776 H       1  LIG1        0.2923
@<TRIPOS>BOND
     1    34    31    1
     2    33    32    1
     3    31    32   ar
     4    31    30   ar
     5    32    28   ar
     6    30    37    1
     7    30    29   ar
     8    37    38    1
     9    27    22    1
    10    28    29   ar
    11    28    23    1
    12    29    35    1
    13    22    23   ar
    14    22    21   ar
    15    23    24   ar
    16    21    26    1
    17    21    20   ar
    18    24    25    1
    19    24    20   ar
    20    35    36    1
    21    20    15    1
    22    16    15   ar
    23    16    12   ar
    24    15    14   ar
    25     2     9    1
    26     2     1   ar
    27     2     3   ar
    28     4    12    1
    29     4     5   ar
    30     4     3   ar
    31     6     5    1
    32     9     8    3
    33    12    13   ar
    34     5     1   ar
    35     1     7    1
    36     3    10    1
    37    10    11    1
    38    14    19    1
    39    14    13   ar
    40    13    18    1
    41    18    17    3
