@<TRIPOS>MOLECULE
mol_data/noopt/geoms/mol2/13df4ie-4fh13af-.out
 49 51 0 0 0
SMALL
GASTEIGER

@<TRIPOS>ATOM
      1 C           1.1215   -0.3259    0.0002 C.ar    1  LIG1        0.0202
      2 C           0.7176    0.9721   -0.0005 C.ar    1  LIG1        0.0774
      3 C          -0.7144    0.9744    0.0003 C.ar    1  LIG1        0.0280
      4 C          -1.1226   -0.3223   -0.0003 C.ar    1  LIG1        0.0559
      5 N          -0.0018   -1.1217    0.0001 N.ar    1  LIG1       -0.3590
      6 H          -0.0034   -2.1157   -0.0003 H       1  LIG1        0.1654
      7 H           2.3167   -0.8373    0.0007 H       1  LIG1        0.0820
      8 N           2.1747    2.9375   -0.0001 N.1     1  LIG1       -0.1908
      9 C           1.4918    2.0164   -0.0003 C.1     1  LIG1        0.1013
     10 O          -1.4853    2.0212    0.0010 O.3     2  HOH2       -0.2528
     11 H          -2.4040    1.7426    0.0012 H       0  HOH0        0.2528
     12 C          -3.4433    0.0211    0.0221 C.ar    1  LIG1       -0.0407
     13 C          -4.7179   -0.5778    0.0229 C.ar    1  LIG1       -0.0492
     14 C          -2.3194   -0.8299   -0.0001 C.ar    1  LIG1        0.0030
     15 C          -4.8691   -1.9625    0.0019 C.ar    1  LIG1        0.0013
     16 H          -5.5986    0.0603    0.0400 H       1  LIG1        0.0627
     17 C          -2.4698   -2.2123   -0.0211 C.ar    1  LIG1       -0.0364
     18 C          -3.7445   -2.7882   -0.0203 C.ar    1  LIG1        0.0331
     19 H          -1.5876   -2.8471   -0.0379 H       1  LIG1        0.0637
     20 C          -3.3659    1.3189    0.0420 C.3     1  LIG1       -0.0391
     21 H          -4.2173    1.7192    0.5518 H       1  LIG1        0.0278
     22 H          -3.3439    1.6904   -0.9613 H       1  LIG1        0.0278
     23 H          -2.4731    1.6152    0.5518 H       1  LIG1        0.0278
     24 C          -3.8789   -4.0811   -0.0398 C.1     1  LIG1       -0.0690
     25 C          -4.0032   -5.2757   -0.0578 C.1     1  LIG1       -0.1139
     26 H          -4.1138   -6.3398   -0.0738 H       1  LIG1        0.1232
     27 C          -7.1931   -1.6415    0.0046 C.ar    1  LIG1        0.1253
     28 C          -8.4619   -2.2527    0.0075 C.ar    1  LIG1       -0.0087
     29 C          -6.0609   -2.4817    0.0032 C.ar    1  LIG1        0.0265
     30 C          -8.5996   -3.6390    0.0083 C.ar    1  LIG1        0.0225
     31 H          -9.3488   -1.6231    0.0089 H       1  LIG1        0.0661
     32 C          -6.1978   -3.8656    0.0040 C.ar    1  LIG1       -0.0292
     33 C          -7.4669   -4.4539    0.0065 C.ar    1  LIG1        0.0346
     34 H          -5.3094   -4.4920    0.0029 H       1  LIG1        0.0643
     35 O          -7.1285   -0.3431    0.0037 O.3     1  LIG1       -0.5061
     36 H          -8.0164    0.0219    0.0035 H       1  LIG1        0.2922
     37 N          -7.5887   -5.7482    0.0074 N.pl3   1  LIG1       -0.3574
     38 H          -8.4329   -6.0038   -0.4638 H       1  LIG1        0.1423
     39 H          -6.8071   -6.1569   -0.4638 H       1  LIG1        0.1423
     40 C          -9.7863   -4.1697    0.0109 C.ar    1  LIG1        0.0519
     41 C         -11.0138   -3.5854    0.0123 C.ar    1  LIG1        0.0052
     42 C         -11.9873   -4.6356    0.0162 C.ar    1  LIG1        0.1347
     43 C         -11.3120   -5.8154    0.0153 C.ar    1  LIG1        0.0441
     44 N          -9.9642   -5.5348    0.0125 N.ar    1  LIG1       -0.3575
     45 H          -9.2352   -6.2106    0.0112 H       1  LIG1        0.1654
     46 H         -11.7514   -7.0389    0.0176 H       1  LIG1        0.0844
     47 H         -11.2553   -2.3081    0.0118 H       1  LIG1        0.0675
     48 O         -13.2793   -4.4914    0.0196 O.3     1  LIG1       -0.5053
     49 H         -13.6981   -5.3552    0.0204 H       1  LIG1        0.2922
@<TRIPOS>BOND
     1    22    20    1
     2    39    37    1
     3    38    37    1
     4    26    25    1
     5    25    24    3
     6    24    18    1
     7    19    17    1
     8    17    18   ar
     9    17    14   ar
    10    18    15   ar
    11     2     9    1
    12     2     1   ar
    13     2     3   ar
    14     9     8    3
    15     6     5    1
    16     4    14    1
    17     4     5   ar
    18     4     3   ar
    19    14    12   ar
    20     5     1   ar
    21     1     7    1
    22    10    11    1
    23    15    29    1
    24    15    13   ar
    25    34    32    1
    26    29    32   ar
    27    29    27   ar
    28    36    35    1
    29    35    27    1
    30    32    33   ar
    31    27    28   ar
    32    33    37    1
    33    33    30   ar
    34    28    30   ar
    35    28    31    1
    36    30    40    1
    37    40    41   ar
    38    40    44   ar
    39    45    44    1
    40    47    41    1
    41    41    42   ar
    42    44    43   ar
    43    43    42   ar
    44    43    46    1
    45    42    48    1
    46    48    49    1
    47    12    13   ar
    48    12    20    1
    49    13    16    1
    50    20    23    1
    51    20    21    1
