@<TRIPOS>MOLECULE
mol_data/noopt/geoms/mol2/13df13df13df-13df-.out
 42 45 0 0 0
SMALL
GASTEIGER

@<TRIPOS>ATOM
      1 C           1.1215   -0.3259    0.0002 C.ar    1  LIG1        0.0233
      2 C           0.7176    0.9721   -0.0005 C.ar    1  LIG1        0.1110
      3 C          -0.7144    0.9744    0.0003 C.ar    1  LIG1        0.1609
      4 C          -1.1226   -0.3223   -0.0003 C.ar    1  LIG1        0.1076
      5 N          -0.0018   -1.1217    0.0001 N.ar    1  LIG1       -0.3554
      6 H          -0.0034   -2.1157   -0.0003 H       1  LIG1        0.1655
      7 H           2.3167   -0.8373    0.0007 H       1  LIG1        0.0821
      8 N           2.1747    2.9375   -0.0001 N.1     1  LIG1       -0.1907
      9 C           1.4918    2.0164   -0.0003 C.1     1  LIG1        0.1043
     10 O          -1.4853    2.0212    0.0010 O.3     1  LIG1       -0.5034
     11 H          -2.4040    1.7426    0.0012 H       1  LIG1        0.2923
     12 C          -2.3194   -0.8299   -0.0001 C.ar    1  LIG1        0.0882
     13 C          -3.5353   -0.2219   -0.0003 C.ar    1  LIG1        0.1205
     14 C          -4.5290   -1.2530    0.0012 C.ar    1  LIG1        0.1616
     15 C          -3.8767   -2.4457    0.0005 C.ar    1  LIG1        0.1081
     16 N          -2.5238   -2.1913    0.0002 N.ar    1  LIG1       -0.3478
     17 H          -1.8081   -2.8811   -0.0004 H       1  LIG1        0.1661
     18 N          -3.9431    2.1904   -0.0003 N.1     1  LIG1       -0.1907
     19 C          -3.7520    1.0599   -0.0003 C.1     1  LIG1        0.1050
     20 O          -5.8180   -1.0837    0.0025 O.3     1  LIG1       -0.5034
     21 H          -6.2535   -1.9392    0.0028 H       1  LIG1        0.2923
     22 C          -4.3398   -3.6604    0.0012 C.ar    1  LIG1        0.0883
     23 C          -3.6874   -4.8530    0.0012 C.ar    1  LIG1        0.1205
     24 C          -4.6811   -5.8841    0.0032 C.ar    1  LIG1        0.1616
     25 C          -5.8970   -5.2763    0.0027 C.ar    1  LIG1        0.1080
     26 N          -5.6927   -3.9149    0.0019 N.ar    1  LIG1       -0.3478
     27 H          -6.4084   -3.2251    0.0013 H       1  LIG1        0.1661
     28 N          -1.2616   -5.1716    0.0007 N.1     1  LIG1       -0.1907
     29 C          -2.3984   -5.0223    0.0009 C.1     1  LIG1        0.1050
     30 O          -4.4643   -7.1660    0.0049 O.3     1  LIG1       -0.5034
     31 H          -3.5186   -7.3310    0.0053 H       1  LIG1        0.2923
     32 C          -7.0939   -5.7839    0.0038 C.ar    1  LIG1        0.0878
     33 C          -7.5019   -7.0806    0.0041 C.ar    1  LIG1        0.1198
     34 C          -8.9339   -7.0784    0.0067 C.ar    1  LIG1        0.1521
     35 C          -9.3380   -5.7804    0.0061 C.ar    1  LIG1        0.0455
     36 N          -8.2146   -4.9846    0.0048 N.ar    1  LIG1       -0.3553
     37 H          -8.2131   -3.9906    0.0040 H       1  LIG1        0.1655
     38 H         -10.5331   -5.2690    0.0075 H       1  LIG1        0.0845
     39 N          -6.0510   -9.0506    0.0035 N.1     1  LIG1       -0.1907
     40 C          -6.7310   -8.1274    0.0038 C.1     1  LIG1        0.1050
     41 O          -9.7081   -8.1227    0.0087 O.3     1  LIG1       -0.5040
     42 H          -9.1719   -8.9191    0.0092 H       1  LIG1        0.2923
@<TRIPOS>BOND
     1     2     9    1
     2     2     1   ar
     3     2     3   ar
     4    17    16    1
     5    13    19    1
     6    13    12   ar
     7    13    14   ar
     8     4    12    1
     9     4     5   ar
    10     4     3   ar
    11     6     5    1
    12     9     8    3
    13    19    18    3
    14    12    16   ar
    15     5     1   ar
    16    16    15   ar
    17     1     7    1
    18     3    10    1
    19    15    14   ar
    20    15    22    1
    21    28    29    3
    22    29    23    1
    23    10    11    1
    24    23    22   ar
    25    23    24   ar
    26    14    20    1
    27    22    26   ar
    28    27    26    1
    29    26    25   ar
    30    20    21    1
    31    25    24   ar
    32    25    32    1
    33    24    30    1
    34    39    40    3
    35    40    33    1
    36    32    33   ar
    37    32    36   ar
    38    37    36    1
    39    33    34   ar
    40    36    35   ar
    41    30    31    1
    42    35    34   ar
    43    35    38    1
    44    34    41    1
    45    41    42    1
