@<TRIPOS>MOLECULE
mol_data/noopt/geoms/mol2/13df12le(120)12he6ai(340).out
 48 51 0 0 0
SMALL
GASTEIGER

@<TRIPOS>ATOM
      1 C           1.1215   -0.3259    0.0002 C.ar    1  LIG1        0.0234
      2 C           0.7176    0.9721   -0.0005 C.ar    1  LIG1        0.1111
      3 C          -0.7144    0.9744    0.0003 C.ar    1  LIG1        0.1626
      4 C          -1.1226   -0.3223   -0.0003 C.ar    1  LIG1        0.1291
      5 N          -0.0018   -1.1217    0.0001 N.ar    1  LIG1       -0.3540
      6 H          -0.0034   -2.1157   -0.0003 H       1  LIG1        0.1656
      7 H           2.3167   -0.8373    0.0007 H       1  LIG1        0.0821
      8 N           2.1747    2.9375   -0.0001 N.1     1  LIG1       -0.1907
      9 C           1.4918    2.0164   -0.0003 C.1     1  LIG1        0.1043
     10 O          -1.4853    2.0212    0.0010 O.3     1  LIG1       -0.5034
     11 H          -2.4040    1.7426    0.0012 H       1  LIG1        0.2923
     12 C          -2.3194   -0.8299   -0.0001 C.ar    1  LIG1        0.1981
     13 C          -3.0167   -1.7040    0.8078 C.ar    1  LIG1        0.1834
     14 C          -4.3348   -1.8457    0.2251 C.ar    1  LIG1        0.1158
     15 C          -4.3555   -1.0484   -0.9007 C.ar    1  LIG1        0.1915
     16 O          -3.1243   -0.4117   -1.0607 O.2     1  LIG1       -0.4450
     17 O          -2.5976   -2.2979    1.8856 O.3     1  LIG1       -0.4901
     18 C          -3.5450   -3.2933    2.2813 C.3     1  LIG1        0.0790
     19 H          -3.1996   -3.7820    3.1683 H       1  LIG1        0.0660
     20 H          -4.4898   -2.8296    2.4745 H       1  LIG1        0.0660
     21 H          -3.6547   -4.0130    1.4972 H       1  LIG1        0.0660
     22 C          -5.2943   -2.5876    0.6931 C.1     1  LIG1       -0.0620
     23 C          -6.1808   -3.2730    1.1256 C.1     1  LIG1       -0.1137
     24 H          -6.9706   -3.8836    1.5108 H       1  LIG1        0.1232
     25 C          -5.2316   -0.7633   -1.8178 C.ar    1  LIG1        0.1937
     26 C          -5.5950    0.3723   -2.5116 C.ar    1  LIG1        0.0904
     27 C          -6.6660   -0.0133   -3.4066 C.ar    1  LIG1        0.0918
     28 C          -6.8861   -1.3597   -3.2004 C.ar    1  LIG1        0.1545
     29 O          -6.0138   -1.8449   -2.2254 O.2     1  LIG1       -0.4485
     30 N          -5.0920    1.5661   -2.4030 N.pl3   1  LIG1       -0.3540
     31 H          -4.1953    1.5915   -2.8449 H       1  LIG1        0.1425
     32 H          -5.7002    2.2255   -2.8450 H       1  LIG1        0.1425
     33 C          -7.2832    0.7767   -4.2342 C.1     1  LIG1       -0.0640
     34 C          -7.8536    1.5067   -4.9989 C.1     1  LIG1       -0.1137
     35 H          -8.3616    2.1569   -5.6801 H       1  LIG1        0.1232
     36 C          -7.3963   -3.6220   -3.5747 C.ar    1  LIG1        0.0383
     37 C          -7.6944   -2.2519   -3.6908 C.ar    1  LIG1        0.0369
     38 C          -8.8721   -1.8786   -4.3411 C.ar    1  LIG1       -0.0452
     39 C          -9.7047   -2.8772   -4.8491 C.ar    1  LIG1       -0.0317
     40 C          -9.3204   -4.2205   -4.6836 C.ar    1  LIG1        0.0305
     41 N          -8.1881   -4.5984   -4.0589 N.ar    1  LIG1       -0.2623
     42 H          -9.1379   -0.8178   -4.4519 H       1  LIG1        0.0628
     43 H         -10.0624   -5.1859   -5.1391 H       1  LIG1        0.0832
     44 H          -6.3119   -4.0189   -2.9778 H       1  LIG1        0.0837
     45 C         -10.8121   -2.5812   -5.4629 C.3     1  LIG1       -0.0383
     46 H         -11.5716   -3.2825   -5.1866 H       1  LIG1        0.0278
     47 H         -10.6558   -2.6230   -6.5207 H       1  LIG1        0.0278
     48 H         -11.1203   -1.5945   -5.1867 H       1  LIG1        0.0278
@<TRIPOS>BOND
     1    47    45    1
     2    35    34    1
     3    45    48    1
     4    45    46    1
     5    45    39    1
     6    43    40    1
     7    34    33    3
     8    39    40   ar
     9    39    38   ar
    10    40    41   ar
    11    42    38    1
    12    38    37   ar
    13    33    27    1
    14    41    36   ar
    15    37    36   ar
    16    37    28    1
    17    36    44    1
    18    27    28   ar
    19    27    26   ar
    20    28    29   ar
    21    32    30    1
    22    31    30    1
    23    26    30    1
    24    26    25   ar
    25    29    25   ar
    26    25    15    1
    27    16    15   ar
    28    16    12   ar
    29    15    14   ar
    30     2     9    1
    31     2     1   ar
    32     2     3   ar
    33     4    12    1
    34     4     5   ar
    35     4     3   ar
    36     6     5    1
    37     9     8    3
    38    12    13   ar
    39     5     1   ar
    40     1     7    1
    41     3    10    1
    42    10    11    1
    43    14    22    1
    44    14    13   ar
    45    22    23    3
    46    13    17    1
    47    23    24    1
    48    21    18    1
    49    17    18    1
    50    18    20    1
    51    18    19    1
