@<TRIPOS>MOLECULE
mol_data/noopt/geoms/mol2/13df13aa12dd-13li.out
 44 47 0 0 0
SMALL
GASTEIGER

@<TRIPOS>ATOM
      1 C           1.1215   -0.3259    0.0002 C.ar    1  LIG1        0.0233
      2 C           0.7176    0.9721   -0.0005 C.ar    1  LIG1        0.1110
      3 C          -0.7144    0.9744    0.0003 C.ar    1  LIG1        0.1609
      4 C          -1.1226   -0.3223   -0.0003 C.ar    1  LIG1        0.1062
      5 N          -0.0018   -1.1217    0.0001 N.ar    1  LIG1       -0.3554
      6 H          -0.0034   -2.1157   -0.0003 H       1  LIG1        0.1655
      7 H           2.3167   -0.8373    0.0007 H       1  LIG1        0.0821
      8 N           2.1747    2.9375   -0.0001 N.1     1  LIG1       -0.1907
      9 C           1.4918    2.0164   -0.0003 C.1     1  LIG1        0.1043
     10 O          -1.4853    2.0212    0.0010 O.3     1  LIG1       -0.5034
     11 H          -2.4040    1.7426    0.0012 H       1  LIG1        0.2923
     12 C          -2.3194   -0.8299   -0.0001 C.ar    1  LIG1        0.0670
     13 C          -3.5352   -0.2220    0.0163 C.ar    1  LIG1       -0.0342
     14 C          -4.5290   -1.2531    0.0088 C.ar    1  LIG1       -0.0327
     15 C          -3.8768   -2.4456   -0.0136 C.ar    1  LIG1        0.0839
     16 N          -2.5238   -2.1911   -0.0187 N.ar    1  LIG1       -0.3505
     17 H          -1.8082   -2.8808   -0.0339 H       1  LIG1        0.1660
     18 H          -3.7519    1.0596    0.0366 H       1  LIG1        0.0639
     19 H          -5.8179   -1.0839    0.0207 H       1  LIG1        0.0640
     20 C          -4.3399   -3.6602   -0.0280 C.ar    1  LIG1        0.1694
     21 C          -5.5942   -4.2345   -0.0241 C.ar    1  LIG1        0.1046
     22 C          -5.3939   -5.6685   -0.0488 C.ar    1  LIG1        0.0437
     23 C          -4.0299   -5.8754   -0.0662 C.ar    1  LIG1        0.1618
     24 O          -3.3586   -4.6522   -0.0540 O.2     1  LIG1       -0.4501
     25 N          -7.7609   -3.0990    0.0165 N.1     1  LIG1       -0.1907
     26 C          -6.7455   -3.6312   -0.0025 C.1     1  LIG1        0.1034
     27 N          -7.1656   -7.3557   -0.0570 N.3     1  LIG1       -0.2406
     28 C          -6.3353   -6.5650   -0.0531 C.3     1  LIG1        0.1142
     29 C          -3.2511   -6.9160   -0.0907 C.ar    1  LIG1        0.1249
     30 C          -3.5507   -8.2420   -0.0911 C.ar    1  LIG1        0.1517
     31 C          -2.3123   -8.9603   -0.1236 C.ar    1  LIG1        0.0093
     32 C          -1.3104   -8.0416   -0.1434 C.ar    1  LIG1        0.0088
     33 N          -1.8807   -6.7888   -0.1229 N.ar    1  LIG1       -0.3551
     34 H          -1.3822   -5.9289   -0.1308 H       1  LIG1        0.1655
     35 H          -0.0206   -8.2007   -0.1749 H       1  LIG1        0.0811
     36 O          -4.7432   -8.7590   -0.0650 O.3     1  LIG1       -0.4861
     37 C          -5.7173   -7.7121   -0.0555 C.3     1  LIG1        0.1236
     38 H          -6.6986   -8.1380   -0.0342 H       1  LIG1        0.1417
     39 H          -5.5751   -7.1004    0.8109 H       1  LIG1        0.0731
     40 H          -5.6070   -7.1143   -0.9360 H       1  LIG1        0.0731
     41 C          -2.1685  -10.2526   -0.1330 C.3     1  LIG1       -0.0348
     42 H          -1.2604  -10.5141    0.3689 H       1  LIG1        0.0279
     43 H          -2.1298  -10.5998   -1.1444 H       1  LIG1        0.0279
     44 H          -2.9970  -10.7072    0.3688 H       1  LIG1        0.0279
@<TRIPOS>BOND
     1    43    41    1
     2    40    37    1
     3    35    32    1
     4    32    31   ar
     5    32    33   ar
     6    41    31    1
     7    41    44    1
     8    41    42    1
     9    34    33    1
    10    31    30   ar
    11    33    29   ar
    12    30    29   ar
    13    30    36    1
    14    29    23    1
    15    23    24   ar
    16    23    22   ar
    17    36    37    1
    18    27    28    1
    19    27    38    1
    20    37    39    1
    21    24    20   ar
    22    28    22    1
    23    22    21   ar
    24    17    16    1
    25    20    21   ar
    26    20    15    1
    27    21    26    1
    28    16    15   ar
    29    16    12   ar
    30    15    14   ar
    31    26    25    3
    32     2     9    1
    33     2     1   ar
    34     2     3   ar
    35     9     8    3
    36     6     5    1
    37     4    12    1
    38     4     5   ar
    39     4     3   ar
    40    12    13   ar
    41     5     1   ar
    42     1     7    1
    43     3    10    1
    44    10    11    1
    45    14    13   ar
    46    14    19    1
    47    13    18    1
