@<TRIPOS>MOLECULE
mol_data/noopt/geoms/mol2/13df13df-13df13df-.out
 42 45 0 0 0
SMALL
GASTEIGER

@<TRIPOS>ATOM
      1 C           1.1215   -0.3259    0.0002 C.ar    1  LIG1        0.0233
      2 C           0.7176    0.9721   -0.0005 C.ar    1  LIG1        0.1110
      3 C          -0.7144    0.9744    0.0003 C.ar    1  LIG1        0.1609
      4 C          -1.1226   -0.3223   -0.0003 C.ar    1  LIG1        0.1076
      5 N          -0.0018   -1.1217    0.0001 N.ar    1  LIG1       -0.3554
      6 H          -0.0034   -2.1157   -0.0003 H       1  LIG1        0.1655
      7 H           2.3167   -0.8373    0.0007 H       1  LIG1        0.0821
      8 N           2.1747    2.9375   -0.0001 N.1     1  LIG1       -0.1907
      9 C           1.4918    2.0164   -0.0003 C.1     1  LIG1        0.1043
     10 O          -1.4853    2.0212    0.0010 O.3     1  LIG1       -0.5034
     11 H          -2.4040    1.7426    0.0012 H       1  LIG1        0.2923
     12 C          -2.3194   -0.8299   -0.0001 C.ar    1  LIG1        0.0882
     13 C          -2.7274   -2.1266   -0.0005 C.ar    1  LIG1        0.1205
     14 C          -4.1594   -2.1244    0.0011 C.ar    1  LIG1        0.1616
     15 C          -4.5635   -0.8264    0.0006 C.ar    1  LIG1        0.1081
     16 N          -3.4402   -0.0305    0.0003 N.ar    1  LIG1       -0.3478
     17 H          -3.4386    0.9635   -0.0001 H       1  LIG1        0.1661
     18 N          -1.2766   -4.0966   -0.0007 N.1     1  LIG1       -0.1907
     19 C          -1.9565   -3.1734   -0.0006 C.1     1  LIG1        0.1050
     20 O          -4.9337   -3.1687    0.0023 O.3     1  LIG1       -0.5034
     21 H          -4.3975   -3.9651    0.0026 H       1  LIG1        0.2923
     22 C          -5.7587   -0.3150    0.0014 C.ar    1  LIG1        0.0883
     23 C          -6.1626    0.9830    0.0016 C.ar    1  LIG1        0.1205
     24 C          -7.5946    0.9853    0.0038 C.ar    1  LIG1        0.1616
     25 C          -8.0028   -0.3114    0.0030 C.ar    1  LIG1        0.1080
     26 N          -6.8820   -1.1108    0.0021 N.ar    1  LIG1       -0.3478
     27 H          -6.8836   -2.1048    0.0013 H       1  LIG1        0.1661
     28 N          -4.7055    2.9484    0.0014 N.1     1  LIG1       -0.1907
     29 C          -5.3884    2.0273    0.0015 C.1     1  LIG1        0.1050
     30 O          -8.3655    2.0321    0.0056 O.3     1  LIG1       -0.5034
     31 H          -9.2842    1.7535    0.0060 H       1  LIG1        0.2923
     32 C          -9.1996   -0.8190    0.0041 C.ar    1  LIG1        0.0878
     33 C          -9.6076   -2.1157    0.0044 C.ar    1  LIG1        0.1198
     34 C         -11.0396   -2.1135    0.0069 C.ar    1  LIG1        0.1521
     35 C         -11.4437   -0.8155    0.0063 C.ar    1  LIG1        0.0455
     36 N         -10.3204   -0.0196    0.0051 N.ar    1  LIG1       -0.3553
     37 H         -10.3188    0.9744    0.0043 H       1  LIG1        0.1655
     38 H         -12.6389   -0.3041    0.0077 H       1  LIG1        0.0845
     39 N          -8.1568   -4.0857    0.0037 N.1     1  LIG1       -0.1907
     40 C          -8.8367   -3.1625    0.0040 C.1     1  LIG1        0.1050
     41 O         -11.8139   -3.1578    0.0089 O.3     1  LIG1       -0.5040
     42 H         -11.2777   -3.9542    0.0094 H       1  LIG1        0.2923
@<TRIPOS>BOND
     1    18    19    3
     2    19    13    1
     3     2     9    1
     4     2     1   ar
     5     2     3   ar
     6    13    12   ar
     7    13    14   ar
     8     4    12    1
     9     4     5   ar
    10     4     3   ar
    11     6     5    1
    12     9     8    3
    13    17    16    1
    14    12    16   ar
    15     5     1   ar
    16     1     7    1
    17     3    10    1
    18    16    15   ar
    19    15    14   ar
    20    15    22    1
    21    10    11    1
    22    14    20    1
    23    27    26    1
    24    28    29    3
    25    22    23   ar
    26    22    26   ar
    27    29    23    1
    28    23    24   ar
    29    26    25   ar
    30    20    21    1
    31    25    24   ar
    32    25    32    1
    33    39    40    3
    34    24    30    1
    35    40    33    1
    36    32    33   ar
    37    32    36   ar
    38    37    36    1
    39    33    34   ar
    40    36    35   ar
    41    30    31    1
    42    35    34   ar
    43    35    38    1
    44    34    41    1
    45    41    42    1
