@<TRIPOS>MOLECULE
mol_data/noopt/geoms/mol2/13dg13dg13dg-.out
 32 34 0 0 0
SMALL
GASTEIGER

@<TRIPOS>ATOM
      1 C           1.1215   -0.3259    0.0002 C.2     1  LIG1        0.0089
      2 C           0.7176    0.9721   -0.0005 C.2     1  LIG1        0.0779
      3 C          -0.7144    0.9744    0.0003 C.2     1  LIG1        0.0468
      4 C          -1.1226   -0.3223   -0.0003 C.3     1  LIG1        0.1349
      5 N          -0.0018   -1.1217    0.0001 N.pl3   1  LIG1       -0.3317
      6 H          -0.0034   -2.1157   -0.0003 H       1  LIG1        0.1469
      7 H           2.3167   -0.8373    0.0007 H       1  LIG1        0.0792
      8 N           2.1747    2.9375   -0.0001 N.1     1  LIG1       -0.1908
      9 C           1.4918    2.0164   -0.0003 C.1     1  LIG1        0.1013
     10 S          -1.4853    2.0211    0.0010 S.2     1  LIG1       -0.0526
     11 H          -2.7389    1.6410    0.0012 H       1  LIG1        0.0855
     12 C          -2.3194   -0.8299   -0.0001 C.2     1  LIG1        0.0461
     13 C          -3.5352   -0.2220    0.0163 C.2     1  LIG1        0.0268
     14 C          -4.5290   -1.2531    0.0088 C.2     1  LIG1        0.0386
     15 C          -3.8768   -2.4456   -0.0136 C.3     1  LIG1        0.1370
     16 N          -2.5238   -2.1911   -0.0187 N.pl3   1  LIG1       -0.3274
     17 H          -1.8082   -2.8808   -0.0339 H       1  LIG1        0.1472
     18 N          -3.9430    2.1900    0.0546 N.2     1  LIG1       -0.1570
     19 C          -3.7519    1.0596    0.0366 C.2     1  LIG1        0.0594
     20 S          -5.8178   -1.0839    0.0207 S.2     1  LIG1       -0.0532
     21 H          -6.4121   -2.2513    0.0247 H       1  LIG1        0.0855
     22 C          -4.3399   -3.6602   -0.0280 C.ar    1  LIG1        0.0574
     23 C          -5.6206   -4.1159   -0.0215 C.ar    1  LIG1        0.0310
     24 C          -5.5656   -5.5467   -0.0437 C.ar    1  LIG1        0.0311
     25 C          -4.2537   -5.9024   -0.0646 C.ar    1  LIG1        0.0158
     26 N          -3.4998   -4.7505   -0.0546 N.ar    1  LIG1       -0.3608
     27 H          -2.5066   -4.7122   -0.0655 H       1  LIG1        0.1651
     28 H          -3.6986   -7.0777   -0.0891 H       1  LIG1        0.0818
     29 N          -7.6426   -2.7392    0.0232 N.2     1  LIG1       -0.1570
     30 C          -6.6950   -3.3844    0.0022 C.2     1  LIG1        0.0599
     31 S          -6.5806   -6.3589   -0.0444 S.3     1  LIG1       -0.1406
     32 H          -6.1504   -7.5963   -0.0446 H       1  LIG1        0.1072
@<TRIPOS>BOND
     1    28    25    1
     2    27    26    1
     3    25    26   ar
     4    25    24   ar
     5    26    22   ar
     6    32    31    1
     7    31    24    1
     8    24    23   ar
     9    17    16    1
    10    22    23   ar
    11    22    15    1
    12    23    30    1
    13    16    15    1
    14    16    12    1
    15    15    14    1
    16     2     9    1
    17     2     1    2
    18     2     3    1
    19     9     8    3
    20     4    12    1
    21     4     5    1
    22     4     3    1
    23     6     5    1
    24    12    13    2
    25     5     1    1
    26     1     7    1
    27     3    10    2
    28    11    19    1
    29    30    29    2
    30    30    21    1
    31    14    13    1
    32    14    20    2
    33    13    19    1
    34    19    18    2
