@<TRIPOS>MOLECULE
mol_data/noopt/geoms/mol2/13dg13dg13dg13dg-.out
 42 45 0 0 0
SMALL
GASTEIGER

@<TRIPOS>ATOM
      1 C           1.1215   -0.3259    0.0002 C.2     1  LIG1        0.0089
      2 C           0.7176    0.9721   -0.0005 C.2     1  LIG1        0.0779
      3 C          -0.7144    0.9744    0.0003 C.2     1  LIG1        0.0468
      4 C          -1.1226   -0.3223   -0.0003 C.3     1  LIG1        0.1349
      5 N          -0.0018   -1.1217    0.0001 N.pl3   1  LIG1       -0.3317
      6 H          -0.0034   -2.1157   -0.0003 H       1  LIG1        0.1469
      7 H           2.3167   -0.8373    0.0007 H       1  LIG1        0.0792
      8 N           2.1747    2.9375   -0.0001 N.1     1  LIG1       -0.1908
      9 C           1.4918    2.0164   -0.0003 C.1     1  LIG1        0.1013
     10 S          -1.4853    2.0211    0.0010 S.2     1  LIG1       -0.0526
     11 H          -2.7389    1.6410    0.0012 H       1  LIG1        0.0855
     12 C          -2.3194   -0.8299   -0.0001 C.2     1  LIG1        0.0461
     13 C          -3.5352   -0.2220    0.0163 C.2     1  LIG1        0.0268
     14 C          -4.5290   -1.2531    0.0088 C.2     1  LIG1        0.0384
     15 C          -3.8768   -2.4456   -0.0136 C.3     1  LIG1        0.1345
     16 N          -2.5238   -2.1911   -0.0187 N.pl3   1  LIG1       -0.3276
     17 H          -1.8082   -2.8808   -0.0339 H       1  LIG1        0.1472
     18 N          -3.9430    2.1900    0.0546 N.2     1  LIG1       -0.1570
     19 C          -3.7519    1.0596    0.0366 C.2     1  LIG1        0.0594
     20 S          -5.8178   -1.0839    0.0207 S.2     1  LIG1       -0.0533
     21 H          -6.4121   -2.2513    0.0247 H       1  LIG1        0.0855
     22 C          -4.3399   -3.6602   -0.0280 C.2     1  LIG1        0.0461
     23 C          -5.6207   -4.1157   -0.0381 C.2     1  LIG1        0.0268
     24 C          -5.5656   -5.5466   -0.0513 C.2     1  LIG1        0.0386
     25 C          -4.2537   -5.9026   -0.0505 C.3     1  LIG1        0.1370
     26 N          -3.4998   -4.7508   -0.0358 N.pl3   1  LIG1       -0.3274
     27 H          -2.5065   -4.7126   -0.0320 H       1  LIG1        0.1472
     28 N          -7.6428   -2.7385   -0.0317 N.2     1  LIG1       -0.1570
     29 C          -6.6951   -3.3839   -0.0347 C.2     1  LIG1        0.0594
     30 S          -6.5807   -6.3587   -0.0626 S.2     1  LIG1       -0.0532
     31 H          -6.1507   -7.5961   -0.0664 H       1  LIG1        0.0855
     32 C          -3.6985   -7.0781   -0.0599 C.ar    1  LIG1        0.0574
     33 C          -4.2574   -8.3173   -0.0667 C.ar    1  LIG1        0.0310
     34 C          -3.1873   -9.2689   -0.0749 C.ar    1  LIG1        0.0311
     35 C          -2.0217   -8.5694   -0.0746 C.ar    1  LIG1        0.0158
     36 N          -2.3301   -7.2277   -0.0649 N.ar    1  LIG1       -0.3608
     37 H          -1.6695   -6.4850   -0.0627 H       1  LIG1        0.1651
     38 H          -0.7894   -8.9834   -0.0805 H       1  LIG1        0.0818
     39 N          -6.6515   -8.8214   -0.0624 N.2     1  LIG1       -0.1570
     40 C          -5.5295   -8.5852   -0.0644 C.2     1  LIG1        0.0599
     41 S          -3.3049  -10.5635   -0.0819 S.3     1  LIG1       -0.1406
     42 H          -2.1146  -11.1106   -0.0842 H       1  LIG1        0.1072
@<TRIPOS>BOND
     1    42    41    1
     2    41    34    1
     3    38    35    1
     4    34    35   ar
     5    34    33   ar
     6    35    36   ar
     7    33    40    1
     8    33    32   ar
     9    31    40    1
    10    36    37    1
    11    36    32   ar
    12    40    39    2
    13    30    24    2
    14    32    25    1
    15    24    25    1
    16    24    23    1
    17    25    26    1
    18    23    29    1
    19    23    22    2
    20    26    27    1
    21    26    22    1
    22    29    28    2
    23    29    21    1
    24    17    16    1
    25    22    15    1
    26    16    15    1
    27    16    12    1
    28    15    14    1
    29     2     9    1
    30     2     1    2
    31     2     3    1
    32     4    12    1
    33     4     5    1
    34     4     3    1
    35     6     5    1
    36     9     8    3
    37    12    13    2
    38     5     1    1
    39     1     7    1
    40     3    10    2
    41    11    19    1
    42    14    13    1
    43    14    20    2
    44    13    19    1
    45    19    18    2
