@<TRIPOS>MOLECULE
mol_data/noopt/geoms/mol2/13dg13dg-13dg-13dg-.out
 42 45 0 0 0
SMALL
GASTEIGER

@<TRIPOS>ATOM
      1 C           1.1215   -0.3259    0.0002 C.2     1  LIG1        0.0089
      2 C           0.7176    0.9721   -0.0005 C.2     1  LIG1        0.0779
      3 C          -0.7144    0.9744    0.0003 C.2     1  LIG1        0.0468
      4 C          -1.1226   -0.3223   -0.0003 C.3     1  LIG1        0.1349
      5 N          -0.0018   -1.1217    0.0001 N.pl3   1  LIG1       -0.3317
      6 H          -0.0034   -2.1157   -0.0003 H       1  LIG1        0.1469
      7 H           2.3167   -0.8373    0.0007 H       1  LIG1        0.0792
      8 N           2.1747    2.9375   -0.0001 N.1     1  LIG1       -0.1908
      9 C           1.4918    2.0164   -0.0003 C.1     1  LIG1        0.1013
     10 S          -1.4853    2.0211    0.0010 S.2     1  LIG1       -0.0526
     11 H          -2.7389    1.6410    0.0012 H       1  LIG1        0.0855
     12 C          -2.3194   -0.8299   -0.0001 C.2     1  LIG1        0.0461
     13 C          -3.5353   -0.2219   -0.0003 C.2     1  LIG1        0.0268
     14 C          -4.5290   -1.2530    0.0012 C.2     1  LIG1        0.0384
     15 C          -3.8767   -2.4457    0.0005 C.3     1  LIG1        0.1345
     16 N          -2.5238   -2.1913    0.0002 N.pl3   1  LIG1       -0.3276
     17 H          -1.8081   -2.8811   -0.0004 H       1  LIG1        0.1472
     18 N          -3.9431    2.1904   -0.0003 N.2     1  LIG1       -0.1570
     19 C          -3.7520    1.0599   -0.0003 C.2     1  LIG1        0.0594
     20 S          -5.8179   -1.0837    0.0025 S.2     1  LIG1       -0.0533
     21 H          -6.4122   -2.2511    0.0029 H       1  LIG1        0.0855
     22 C          -4.3398   -3.6604    0.0012 C.2     1  LIG1        0.0461
     23 C          -5.6205   -4.1161    0.0179 C.2     1  LIG1        0.0268
     24 C          -5.5654   -5.5470    0.0109 C.2     1  LIG1        0.0386
     25 C          -4.2536   -5.9029   -0.0115 C.3     1  LIG1        0.1370
     26 N          -3.4998   -4.7509   -0.0171 N.pl3   1  LIG1       -0.3274
     27 H          -2.5066   -4.7126   -0.0325 H       1  LIG1        0.1472
     28 N          -7.6424   -2.7390    0.0560 N.2     1  LIG1       -0.1570
     29 C          -6.6948   -3.3844    0.0381 C.2     1  LIG1        0.0594
     30 S          -6.5803   -6.3592    0.0232 S.2     1  LIG1       -0.0532
     31 H          -6.1501   -7.5966    0.0273 H       1  LIG1        0.0855
     32 C          -3.6985   -7.0783   -0.0256 C.ar    1  LIG1        0.0574
     33 C          -4.2574   -8.3175   -0.0355 C.ar    1  LIG1        0.0310
     34 C          -3.1874   -9.2691   -0.0484 C.ar    1  LIG1        0.0311
     35 C          -2.0218   -8.5696   -0.0476 C.ar    1  LIG1        0.0158
     36 N          -2.3301   -7.2280   -0.0332 N.ar    1  LIG1       -0.3608
     37 H          -1.6695   -6.4853   -0.0295 H       1  LIG1        0.1651
     38 H          -0.7895   -8.9837   -0.0567 H       1  LIG1        0.0818
     39 N          -6.6515   -8.8216   -0.0292 N.2     1  LIG1       -0.1570
     40 C          -5.5295   -8.5853   -0.0321 C.2     1  LIG1        0.0599
     41 S          -3.3050  -10.5637   -0.0593 S.3     1  LIG1       -0.1406
     42 H          -2.1148  -11.1109   -0.0630 H       1  LIG1        0.1072
@<TRIPOS>BOND
     1    42    41    1
     2    41    34    1
     3    38    35    1
     4    34    35   ar
     5    34    33   ar
     6    35    36   ar
     7    33    40    1
     8    33    32   ar
     9    36    37    1
    10    36    32   ar
    11    27    26    1
    12    40    39    2
    13    40    31    1
    14    32    25    1
    15    26    25    1
    16    26    22    1
    17    25    24    1
    18     2     9    1
    19     2     1    2
    20     2     3    1
    21    17    16    1
    22    13    19    1
    23    13    12    2
    24    13    14    1
    25     9     8    3
    26     6     5    1
    27     4    12    1
    28     4     5    1
    29     4     3    1
    30    19    18    2
    31    19    11    1
    32    12    16    1
    33     5     1    1
    34    16    15    1
    35     1     7    1
    36     3    10    2
    37    15    14    1
    38    15    22    1
    39    14    20    2
    40    22    23    2
    41    21    29    1
    42    24    23    1
    43    24    30    2
    44    23    29    1
    45    29    28    2
