@<TRIPOS>MOLECULE
mol_data/noopt/geoms/mol2/13dg13dg-13dg13dg.out
 42 45 0 0 0
SMALL
GASTEIGER

@<TRIPOS>ATOM
      1 C           1.1215   -0.3259    0.0002 C.2     1  LIG1        0.0089
      2 C           0.7176    0.9721   -0.0005 C.2     1  LIG1        0.0779
      3 C          -0.7144    0.9744    0.0003 C.2     1  LIG1        0.0468
      4 C          -1.1226   -0.3223   -0.0003 C.3     1  LIG1        0.1349
      5 N          -0.0018   -1.1217    0.0001 N.pl3   1  LIG1       -0.3317
      6 H          -0.0034   -2.1157   -0.0003 H       1  LIG1        0.1469
      7 H           2.3167   -0.8373    0.0007 H       1  LIG1        0.0792
      8 N           2.1747    2.9375   -0.0001 N.1     1  LIG1       -0.1908
      9 C           1.4918    2.0164   -0.0003 C.1     1  LIG1        0.1013
     10 S          -1.4853    2.0211    0.0010 S.2     1  LIG1       -0.0526
     11 H          -2.7389    1.6410    0.0012 H       1  LIG1        0.0855
     12 C          -2.3194   -0.8299   -0.0001 C.2     1  LIG1        0.0461
     13 C          -3.5353   -0.2219   -0.0003 C.2     1  LIG1        0.0268
     14 C          -4.5290   -1.2530    0.0012 C.2     1  LIG1        0.0384
     15 C          -3.8767   -2.4457    0.0005 C.3     1  LIG1        0.1345
     16 N          -2.5238   -2.1913    0.0002 N.pl3   1  LIG1       -0.3276
     17 H          -1.8081   -2.8811   -0.0004 H       1  LIG1        0.1472
     18 N          -3.9431    2.1904   -0.0003 N.2     1  LIG1       -0.1570
     19 C          -3.7520    1.0599   -0.0003 C.2     1  LIG1        0.0594
     20 S          -5.8179   -1.0837    0.0025 S.2     1  LIG1       -0.0533
     21 H          -6.4122   -2.2511    0.0029 H       1  LIG1        0.0855
     22 C          -4.3398   -3.6604    0.0012 C.2     1  LIG1        0.0461
     23 C          -5.6206   -4.1160    0.0013 C.2     1  LIG1        0.0268
     24 C          -5.5655   -5.5470    0.0033 C.2     1  LIG1        0.0386
     25 C          -4.2535   -5.9029    0.0026 C.3     1  LIG1        0.1370
     26 N          -3.4996   -4.7510    0.0018 N.pl3   1  LIG1       -0.3274
     27 H          -2.5064   -4.7127    0.0010 H       1  LIG1        0.1472
     28 N          -7.6428   -2.7389    0.0012 N.2     1  LIG1       -0.1570
     29 C          -6.6951   -3.3843    0.0012 C.2     1  LIG1        0.0594
     30 S          -6.5805   -6.3592    0.0050 S.2     1  LIG1       -0.0532
     31 H          -6.1504   -7.5965    0.0056 H       1  LIG1        0.0855
     32 C          -3.6983   -7.0784    0.0036 C.ar    1  LIG1        0.0574
     33 C          -4.2570   -8.3176    0.0205 C.ar    1  LIG1        0.0310
     34 C          -3.1869   -9.2692    0.0139 C.ar    1  LIG1        0.0311
     35 C          -2.0215   -8.5697   -0.0086 C.ar    1  LIG1        0.0158
     36 N          -2.3300   -7.2281   -0.0145 N.ar    1  LIG1       -0.3608
     37 H          -1.6695   -6.4854   -0.0300 H       1  LIG1        0.1651
     38 H          -0.7893   -8.9838   -0.0224 H       1  LIG1        0.0818
     39 N          -6.6508   -8.8216    0.0585 N.2     1  LIG1       -0.1570
     40 C          -5.5289   -8.5854    0.0407 C.2     1  LIG1        0.0599
     41 S          -3.3044  -10.5638    0.0265 S.3     1  LIG1       -0.1406
     42 H          -2.1140  -11.1108    0.0307 H       1  LIG1        0.1072
@<TRIPOS>BOND
     1    37    36    1
     2    38    35    1
     3    36    35   ar
     4    36    32   ar
     5    35    34   ar
     6     2     9    1
     7     2     1    2
     8     2     3    1
     9    17    16    1
    10    13    19    1
    11    13    12    2
    12    13    14    1
    13     4    12    1
    14     4     5    1
    15     4     3    1
    16     9     8    3
    17     6     5    1
    18    19    18    2
    19    19    11    1
    20    12    16    1
    21     5     1    1
    22    16    15    1
    23     1     7    1
    24     3    10    2
    25    15    14    1
    26    15    22    1
    27    27    26    1
    28    28    29    2
    29    14    20    2
    30    22    23    2
    31    22    26    1
    32    29    23    1
    33    29    21    1
    34    23    24    1
    35    26    25    1
    36    25    24    1
    37    25    32    1
    38    24    30    2
    39    32    33   ar
    40    31    40    1
    41    34    33   ar
    42    34    41    1
    43    33    40    1
    44    41    42    1
    45    40    39    2
