@<TRIPOS>MOLECULE
mol_data/noopt/geoms/mol2/13dg13dg-13dg.out
 32 34 0 0 0
SMALL
GASTEIGER

@<TRIPOS>ATOM
      1 C           1.1215   -0.3259    0.0002 C.2     1  LIG1        0.0089
      2 C           0.7176    0.9721   -0.0005 C.2     1  LIG1        0.0779
      3 C          -0.7144    0.9744    0.0003 C.2     1  LIG1        0.0468
      4 C          -1.1226   -0.3223   -0.0003 C.3     1  LIG1        0.1349
      5 N          -0.0018   -1.1217    0.0001 N.pl3   1  LIG1       -0.3317
      6 H          -0.0034   -2.1157   -0.0003 H       1  LIG1        0.1469
      7 H           2.3167   -0.8373    0.0007 H       1  LIG1        0.0792
      8 N           2.1747    2.9375   -0.0001 N.1     1  LIG1       -0.1908
      9 C           1.4918    2.0164   -0.0003 C.1     1  LIG1        0.1013
     10 S          -1.4853    2.0211    0.0010 S.2     1  LIG1       -0.0526
     11 H          -2.7389    1.6410    0.0012 H       1  LIG1        0.0855
     12 C          -2.3194   -0.8299   -0.0001 C.2     1  LIG1        0.0461
     13 C          -3.5353   -0.2219   -0.0003 C.2     1  LIG1        0.0268
     14 C          -4.5290   -1.2530    0.0012 C.2     1  LIG1        0.0386
     15 C          -3.8767   -2.4457    0.0005 C.3     1  LIG1        0.1370
     16 N          -2.5238   -2.1913    0.0002 N.pl3   1  LIG1       -0.3274
     17 H          -1.8081   -2.8811   -0.0004 H       1  LIG1        0.1472
     18 N          -3.9431    2.1904   -0.0003 N.2     1  LIG1       -0.1570
     19 C          -3.7520    1.0599   -0.0003 C.2     1  LIG1        0.0594
     20 S          -5.8179   -1.0837    0.0025 S.2     1  LIG1       -0.0532
     21 H          -6.4122   -2.2511    0.0029 H       1  LIG1        0.0855
     22 C          -4.3398   -3.6604    0.0012 C.ar    1  LIG1        0.0574
     23 C          -5.6206   -4.1160    0.0013 C.ar    1  LIG1        0.0310
     24 C          -5.5655   -5.5470    0.0033 C.ar    1  LIG1        0.0311
     25 C          -4.2535   -5.9029    0.0026 C.ar    1  LIG1        0.0158
     26 N          -3.4996   -4.7510    0.0018 N.ar    1  LIG1       -0.3608
     27 H          -2.5064   -4.7127    0.0010 H       1  LIG1        0.1651
     28 H          -3.6983   -7.0784    0.0036 H       1  LIG1        0.0818
     29 N          -7.6428   -2.7389    0.0012 N.2     1  LIG1       -0.1570
     30 C          -6.6951   -3.3843    0.0012 C.2     1  LIG1        0.0599
     31 S          -6.5805   -6.3592    0.0050 S.3     1  LIG1       -0.1406
     32 H          -6.1504   -7.5965    0.0056 H       1  LIG1        0.1072
@<TRIPOS>BOND
     1     2     9    1
     2     2     1    2
     3     2     3    1
     4    17    16    1
     5    13    19    1
     6    13    12    2
     7    13    14    1
     8     4    12    1
     9     4     5    1
    10     4     3    1
    11     6     5    1
    12     9     8    3
    13    19    18    2
    14    19    11    1
    15    12    16    1
    16     5     1    1
    17    16    15    1
    18     1     7    1
    19     3    10    2
    20    15    14    1
    21    15    22    1
    22    27    26    1
    23    29    30    2
    24    14    20    2
    25    22    23   ar
    26    22    26   ar
    27    30    23    1
    28    30    21    1
    29    23    24   ar
    30    26    25   ar
    31    25    24   ar
    32    25    28    1
    33    24    31    1
    34    31    32    1
