@<TRIPOS>MOLECULE
mol_data/noopt/geoms/mol2/13dh13dh13dh13dh.out
 46 49 0 0 0
SMALL
GASTEIGER

@<TRIPOS>ATOM
      1 C           1.1215   -0.3259    0.0002 C.ar    1  LIG1        0.0215
      2 C           0.7176    0.9721   -0.0005 C.ar    1  LIG1        0.0903
      3 C          -0.7144    0.9744    0.0003 C.ar    1  LIG1        0.0693
      4 C          -1.1226   -0.3223   -0.0003 C.ar    1  LIG1        0.0864
      5 N          -0.0018   -1.1217    0.0001 N.ar    1  LIG1       -0.3568
      6 H          -0.0034   -2.1157   -0.0003 H       1  LIG1        0.1655
      7 H           2.3167   -0.8373    0.0007 H       1  LIG1        0.0820
      8 N           2.1747    2.9375   -0.0001 N.1     1  LIG1       -0.1908
      9 C           1.4918    2.0164   -0.0003 C.1     1  LIG1        0.1025
     10 N          -1.4853    2.0212    0.0010 N.pl3   1  LIG1       -0.3553
     11 H          -1.0256    2.7740   -0.4702 H       1  LIG1        0.1424
     12 H          -2.3405    1.8056   -0.4703 H       1  LIG1        0.1424
     13 C          -2.3194   -0.8299   -0.0001 C.ar    1  LIG1        0.0846
     14 C          -3.5353   -0.2219   -0.0003 C.ar    1  LIG1        0.0997
     15 C          -4.5290   -1.2530    0.0012 C.ar    1  LIG1        0.0699
     16 C          -3.8767   -2.4457    0.0005 C.ar    1  LIG1        0.0869
     17 N          -2.5238   -2.1913    0.0002 N.ar    1  LIG1       -0.3493
     18 H          -1.8081   -2.8811   -0.0004 H       1  LIG1        0.1661
     19 N          -3.9431    2.1904   -0.0003 N.1     1  LIG1       -0.1907
     20 C          -3.7520    1.0599   -0.0003 C.1     1  LIG1        0.1032
     21 N          -5.8180   -1.0837    0.0025 N.pl3   1  LIG1       -0.3553
     22 H          -6.0426   -0.2307   -0.4686 H       1  LIG1        0.1424
     23 H          -6.2552   -1.8497   -0.4686 H       1  LIG1        0.1424
     24 C          -4.3398   -3.6604    0.0012 C.ar    1  LIG1        0.0846
     25 C          -5.6206   -4.1160    0.0013 C.ar    1  LIG1        0.0997
     26 C          -5.5655   -5.5470    0.0033 C.ar    1  LIG1        0.0699
     27 C          -4.2535   -5.9029    0.0026 C.ar    1  LIG1        0.0869
     28 N          -3.4996   -4.7510    0.0018 N.ar    1  LIG1       -0.3493
     29 H          -2.5064   -4.7127    0.0010 H       1  LIG1        0.1661
     30 N          -7.6428   -2.7389    0.0012 N.1     1  LIG1       -0.1907
     31 C          -6.6951   -3.3843    0.0012 C.1     1  LIG1        0.1032
     32 N          -6.5805   -6.3592    0.0050 N.pl3   1  LIG1       -0.3553
     33 H          -7.3514   -5.9303   -0.4659 H       1  LIG1        0.1424
     34 H          -6.3312   -7.2053   -0.4660 H       1  LIG1        0.1424
     35 C          -3.6983   -7.0784    0.0036 C.ar    1  LIG1        0.0842
     36 C          -4.2571   -8.3176    0.0039 C.ar    1  LIG1        0.0990
     37 C          -3.1870   -9.2693    0.0063 C.ar    1  LIG1        0.0604
     38 C          -2.0214   -8.5697    0.0055 C.ar    1  LIG1        0.0243
     39 N          -2.3298   -7.2280    0.0043 N.ar    1  LIG1       -0.3568
     40 H          -1.6693   -6.4852    0.0035 H       1  LIG1        0.1655
     41 H          -0.7891   -8.9837    0.0068 H       1  LIG1        0.0826
     42 N          -6.6512   -8.8219    0.0036 N.1     1  LIG1       -0.1907
     43 C          -5.5292   -8.5856    0.0038 C.1     1  LIG1        0.1032
     44 N          -3.3045  -10.5640    0.0083 N.pl3   1  LIG1       -0.3558
     45 H          -4.1479  -10.8228   -0.4626 H       1  LIG1        0.1424
     46 H          -2.5216  -10.9704   -0.4626 H       1  LIG1        0.1424
@<TRIPOS>BOND
     1    12    10    1
     2    11    10    1
     3    23    21    1
     4    22    21    1
     5    34    32    1
     6    33    32    1
     7    46    44    1
     8    45    44    1
     9     2     9    1
    10     2     1   ar
    11     2     3   ar
    12    18    17    1
    13    14    20    1
    14    14    13   ar
    15    14    15   ar
    16     6     5    1
    17     9     8    3
    18     4    13    1
    19     4     5   ar
    20     4     3   ar
    21    20    19    3
    22    13    17   ar
    23     5     1   ar
    24    17    16   ar
    25     1     7    1
    26     3    10    1
    27    16    15   ar
    28    16    24    1
    29    29    28    1
    30    30    31    3
    31    15    21    1
    32    24    25   ar
    33    24    28   ar
    34    31    25    1
    35    25    26   ar
    36    28    27   ar
    37    27    26   ar
    38    27    35    1
    39    26    32    1
    40    40    39    1
    41    35    36   ar
    42    35    39   ar
    43    42    43    3
    44    43    36    1
    45    36    37   ar
    46    39    38   ar
    47    38    37   ar
    48    38    41    1
    49    37    44    1
