@<TRIPOS>MOLECULE
mol_data/noopt/geoms/mol2/13dh13dh-4dh13dh.out
 48 51 0 0 0
SMALL
GASTEIGER

@<TRIPOS>ATOM
      1 C           1.1215   -0.3259    0.0002 C.ar    1  LIG1        0.0215
      2 C           0.7176    0.9721   -0.0005 C.ar    1  LIG1        0.0903
      3 C          -0.7144    0.9744    0.0003 C.ar    1  LIG1        0.0693
      4 C          -1.1226   -0.3223   -0.0003 C.ar    1  LIG1        0.0864
      5 N          -0.0018   -1.1217    0.0001 N.ar    1  LIG1       -0.3568
      6 H          -0.0034   -2.1157   -0.0003 H       1  LIG1        0.1655
      7 H           2.3167   -0.8373    0.0007 H       1  LIG1        0.0820
      8 N           2.1747    2.9375   -0.0001 N.1     1  LIG1       -0.1908
      9 C           1.4918    2.0164   -0.0003 C.1     1  LIG1        0.1025
     10 N          -1.4853    2.0212    0.0010 N.pl3   1  LIG1       -0.3553
     11 H          -1.0256    2.7740   -0.4702 H       1  LIG1        0.1424
     12 H          -2.3405    1.8056   -0.4703 H       1  LIG1        0.1424
     13 C          -2.3194   -0.8299   -0.0001 C.ar    1  LIG1        0.0846
     14 C          -2.7274   -2.1266   -0.0005 C.ar    1  LIG1        0.0996
     15 C          -4.1594   -2.1244    0.0011 C.ar    1  LIG1        0.0685
     16 C          -4.5635   -0.8264    0.0006 C.ar    1  LIG1        0.0705
     17 N          -3.4402   -0.0305    0.0003 N.ar    1  LIG1       -0.3504
     18 H          -3.4386    0.9635   -0.0001 H       1  LIG1        0.1660
     19 N          -1.2766   -4.0966   -0.0007 N.1     1  LIG1       -0.1907
     20 C          -1.9565   -3.1734   -0.0006 C.1     1  LIG1        0.1032
     21 N          -4.9336   -3.1687    0.0023 N.pl3   1  LIG1       -0.3553
     22 H          -5.7883   -2.9506   -0.4688 H       1  LIG1        0.1424
     23 H          -4.4765   -3.9231   -0.4688 H       1  LIG1        0.1424
     24 C          -5.9236    1.0852    0.0026 C.ar    1  LIG1        0.0616
     25 C          -7.2385    1.5895    0.0050 C.ar    1  LIG1       -0.0328
     26 C          -5.7587   -0.3150    0.0014 C.ar    1  LIG1        0.0193
     27 C          -8.3419    0.7391    0.0056 C.ar    1  LIG1        0.0215
     28 H          -7.3885    2.6668    0.0062 H       1  LIG1        0.0638
     29 C          -6.8598   -1.1644    0.0020 C.ar    1  LIG1       -0.0300
     30 C          -8.1582   -0.6442    0.0040 C.ar    1  LIG1        0.0345
     31 H          -6.7065   -2.2406    0.0011 H       1  LIG1        0.0643
     32 N          -4.0617    2.6724    0.0014 N.1     1  LIG1       -0.1908
     33 C          -4.9343    1.9285    0.0020 C.1     1  LIG1        0.0998
     34 N          -9.1838   -1.4431    0.0046 N.pl3   1  LIG1       -0.3574
     35 H          -9.9487   -1.0039   -0.4666 H       1  LIG1        0.1423
     36 H          -8.9452   -2.2922   -0.4666 H       1  LIG1        0.1423
     37 C          -9.5420    1.2389    0.0077 C.ar    1  LIG1        0.0677
     38 C          -9.9585    2.5329    0.0088 C.ar    1  LIG1        0.0976
     39 C         -11.3904    2.5213    0.0122 C.ar    1  LIG1        0.0603
     40 C         -11.7860    1.2207    0.0113 C.ar    1  LIG1        0.0243
     41 N         -10.6575    0.4322    0.0090 N.ar    1  LIG1       -0.3579
     42 H         -10.6495   -0.5617    0.0079 H       1  LIG1        0.1654
     43 H         -12.9778    0.7015    0.0134 H       1  LIG1        0.0826
     44 N          -8.5205    4.5124    0.0080 N.1     1  LIG1       -0.1907
     45 C          -9.1944    3.5847    0.0084 C.1     1  LIG1        0.1031
     46 N         -12.1714    3.5606    0.0152 N.pl3   1  LIG1       -0.3558
     47 H         -11.7196    4.3184   -0.4555 H       1  LIG1        0.1424
     48 H         -13.0250    3.3374   -0.4555 H       1  LIG1        0.1424
@<TRIPOS>BOND
     1    12    10    1
     2    11    10    1
     3    23    21    1
     4    22    21    1
     5    36    34    1
     6    35    34    1
     7    48    46    1
     8    47    46    1
     9    19    20    3
    10    20    14    1
    11     2     9    1
    12     2     1   ar
    13     2     3   ar
    14    14    13   ar
    15    14    15   ar
    16     9     8    3
    17     6     5    1
    18     4    13    1
    19     4     5   ar
    20     4     3   ar
    21    18    17    1
    22    13    17   ar
    23     5     1   ar
    24     1     7    1
    25     3    10    1
    26    17    16   ar
    27    16    15   ar
    28    16    26    1
    29    15    21    1
    30    31    29    1
    31    32    33    3
    32    26    29   ar
    33    26    24   ar
    34    33    24    1
    35    29    30   ar
    36    24    25   ar
    37    30    34    1
    38    30    27   ar
    39    25    27   ar
    40    25    28    1
    41    27    37    1
    42    37    38   ar
    43    37    41   ar
    44    42    41    1
    45    44    45    3
    46    45    38    1
    47    38    39   ar
    48    41    40   ar
    49    40    39   ar
    50    40    43    1
    51    39    46    1
