@<TRIPOS>MOLECULE
mol_data/noopt/geoms/mol2/13dh13dh-.out
 24 25 0 0 0
SMALL
GASTEIGER

@<TRIPOS>ATOM
      1 C           1.1215   -0.3259    0.0002 C.ar    1  LIG1        0.0215
      2 C           0.7176    0.9721   -0.0005 C.ar    1  LIG1        0.0903
      3 C          -0.7144    0.9744    0.0003 C.ar    1  LIG1        0.0693
      4 C          -1.1226   -0.3223   -0.0003 C.ar    1  LIG1        0.0864
      5 N          -0.0018   -1.1217    0.0001 N.ar    1  LIG1       -0.3568
      6 H          -0.0034   -2.1157   -0.0003 H       1  LIG1        0.1655
      7 H           2.3167   -0.8373    0.0007 H       1  LIG1        0.0820
      8 N           2.1747    2.9375   -0.0001 N.1     1  LIG1       -0.1908
      9 C           1.4918    2.0164   -0.0003 C.1     1  LIG1        0.1025
     10 N          -1.4853    2.0212    0.0010 N.pl3   1  LIG1       -0.3553
     11 H          -1.0256    2.7740   -0.4702 H       1  LIG1        0.1424
     12 H          -2.3405    1.8056   -0.4703 H       1  LIG1        0.1424
     13 C          -2.3194   -0.8299   -0.0001 C.ar    1  LIG1        0.0841
     14 C          -2.7274   -2.1266   -0.0005 C.ar    1  LIG1        0.0990
     15 C          -4.1594   -2.1244    0.0011 C.ar    1  LIG1        0.0604
     16 C          -4.5635   -0.8264    0.0006 C.ar    1  LIG1        0.0243
     17 N          -3.4402   -0.0305    0.0003 N.ar    1  LIG1       -0.3568
     18 H          -3.4386    0.9635   -0.0001 H       1  LIG1        0.1655
     19 H          -5.7587   -0.3150    0.0014 H       1  LIG1        0.0826
     20 N          -1.2766   -4.0966   -0.0007 N.1     1  LIG1       -0.1907
     21 C          -1.9565   -3.1734   -0.0006 C.1     1  LIG1        0.1032
     22 N          -4.9336   -3.1687    0.0023 N.pl3   1  LIG1       -0.3558
     23 H          -5.7883   -2.9506   -0.4688 H       1  LIG1        0.1424
     24 H          -4.4765   -3.9231   -0.4688 H       1  LIG1        0.1424
@<TRIPOS>BOND
     1    12    10    1
     2    11    10    1
     3    24    22    1
     4    23    22    1
     5    20    21    3
     6    21    14    1
     7     2     9    1
     8     2     1   ar
     9     2     3   ar
    10    14    13   ar
    11    14    15   ar
    12     4    13    1
    13     4     5   ar
    14     4     3   ar
    15     6     5    1
    16     9     8    3
    17    18    17    1
    18    13    17   ar
    19     5     1   ar
    20     1     7    1
    21     3    10    1
    22    17    16   ar
    23    16    15   ar
    24    16    19    1
    25    15    22    1
