@<TRIPOS>MOLECULE
mol_data/noopt/geoms/mol2/13dh13dh-13dh-13dh.out
 46 49 0 0 0
SMALL
GASTEIGER

@<TRIPOS>ATOM
      1 C           1.1215   -0.3259    0.0002 C.ar    1  LIG1        0.0215
      2 C           0.7176    0.9721   -0.0005 C.ar    1  LIG1        0.0903
      3 C          -0.7144    0.9744    0.0003 C.ar    1  LIG1        0.0693
      4 C          -1.1226   -0.3223   -0.0003 C.ar    1  LIG1        0.0864
      5 N          -0.0018   -1.1217    0.0001 N.ar    1  LIG1       -0.3568
      6 H          -0.0034   -2.1157   -0.0003 H       1  LIG1        0.1655
      7 H           2.3167   -0.8373    0.0007 H       1  LIG1        0.0820
      8 N           2.1747    2.9375   -0.0001 N.1     1  LIG1       -0.1908
      9 C           1.4918    2.0164   -0.0003 C.1     1  LIG1        0.1025
     10 N          -1.4853    2.0212    0.0010 N.pl3   1  LIG1       -0.3553
     11 H          -1.0256    2.7740   -0.4702 H       1  LIG1        0.1424
     12 H          -2.3405    1.8056   -0.4703 H       1  LIG1        0.1424
     13 C          -2.3194   -0.8299   -0.0001 C.ar    1  LIG1        0.0846
     14 C          -2.7274   -2.1266   -0.0005 C.ar    1  LIG1        0.0997
     15 C          -4.1594   -2.1244    0.0011 C.ar    1  LIG1        0.0699
     16 C          -4.5635   -0.8264    0.0006 C.ar    1  LIG1        0.0869
     17 N          -3.4402   -0.0305    0.0003 N.ar    1  LIG1       -0.3493
     18 H          -3.4386    0.9635   -0.0001 H       1  LIG1        0.1661
     19 N          -1.2766   -4.0966   -0.0007 N.1     1  LIG1       -0.1907
     20 C          -1.9565   -3.1734   -0.0006 C.1     1  LIG1        0.1032
     21 N          -4.9336   -3.1687    0.0023 N.pl3   1  LIG1       -0.3553
     22 H          -5.7883   -2.9506   -0.4688 H       1  LIG1        0.1424
     23 H          -4.4765   -3.9231   -0.4688 H       1  LIG1        0.1424
     24 C          -5.7587   -0.3150    0.0014 C.ar    1  LIG1        0.0846
     25 C          -6.9765   -0.9191    0.0015 C.ar    1  LIG1        0.0997
     26 C          -7.9670    0.1151    0.0037 C.ar    1  LIG1        0.0699
     27 C          -7.3109    1.3057    0.0031 C.ar    1  LIG1        0.0869
     28 N          -5.9587    1.0470    0.0022 N.ar    1  LIG1       -0.3493
     29 H          -5.2408    1.7345    0.0016 H       1  LIG1        0.1661
     30 N          -7.3920   -3.3302    0.0010 N.1     1  LIG1       -0.1907
     31 C          -7.1973   -2.2002    0.0012 C.1     1  LIG1        0.1032
     32 N          -9.2564   -0.0501    0.0054 N.pl3   1  LIG1       -0.3553
     33 H          -9.6914    0.7174   -0.4655 H       1  LIG1        0.1424
     34 H          -9.4839   -0.9024   -0.4656 H       1  LIG1        0.1424
     35 C          -7.7701    2.5219    0.0044 C.ar    1  LIG1        0.0842
     36 C          -7.1139    3.7125    0.0049 C.ar    1  LIG1        0.0990
     37 C          -8.1043    4.7467    0.0074 C.ar    1  LIG1        0.0604
     38 C          -9.3222    4.1427    0.0066 C.ar    1  LIG1        0.0243
     39 N          -9.1222    2.7807    0.0052 N.ar    1  LIG1       -0.3568
     40 H          -9.8401    2.0932    0.0043 H       1  LIG1        0.1655
     41 H         -10.5174    4.6541    0.0080 H       1  LIG1        0.0826
     42 N          -4.6871    4.0233    0.0045 N.1     1  LIG1       -0.1907
     43 C          -5.8244    3.8776    0.0047 C.1     1  LIG1        0.1032
     44 N          -7.8835    6.0278    0.0096 N.pl3   1  LIG1       -0.3558
     45 H          -7.0221    6.2184   -0.4612 H       1  LIG1        0.1424
     46 H          -8.6314    6.4958   -0.4613 H       1  LIG1        0.1424
@<TRIPOS>BOND
     1    12    10    1
     2    11    10    1
     3    23    21    1
     4    22    21    1
     5    34    32    1
     6    33    32    1
     7    46    44    1
     8    45    44    1
     9    19    20    3
    10    20    14    1
    11     2     9    1
    12     2     1   ar
    13     2     3   ar
    14    14    13   ar
    15    14    15   ar
    16     9     8    3
    17     6     5    1
    18     4    13    1
    19     4     5   ar
    20     4     3   ar
    21    18    17    1
    22    13    17   ar
    23     5     1   ar
    24     1     7    1
    25     3    10    1
    26    17    16   ar
    27    16    15   ar
    28    16    24    1
    29    30    31    3
    30    15    21    1
    31    31    25    1
    32    24    25   ar
    33    24    28   ar
    34    25    26   ar
    35    29    28    1
    36    28    27   ar
    37    27    26   ar
    38    27    35    1
    39    26    32    1
    40    40    39    1
    41    35    36   ar
    42    35    39   ar
    43    42    43    3
    44    43    36    1
    45    36    37   ar
    46    39    38   ar
    47    38    37   ar
    48    38    41    1
    49    37    44    1
