@<TRIPOS>MOLECULE
mol_data/noopt/geoms/mol2/13dh12ii(200)4ei(90)13dd(340).out
 51 54 0 0 0
SMALL
GASTEIGER

@<TRIPOS>ATOM
      1 C           1.1215   -0.3259    0.0002 C.ar    1  LIG1        0.0215
      2 C           0.7176    0.9721   -0.0005 C.ar    1  LIG1        0.0903
      3 C          -0.7144    0.9744    0.0003 C.ar    1  LIG1        0.0708
      4 C          -1.1226   -0.3223   -0.0003 C.ar    1  LIG1        0.1046
      5 N          -0.0018   -1.1217    0.0001 N.ar    1  LIG1       -0.3556
      6 H          -0.0034   -2.1157   -0.0003 H       1  LIG1        0.1655
      7 H           2.3167   -0.8373    0.0007 H       1  LIG1        0.0820
      8 N           2.1747    2.9375   -0.0001 N.1     1  LIG1       -0.1908
      9 C           1.4918    2.0164   -0.0003 C.1     1  LIG1        0.1025
     10 N          -1.4853    2.0212    0.0010 N.pl3   1  LIG1       -0.3553
     11 H          -1.0256    2.7740   -0.4702 H       1  LIG1        0.1424
     12 H          -2.3405    1.8056   -0.4703 H       1  LIG1        0.1424
     13 C          -2.3194   -0.8299   -0.0001 C.ar    1  LIG1        0.1567
     14 C          -2.8648   -2.0625   -0.2938 C.ar    1  LIG1        0.0003
     15 C          -4.2925   -1.9455   -0.0816 C.ar    1  LIG1       -0.0011
     16 C          -4.5248   -0.6486    0.3280 C.ar    1  LIG1        0.1401
     17 O          -3.3236    0.0589    0.3861 O.2     1  LIG1       -0.4527
     18 C          -2.2429   -3.1349   -0.6861 C.3     1  LIG1       -0.0358
     19 H          -1.2403   -3.1225   -0.3128 H       1  LIG1        0.0279
     20 H          -2.2250   -3.1658   -1.7556 H       1  LIG1        0.0279
     21 H          -2.7519   -3.9990   -0.3129 H       1  LIG1        0.0279
     22 C          -5.1642   -2.8952   -0.2516 C.3     1  LIG1       -0.0358
     23 H          -4.8044   -3.7951    0.2018 H       1  LIG1        0.0279
     24 H          -5.3141   -3.0586   -1.2984 H       1  LIG1        0.0279
     25 H          -6.0916   -2.6135    0.2018 H       1  LIG1        0.0279
     26 C          -5.8784    0.2440    2.0236 C.ar    1  LIG1        0.0360
     27 C          -7.0258    0.9996    2.3331 C.ar    1  LIG1       -0.0362
     28 C          -5.5733    0.0435    0.6618 C.ar    1  LIG1        0.0332
     29 C          -7.8349    1.5334    1.3326 C.ar    1  LIG1        0.0037
     30 H          -7.2797    1.1662    3.3776 H       1  LIG1        0.0637
     31 C          -6.3807    0.5762   -0.3374 C.ar    1  LIG1       -0.0464
     32 C          -7.5162    1.3244   -0.0098 C.ar    1  LIG1       -0.0406
     33 H          -6.1243    0.4076   -1.3803 H       1  LIG1        0.0628
     34 C          -5.1626   -0.2281    3.0008 C.1     1  LIG1       -0.0689
     35 C          -4.5012   -0.6643    3.9036 C.1     1  LIG1       -0.1139
     36 H          -3.9121   -1.0529    4.7079 H       1  LIG1        0.1232
     37 C          -8.2674    1.8199   -0.9484 C.3     1  LIG1       -0.0391
     38 H          -9.2584    1.4271   -0.8567 H       1  LIG1        0.0278
     39 H          -7.8656    1.5548   -1.9040 H       1  LIG1        0.0278
     40 H          -8.2962    2.8856   -0.8567 H       1  LIG1        0.0278
     41 C          -8.8868    2.2262    1.6542 C.ar    1  LIG1        0.0656
     42 C          -9.1289    3.5601    1.5538 C.ar    1  LIG1        0.0943
     43 C         -10.4504    3.7937    2.0535 C.ar    1  LIG1        0.0870
     44 C         -10.9584    2.5921    2.4358 C.ar    1  LIG1        0.0209
     45 N         -10.0042    1.6298    2.1934 N.ar    1  LIG1       -0.3584
     46 H         -10.1062    0.6584    2.3779 H       1  LIG1        0.1654
     47 H         -12.1144    2.2892    2.9475 H       1  LIG1        0.0820
     48 N          -7.5853    5.2460    0.6815 N.1     1  LIG1       -0.1908
     49 C          -8.3087    4.4559    1.0903 C.1     1  LIG1        0.1026
     50 N         -11.5904    5.9538    2.1955 N.1     1  LIG1       -0.1908
     51 C         -11.0561    4.9415    2.1290 C.1     1  LIG1        0.1020
@<TRIPOS>BOND
     1    39    37    1
     2    20    18    1
     3    33    31    1
     4    24    22    1
     5    37    40    1
     6    37    38    1
     7    37    32    1
     8    18    21    1
     9    18    19    1
    10    18    14    1
    11    12    10    1
    12    11    10    1
    13    31    32   ar
    14    31    28   ar
    15    14    15   ar
    16    14    13   ar
    17    22    15    1
    18    22    25    1
    19    22    23    1
    20    15    16   ar
    21    32    29   ar
    22     2     9    1
    23     2     1   ar
    24     2     3   ar
    25     4    13    1
    26     4     5   ar
    27     4     3   ar
    28     6     5    1
    29     9     8    3
    30    13    17   ar
    31     5     1   ar
    32     1     7    1
    33     3    10    1
    34    16    17   ar
    35    16    28    1
    36    28    26   ar
    37    48    49    3
    38    49    42    1
    39    29    41    1
    40    29    27   ar
    41    42    41   ar
    42    42    43   ar
    43    41    45   ar
    44    26    27   ar
    45    26    34    1
    46    43    51    1
    47    43    44   ar
    48    51    50    3
    49    45    46    1
    50    45    44   ar
    51    27    30    1
    52    44    47    1
    53    34    35    3
    54    35    36    1
