@<TRIPOS>MOLECULE
mol_data/noopt/geoms/mol2/13dh12ha6hi6ei.out
 50 53 0 0 0
SMALL
GASTEIGER

@<TRIPOS>ATOM
      1 C           1.1215   -0.3259    0.0002 C.ar    1  LIG1        0.0216
      2 C           0.7176    0.9721   -0.0005 C.ar    1  LIG1        0.0903
      3 C          -0.7144    0.9744    0.0003 C.ar    1  LIG1        0.0709
      4 C          -1.1226   -0.3223   -0.0003 C.ar    1  LIG1        0.1061
      5 N          -0.0018   -1.1217    0.0001 N.ar    1  LIG1       -0.3555
      6 H          -0.0034   -2.1157   -0.0003 H       1  LIG1        0.1655
      7 H           2.3167   -0.8373    0.0007 H       1  LIG1        0.0820
      8 N           2.1747    2.9375   -0.0001 N.1     1  LIG1       -0.1908
      9 C           1.4918    2.0164   -0.0003 C.1     1  LIG1        0.1025
     10 N          -1.4853    2.0212    0.0010 N.pl3   1  LIG1       -0.3552
     11 H          -1.0256    2.7740   -0.4702 H       1  LIG1        0.1424
     12 H          -2.3405    1.8056   -0.4703 H       1  LIG1        0.1424
     13 C          -2.3194   -0.8299   -0.0001 C.ar    1  LIG1        0.1741
     14 C          -3.6024   -0.3233    0.0148 C.ar    1  LIG1        0.0731
     15 C          -4.4979   -1.4613    0.0044 C.ar    1  LIG1        0.0057
     16 C          -3.7022   -2.5883   -0.0164 C.ar    1  LIG1        0.1409
     17 O          -2.3551   -2.2249   -0.0196 O.2     1  LIG1       -0.4513
     18 N          -3.9648    0.9250    0.0347 N.pl3   1  LIG1       -0.3550
     19 H          -3.2756    1.4796   -0.4316 H       1  LIG1        0.1424
     20 H          -4.8438    1.0244   -0.4317 H       1  LIG1        0.1424
     21 H          -5.7965   -1.4036    0.0131 H       1  LIG1        0.0674
     22 C          -2.8309   -4.7697   -0.0420 C.ar    1  LIG1        0.1276
     23 C          -3.9133   -3.8710   -0.0331 C.ar    1  LIG1        0.0571
     24 C          -5.2098   -4.3886   -0.0422 C.ar    1  LIG1       -0.0428
     25 C          -5.3801   -5.7740   -0.0600 C.ar    1  LIG1       -0.0236
     26 C          -4.2349   -6.5913   -0.0680 C.ar    1  LIG1        0.0787
     27 N          -2.9769   -6.1088   -0.0592 N.ar    1  LIG1       -0.2314
     28 H          -6.0803   -3.7174   -0.0366 H       1  LIG1        0.0629
     29 N          -1.6054   -4.3359   -0.0340 N.pl3   1  LIG1       -0.3426
     30 H          -1.0160   -4.9934   -0.5034 H       1  LIG1        0.1437
     31 H          -1.5609   -3.4540   -0.5034 H       1  LIG1        0.1437
     32 C          -6.5668   -6.3053   -0.0692 C.3     1  LIG1       -0.0377
     33 H          -6.5387   -7.2499    0.4327 H       1  LIG1        0.0278
     34 H          -6.8858   -6.4482   -1.0806 H       1  LIG1        0.0278
     35 H          -7.2526   -5.6551    0.4326 H       1  LIG1        0.0278
     36 C          -3.1907   -8.6954   -0.0932 C.ar    1  LIG1        0.1223
     37 C          -4.3419   -7.8868   -0.0844 C.ar    1  LIG1        0.0347
     38 C          -5.5925   -8.5072   -0.0934 C.ar    1  LIG1       -0.0455
     39 C          -5.6507   -9.9018   -0.1109 C.ar    1  LIG1       -0.0316
     40 C          -4.4433  -10.6242   -0.1188 C.ar    1  LIG1        0.0319
     41 N          -3.2283  -10.0419   -0.1101 N.ar    1  LIG1       -0.2458
     42 H          -6.5142   -7.9083   -0.0879 H       1  LIG1        0.0628
     43 H          -4.4457  -11.9241   -0.1350 H       1  LIG1        0.0832
     44 C          -2.0041   -8.1643   -0.0854 C.1     1  LIG1       -0.0491
     45 C          -0.9078   -7.6735   -0.0781 C.1     1  LIG1       -0.1124
     46 H           0.0688   -7.2363   -0.0716 H       1  LIG1        0.1232
     47 C          -6.7908  -10.5270   -0.1200 C.3     1  LIG1       -0.0383
     48 H          -6.6865  -11.4662    0.3819 H       1  LIG1        0.0278
     49 H          -7.0973  -10.6952   -1.1313 H       1  LIG1        0.0278
     50 H          -7.5267   -9.9341    0.3819 H       1  LIG1        0.0278
@<TRIPOS>BOND
     1    49    47    1
     2    34    32    1
     3    31    29    1
     4    30    29    1
     5    12    10    1
     6    11    10    1
     7    20    18    1
     8    19    18    1
     9    43    40    1
    10    47    39    1
    11    47    50    1
    12    47    48    1
    13    40    39   ar
    14    40    41   ar
    15    39    38   ar
    16    41    36   ar
    17    38    42    1
    18    38    37   ar
    19    36    44    1
    20    36    37   ar
    21    44    45    3
    22    37    26    1
    23    45    46    1
    24    32    25    1
    25    32    35    1
    26    32    33    1
    27    26    25   ar
    28    26    27   ar
    29    25    24   ar
    30    27    22   ar
    31    24    28    1
    32    24    23   ar
    33    22    29    1
    34    22    23   ar
    35    23    16    1
    36    17    16   ar
    37    17    13   ar
    38    16    15   ar
    39     2     9    1
    40     2     1   ar
    41     2     3   ar
    42     6     5    1
    43     9     8    3
    44     4    13    1
    45     4     5   ar
    46     4     3   ar
    47    13    14   ar
    48     5     1   ar
    49     1     7    1
    50     3    10    1
    51    15    21    1
    52    15    14   ar
    53    14    18    1
