@<TRIPOS>MOLECULE
mol_data/noopt/geoms/mol2/13dh6ie-13al-4fd.out
 51 54 0 0 0
SMALL
GASTEIGER

@<TRIPOS>ATOM
      1 C           1.1215   -0.3259    0.0002 C.ar    1  LIG1        0.0215
      2 C           0.7176    0.9721   -0.0005 C.ar    1  LIG1        0.0902
      3 C          -0.7144    0.9744    0.0003 C.ar    1  LIG1        0.0678
      4 C          -1.1226   -0.3223   -0.0003 C.ar    1  LIG1        0.0705
      5 N          -0.0018   -1.1217    0.0001 N.ar    1  LIG1       -0.3579
      6 H          -0.0034   -2.1157   -0.0003 H       1  LIG1        0.1654
      7 H           2.3167   -0.8373    0.0007 H       1  LIG1        0.0820
      8 N           2.1747    2.9375   -0.0001 N.1     1  LIG1       -0.1908
      9 C           1.4918    2.0164   -0.0003 C.1     1  LIG1        0.1025
     10 N          -1.4853    2.0212    0.0010 N.pl3   1  LIG1       -0.3553
     11 H          -1.0256    2.7740   -0.4702 H       1  LIG1        0.1424
     12 H          -2.3405    1.8056   -0.4703 H       1  LIG1        0.1424
     13 C          -2.5002   -2.2250   -0.0210 C.ar    1  LIG1        0.0482
     14 C          -2.3194   -0.8299   -0.0001 C.ar    1  LIG1        0.0223
     15 C          -3.4501   -0.0114    0.0210 C.ar    1  LIG1       -0.0333
     16 C          -4.7120   -0.6083    0.0204 C.ar    1  LIG1        0.0527
     17 C          -4.7903   -2.0130   -0.0016 C.ar    1  LIG1        0.1028
     18 N          -3.7099   -2.8177   -0.0220 N.ar    1  LIG1       -0.2485
     19 H          -3.3484    1.0830    0.0367 H       1  LIG1        0.0637
     20 C          -1.4780   -3.0285   -0.0410 C.3     1  LIG1       -0.0217
     21 H          -0.6516   -2.5669    0.4579 H       1  LIG1        0.0293
     22 H          -1.2098   -3.2393   -1.0552 H       1  LIG1        0.0293
     23 H          -1.7315   -3.9405    0.4578 H       1  LIG1        0.0293
     24 C          -5.7953    0.1100    0.0393 C.1     1  LIG1       -0.0675
     25 C          -6.7963    0.7737    0.0569 C.1     1  LIG1       -0.1138
     26 H          -7.6880    1.3650    0.0725 H       1  LIG1        0.1232
     27 C          -5.9424   -2.6153   -0.0030 C.ar    1  LIG1        0.0702
     28 C          -7.2032   -2.1072   -0.0044 C.ar    1  LIG1        0.0076
     29 C          -8.1107   -3.2150   -0.0045 C.ar    1  LIG1        0.1460
     30 C          -7.3644   -4.3513   -0.0050 C.ar    1  LIG1        0.0927
     31 N          -6.0364   -3.9887   -0.0037 N.ar    1  LIG1       -0.3499
     32 H          -5.2674   -4.6186   -0.0038 H       1  LIG1        0.1661
     33 H          -7.5225   -0.8470   -0.0040 H       1  LIG1        0.0676
     34 O          -9.4091   -3.1501   -0.0046 O.3     1  LIG1       -0.4930
     35 C          -9.8185   -1.7799   -0.0047 C.3     1  LIG1        0.0789
     36 H         -10.8872   -1.7269   -0.0050 H       1  LIG1        0.0660
     37 H          -9.4375   -1.2937    0.8691 H       1  LIG1        0.0660
     38 H          -9.4371   -1.2937   -0.8782 H       1  LIG1        0.0660
     39 C          -9.0983   -5.9317   -0.0049 C.ar    1  LIG1        0.1261
     40 C          -9.4406   -7.2977   -0.0039 C.ar    1  LIG1       -0.0183
     41 C          -7.7282   -5.5993   -0.0055 C.ar    1  LIG1        0.0445
     42 C          -8.4636   -8.2907   -0.0040 C.ar    1  LIG1       -0.0409
     43 H         -10.4921   -7.5763   -0.0033 H       1  LIG1        0.0655
     44 C          -6.7524   -6.5902   -0.0056 C.ar    1  LIG1       -0.0316
     45 C          -7.1125   -7.9418   -0.0049 C.ar    1  LIG1        0.0526
     46 H          -5.7025   -6.3084   -0.0059 H       1  LIG1        0.0638
     47 H          -8.8152   -9.5422   -0.0031 H       1  LIG1        0.0631
     48 O         -10.0547   -5.0510   -0.0051 O.3     1  LIG1       -0.5061
     49 H         -10.9034   -5.4997   -0.0051 H       1  LIG1        0.2922
     50 N          -5.3875   -9.6768   -0.0048 N.1     1  LIG1       -0.1909
     51 C          -6.1959   -8.8637   -0.0049 C.1     1  LIG1        0.0992
@<TRIPOS>BOND
     1    22    20    1
     2    38    35    1
     3    12    10    1
     4    11    10    1
     5    20    13    1
     6    20    23    1
     7    20    21    1
     8    18    13   ar
     9    18    17   ar
    10    13    14   ar
    11    46    44    1
    12    44    41   ar
    13    44    45   ar
    14    41    30    1
    15    41    39   ar
    16    49    48    1
    17    48    39    1
    18    30    29   ar
    19    30    31   ar
    20    36    35    1
    21    39    40   ar
    22    45    51    1
    23    45    42   ar
    24    51    50    3
    25    35    34    1
    26    35    37    1
    27    34    29    1
    28    29    28   ar
    29    28    33    1
    30    28    27   ar
    31    42    40   ar
    32    42    47    1
    33    40    43    1
    34    32    31    1
    35    31    27   ar
    36    27    17    1
    37    17    16   ar
    38     2     9    1
    39     2     1   ar
    40     2     3   ar
    41     4    14    1
    42     4     5   ar
    43     4     3   ar
    44     6     5    1
    45     9     8    3
    46    14    15   ar
    47     5     1   ar
    48     1     7    1
    49     3    10    1
    50    16    15   ar
    51    16    24    1
    52    15    19    1
    53    24    25    3
    54    25    26    1
