@<TRIPOS>MOLECULE
mol_data/noopt/geoms/mol2/13di13ae12il6hi-.out
 52 55 0 0 0
SMALL
GASTEIGER

@<TRIPOS>ATOM
      1 C           1.1215   -0.3259    0.0002 C.ar    1  LIG1        0.0199
      2 C           0.7176    0.9721   -0.0005 C.ar    1  LIG1        0.0725
      3 C          -0.7144    0.9744    0.0003 C.ar    1  LIG1       -0.0064
      4 C          -1.1226   -0.3223   -0.0003 C.ar    1  LIG1        0.0671
      5 N          -0.0018   -1.1217    0.0001 N.ar    1  LIG1       -0.3581
      6 H          -0.0034   -2.1157   -0.0003 H       1  LIG1        0.1654
      7 H           2.3167   -0.8373    0.0007 H       1  LIG1        0.0820
      8 N           2.1747    2.9375   -0.0001 N.1     1  LIG1       -0.1908
      9 C           1.4918    2.0164   -0.0003 C.1     1  LIG1        0.1009
     10 C          -1.4855    2.0214    0.0010 C.3     1  LIG1       -0.0364
     11 H          -2.4003    1.7904    0.5056 H       1  LIG1        0.0279
     12 H          -1.6974    2.3090   -1.0077 H       1  LIG1        0.0279
     13 H          -0.9933    2.8265    0.5056 H       1  LIG1        0.0279
     14 C          -2.3194   -0.8299   -0.0001 C.ar    1  LIG1        0.0649
     15 C          -3.5352   -0.2220    0.0163 C.ar    1  LIG1       -0.0188
     16 C          -4.5290   -1.2531    0.0088 C.ar    1  LIG1        0.0536
     17 C          -3.8768   -2.4456   -0.0136 C.ar    1  LIG1        0.0985
     18 N          -2.5238   -2.1911   -0.0187 N.ar    1  LIG1       -0.3496
     19 H          -1.8082   -2.8808   -0.0339 H       1  LIG1        0.1661
     20 H          -3.7519    1.0596    0.0366 H       1  LIG1        0.0652
     21 C          -5.8179   -1.0839    0.0207 C.1     1  LIG1       -0.0674
     22 C          -7.0088   -0.9275    0.0317 C.1     1  LIG1       -0.1138
     23 H          -8.0697   -0.7883    0.0414 H       1  LIG1        0.1232
     24 C          -4.3399   -3.6602   -0.0280 C.ar    1  LIG1        0.1595
     25 C          -5.5942   -4.2343   -0.0388 C.ar    1  LIG1        0.0391
     26 C          -5.3939   -5.6684   -0.0529 C.ar    1  LIG1        0.1693
     27 C          -4.0298   -5.8756   -0.0497 C.ar    1  LIG1        0.1807
     28 O          -3.3585   -4.6525   -0.0346 O.2     1  LIG1       -0.4491
     29 C          -6.7458   -3.6306   -0.0370 C.3     1  LIG1       -0.0325
     30 H          -7.4668   -4.2390    0.4679 H       1  LIG1        0.0280
     31 H          -7.0630   -3.4644   -1.0454 H       1  LIG1        0.0280
     32 H          -6.6554   -2.6915    0.4678 H       1  LIG1        0.0280
     33 O          -6.3353   -6.5649   -0.0658 O.3     1  LIG1       -0.4910
     34 C          -7.6105   -5.9177   -0.0707 C.3     1  LIG1        0.0790
     35 H          -8.3851   -6.6558   -0.0815 H       1  LIG1        0.0660
     36 H          -7.7068   -5.3126    0.8066 H       1  LIG1        0.0660
     37 H          -7.6940   -5.3004   -0.9406 H       1  LIG1        0.0660
     38 C          -1.8532   -6.7586   -0.0826 C.ar    1  LIG1        0.1270
     39 C          -3.2510   -6.9164   -0.0574 C.ar    1  LIG1        0.0606
     40 C          -3.7756   -8.2101   -0.0407 C.ar    1  LIG1       -0.0433
     41 C          -2.8945   -9.2927   -0.0498 C.ar    1  LIG1       -0.0315
     42 C          -1.5119   -9.0331   -0.0755 C.ar    1  LIG1        0.0326
     43 N          -0.9886   -7.7916   -0.0917 N.ar    1  LIG1       -0.2397
     44 H          -4.8626   -8.3728   -0.0218 H       1  LIG1        0.0629
     45 H          -0.6518  -10.0078   -0.0848 H       1  LIG1        0.0833
     46 N          -1.3173   -5.5742   -0.0988 N.pl3   1  LIG1       -0.3426
     47 H          -0.4385   -5.6125   -0.5743 H       1  LIG1        0.1437
     48 H          -1.9262   -4.9394   -0.5744 H       1  LIG1        0.1437
     49 C          -3.3333  -10.5167   -0.0351 C.3     1  LIG1       -0.0383
     50 H          -2.6293  -11.1419    0.4733 H       1  LIG1        0.0278
     51 H          -3.4574  -10.8632   -1.0399 H       1  LIG1        0.0278
     52 H          -4.2741  -10.5522    0.4732 H       1  LIG1        0.0278
@<TRIPOS>BOND
     1    31    29    1
     2    51    49    1
     3    12    10    1
     4    37    34    1
     5    48    46    1
     6    47    46    1
     7    46    38    1
     8    43    38   ar
     9    43    42   ar
    10    45    42    1
    11    38    39   ar
    12    35    34    1
    13    42    41   ar
    14    34    33    1
    15    34    36    1
    16    33    26    1
    17    39    27    1
    18    39    40   ar
    19    26    27   ar
    20    26    25   ar
    21    41    40   ar
    22    41    49    1
    23    27    28   ar
    24    40    44    1
    25    25    29    1
    26    25    24   ar
    27    29    32    1
    28    29    30    1
    29    49    52    1
    30    49    50    1
    31    28    24   ar
    32    19    18    1
    33    24    17    1
    34    18    17   ar
    35    18    14   ar
    36    17    16   ar
    37     2     9    1
    38     2     1   ar
    39     2     3   ar
    40     9     8    3
    41     6     5    1
    42     4    14    1
    43     4     5   ar
    44     4     3   ar
    45    14    15   ar
    46     5     1   ar
    47     1     7    1
    48     3    10    1
    49    10    13    1
    50    10    11    1
    51    16    15   ar
    52    16    21    1
    53    15    20    1
    54    21    22    3
    55    22    23    1
