@<TRIPOS>MOLECULE
mol_data/noopt/geoms/mol2/13di12la(140)6hh(50)6fh(150).out
 50 53 0 0 0
SMALL
GASTEIGER

@<TRIPOS>ATOM
      1 C           1.1215   -0.3259    0.0002 C.ar    1  LIG1        0.0200
      2 C           0.7176    0.9721   -0.0005 C.ar    1  LIG1        0.0726
      3 C          -0.7144    0.9744    0.0003 C.ar    1  LIG1       -0.0047
      4 C          -1.1226   -0.3223   -0.0003 C.ar    1  LIG1        0.0900
      5 N          -0.0018   -1.1217    0.0001 N.ar    1  LIG1       -0.3568
      6 H          -0.0034   -2.1157   -0.0003 H       1  LIG1        0.1655
      7 H           2.3167   -0.8373    0.0007 H       1  LIG1        0.0820
      8 N           2.1747    2.9375   -0.0001 N.1     1  LIG1       -0.1908
      9 C           1.4918    2.0164   -0.0003 C.1     1  LIG1        0.1009
     10 C          -1.4855    2.0214    0.0010 C.3     1  LIG1       -0.0364
     11 H          -2.4003    1.7904    0.5056 H       1  LIG1        0.0279
     12 H          -1.6974    2.3090   -1.0077 H       1  LIG1        0.0279
     13 H          -0.9933    2.8265    0.5056 H       1  LIG1        0.0279
     14 C          -2.3194   -0.8299   -0.0001 C.ar    1  LIG1        0.1934
     15 C          -2.9203   -1.9315    0.5731 C.ar    1  LIG1        0.1677
     16 C          -4.3079   -1.9090    0.1598 C.ar    1  LIG1        0.0268
     17 C          -4.4631   -0.7947   -0.6388 C.ar    1  LIG1        0.1427
     18 O          -3.2509   -0.1129   -0.7523 O.2     1  LIG1       -0.4494
     19 O          -2.3724   -2.8290    1.3375 O.3     1  LIG1       -0.4912
     20 C          -3.3218   -3.8609    1.6181 C.3     1  LIG1        0.0790
     21 H          -2.8705   -4.5994    2.2472 H       1  LIG1        0.0660
     22 H          -4.1704   -3.4393    2.1153 H       1  LIG1        0.0660
     23 H          -3.6351   -4.3161    0.7019 H       1  LIG1        0.0660
     24 H          -5.2116   -2.7827    0.4918 H       1  LIG1        0.0692
     25 C          -5.9576   -0.8624   -2.4499 C.ar    1  LIG1        0.1277
     26 C          -5.4487   -0.2512   -1.2893 C.ar    1  LIG1        0.0586
     27 C          -6.0257    0.9445   -0.8578 C.ar    1  LIG1       -0.0250
     28 C          -7.0819    1.4849   -1.5934 C.ar    1  LIG1        0.0519
     29 C          -7.5207    0.7996   -2.7411 C.ar    1  LIG1        0.0988
     30 N          -6.9757   -0.3550   -3.1716 N.ar    1  LIG1       -0.2297
     31 H          -5.6542    1.4515    0.0440 H       1  LIG1        0.0645
     32 N          -5.4536   -1.9765   -2.8911 N.pl3   1  LIG1       -0.3426
     33 H          -6.1342   -2.4529   -3.4476 H       1  LIG1        0.1437
     34 H          -4.6464   -1.7799   -3.4477 H       1  LIG1        0.1437
     35 N          -7.6525    2.5960   -1.2331 N.pl3   1  LIG1       -0.3563
     36 H          -7.1322    3.3702   -1.5937 H       1  LIG1        0.1424
     37 H          -8.5848    2.6241   -1.5937 H       1  LIG1        0.1424
     38 C          -8.2845    2.3236   -4.3573 C.ar    1  LIG1        0.2219
     39 C          -8.5006    1.2628   -3.4588 C.ar    1  LIG1        0.0653
     40 C          -9.7850    0.7245   -3.3593 C.ar    1  LIG1       -0.0252
     41 C         -10.8011    1.2593   -4.1531 C.ar    1  LIG1        0.0438
     42 C         -10.4865    2.3204   -5.0217 C.ar    1  LIG1        0.0520
     43 N          -9.2531    2.8516   -5.1306 N.ar    1  LIG1       -0.2191
     44 H          -9.9922   -0.1043   -2.6676 H       1  LIG1        0.0645
     45 H         -11.3983    2.8517   -5.7809 H       1  LIG1        0.0849
     46 O          -7.1063    2.8578   -4.4855 O.3     1  LIG1       -0.4919
     47 H          -7.1895    3.8136   -4.5170 H       1  LIG1        0.2937
     48 N         -12.0134    0.7932   -4.0970 N.pl3   1  LIG1       -0.3568
     49 H         -12.6361    1.4286   -4.5536 H       1  LIG1        0.1424
     50 H         -12.0502   -0.0956   -4.5537 H       1  LIG1        0.1424
@<TRIPOS>BOND
     1    45    42    1
     2    43    42   ar
     3    43    38   ar
     4    42    41   ar
     5    50    48    1
     6    49    48    1
     7    47    46    1
     8    46    38    1
     9    38    39   ar
    10    41    48    1
    11    41    40   ar
    12    39    40   ar
    13    39    29    1
    14    34    32    1
    15    33    32    1
    16    40    44    1
    17    30    29   ar
    18    30    25   ar
    19    32    25    1
    20    29    28   ar
    21    25    26   ar
    22    37    35    1
    23    36    35    1
    24    28    35    1
    25    28    27   ar
    26    26    27   ar
    27    26    17    1
    28    12    10    1
    29    27    31    1
    30    18    17   ar
    31    18    14   ar
    32    17    16   ar
    33     2     9    1
    34     2     1   ar
    35     2     3   ar
    36     4    14    1
    37     4     5   ar
    38     4     3   ar
    39     9     8    3
    40     6     5    1
    41    14    15   ar
    42     5     1   ar
    43     1     7    1
    44     3    10    1
    45    10    13    1
    46    10    11    1
    47    16    24    1
    48    16    15   ar
    49    15    19    1
    50    23    20    1
    51    19    20    1
    52    20    22    1
    53    20    21    1
