@<TRIPOS>MOLECULE
mol_data/noopt/geoms/mol2/13di4ed4ii-12dh12hf-12if12af-4ie-.out
 97 102 0 0 0
SMALL
GASTEIGER

@<TRIPOS>ATOM
      1 C           1.1215   -0.3259    0.0002 C.ar    1  LIG1        0.0199
      2 C           0.7176    0.9721   -0.0005 C.ar    1  LIG1        0.0725
      3 C          -0.7144    0.9744    0.0003 C.ar    1  LIG1       -0.0078
      4 C          -1.1226   -0.3223   -0.0003 C.ar    1  LIG1        0.0518
      5 N          -0.0018   -1.1217    0.0001 N.ar    1  LIG1       -0.3592
      6 H          -0.0034   -2.1157   -0.0003 H       1  LIG1        0.1654
      7 H           2.3167   -0.8373    0.0007 H       1  LIG1        0.0820
      8 N           2.1747    2.9375   -0.0001 N.1     1  LIG1       -0.1908
      9 C           1.4918    2.0164   -0.0003 C.1     1  LIG1        0.1009
     10 C          -1.4855    2.0214    0.0010 C.3     1  LIG1       -0.0365
     11 H          -2.4003    1.7904    0.5056 H       1  LIG1        0.0279
     12 H          -1.6974    2.3090   -1.0077 H       1  LIG1        0.0279
     13 H          -0.9933    2.8265    0.5056 H       1  LIG1        0.0279
     14 C          -3.4434    0.0212    0.0008 C.ar    1  LIG1        0.0341
     15 C          -4.7180   -0.5776    0.0025 C.ar    1  LIG1       -0.0419
     16 C          -2.3194   -0.8299   -0.0001 C.ar    1  LIG1        0.0140
     17 C          -4.8692   -1.9625    0.0027 C.ar    1  LIG1       -0.0380
     18 H          -5.5988    0.0606    0.0034 H       1  LIG1        0.0633
     19 C          -2.4697   -2.2124    0.0001 C.ar    1  LIG1       -0.0512
     20 C          -3.7444   -2.7884    0.0015 C.ar    1  LIG1       -0.0573
     21 H          -1.5874   -2.8474   -0.0005 H       1  LIG1        0.0625
     22 C          -3.3661    1.3189    0.0004 C.1     1  LIG1       -0.0690
     23 C          -3.2947    2.5180   -0.0000 C.1     1  LIG1       -0.1139
     24 H          -3.2312    3.5861   -0.0004 H       1  LIG1        0.1232
     25 N          -3.9973   -5.2218    0.0022 N.3     1  LIG1       -0.2116
     26 C          -3.8788   -4.0814    0.0018 C.3     1  LIG1        0.0230
     27 C          -7.1930   -1.6416    0.0271 C.3     1  LIG1        0.0058
     28 C          -8.4618   -2.2528    0.0293 C.2     1  LIG1       -0.0691
     29 C          -6.0609   -2.4816    0.0042 C.3     1  LIG1        0.0209
     30 C          -8.5996   -3.6389    0.0090 C.2     1  LIG1        0.0002
     31 H          -9.3487   -1.6233    0.0470 H       1  LIG1        0.0582
     32 C          -6.1980   -3.8654   -0.0160 C.3     1  LIG1       -0.0004
     33 C          -7.4670   -4.4537   -0.0139 C.3     1  LIG1        0.0132
     34 H          -5.3097   -4.4917   -0.0334 H       1  LIG1        0.0309
     35 C          -7.1283   -0.3431    0.0465 C.3     1  LIG1       -0.0544
     36 H          -7.9834    0.0492    0.5561 H       1  LIG1        0.0239
     37 H          -7.1098    0.0281   -0.9570 H       1  LIG1        0.0239
     38 H          -6.2383   -0.0379    0.5561 H       1  LIG1        0.0239
     39 C          -7.5890   -5.7481   -0.0327 C.3     1  LIG1       -0.0540
     40 H          -6.7533   -6.1924    0.4665 H       1  LIG1        0.0239
     41 H          -7.6210   -6.0886   -1.0467 H       1  LIG1        0.0239
     42 H          -8.4929   -6.0285    0.4664 H       1  LIG1        0.0239
     43 C          -9.7863   -4.1696    0.0116 C.ar    1  LIG1        0.1513
     44 C         -11.0789   -3.6880    0.0284 C.ar    1  LIG1        0.1184
     45 C         -11.9521   -4.8432    0.0202 C.ar    1  LIG1        0.0924
     46 C         -11.1348   -5.9546   -0.0011 C.ar    1  LIG1        0.1943
     47 O          -9.7950   -5.5651   -0.0069 O.2     1  LIG1       -0.4487
     48 N         -11.8064   -1.3524    0.0651 N.1     1  LIG1       -0.1907
     49 C         -11.4654   -2.4470    0.0479 C.1     1  LIG1        0.1048
     50 N         -13.2517   -4.8107    0.0311 N.pl3   1  LIG1       -0.3539
     51 H         -13.5684   -3.9860   -0.4375 H       1  LIG1        0.1425
     52 H         -13.6093   -5.6185   -0.4375 H       1  LIG1        0.1425
     53 C         -11.3209   -7.2411   -0.0165 C.ar    1  LIG1        0.1968
     54 C         -12.4191   -8.0759   -0.0134 C.ar    1  LIG1        0.1170
     55 C         -11.9099   -9.4313   -0.0391 C.ar    1  LIG1        0.1877
     56 C         -10.5337   -9.3347   -0.0563 C.ar    1  LIG1        0.2141
     57 O         -10.1463   -7.9943   -0.0430 O.2     1  LIG1       -0.4428
     58 N         -13.6746   -7.7391    0.0083 N.pl3   1  LIG1       -0.3521
     59 H         -13.7925   -6.8621   -0.4575 H       1  LIG1        0.1425
     60 H         -14.2156   -8.4393   -0.4575 H       1  LIG1        0.1425
     61 O         -12.6324  -10.5121   -0.0444 O.3     1  LIG1       -0.5019
     62 H         -12.0581  -11.2813   -0.0458 H       1  LIG1        0.2924
     63 C          -9.5461  -10.1797   -0.0814 C.ar    1  LIG1        0.1810
     64 C          -9.4278  -11.5541   -0.0855 C.ar    1  LIG1        0.0407
     65 C          -8.0103  -11.8482   -0.1206 C.ar    1  LIG1        0.1694
     66 C          -7.3563  -10.6335   -0.1357 C.ar    1  LIG1        0.2122
     67 O          -8.2818   -9.5896   -0.1121 O.2     1  LIG1       -0.4444
     68 C         -10.3837  -12.4353   -0.0627 C.3     1  LIG1       -0.0325
     69 H         -10.0472  -13.3134    0.4479 H       1  LIG1        0.0280
     70 H         -10.6588  -12.6891   -1.0652 H       1  LIG1        0.0280
     71 H         -11.2315  -12.0286    0.4478 H       1  LIG1        0.0280
     72 O          -7.4832  -13.0365   -0.1347 O.3     1  LIG1       -0.5029
     73 H          -6.5261  -12.9625   -0.1381 H       1  LIG1        0.2923
     74 C          -6.1143  -10.2505   -0.1659 C.ar    1  LIG1        0.1779
     75 C          -4.8895  -10.8851   -0.1739 C.ar    1  LIG1        0.0296
     76 C          -3.8834   -9.8444   -0.2141 C.ar    1  LIG1        0.1633
     77 C          -4.5605   -8.6423   -0.2280 C.ar    1  LIG1        0.1770
     78 O          -5.9373   -8.8666   -0.1989 O.2     1  LIG1       -0.4478
     79 H          -4.6556  -12.1637   -0.1505 H       1  LIG1        0.0693
     80 O          -2.5974  -10.0341   -0.2327 O.3     1  LIG1       -0.5032
     81 H          -2.1484   -9.1856   -0.2373 H       1  LIG1        0.2923
     82 C          -2.8569   -7.0296   -0.2566 C.2     1  LIG1       -0.0420
     83 C          -2.5406   -5.6577   -0.2917 C.2     1  LIG1       -0.0563
     84 C          -4.2205   -7.3881   -0.2609 C.2     1  LIG1        0.0216
     85 C          -3.5363   -4.6841   -0.3300 C.3     1  LIG1        0.0873
     86 H          -1.4947   -5.3590   -0.2889 H       1  LIG1        0.0594
     87 C          -5.2148   -6.4165   -0.2991 C.2     1  LIG1       -0.0472
     88 C          -4.8804   -5.0588   -0.3340 C.3     1  LIG1        0.1071
     89 H          -6.2591   -6.7184   -0.3016 H       1  LIG1        0.0599
     90 H          -3.2084   -3.4265   -0.3618 H       1  LIG1        0.0621
     91 C          -1.8839   -7.8914   -0.2220 C.3     1  LIG1       -0.0393
     92 H          -1.0478   -7.4650    0.2918 H       1  LIG1        0.0278
     93 H          -1.5968   -8.1456   -1.2210 H       1  LIG1        0.0278
     94 H          -2.2064   -8.7729    0.2917 H       1  LIG1        0.0278
     95 C          -5.8143   -4.1551   -0.3695 C.3     2  LIG2       -0.0309
     96 C          -6.6771   -3.3200   -0.4023 C.3     1  LIG1       -0.0178
     97 H          -7.4457   -2.5762   -0.4315 H       1  LIG1        0.0319
@<TRIPOS>BOND
     1    93    91    1
     2    70    68    1
     3    41    39    1
     4    12    10    1
     5    37    35    1
     6    60    58    1
     7    59    58    1
     8    52    50    1
     9    51    50    1
    10    97    96    1
    11    96    32    1
    12    96    29    1
    13    95    34    1
    14    90    20    1
    15    88    87    1
    16    88    25    1
    17    85    83    1
    18    85    26    1
    19    85    25    1
    20    89    87    1
    21    87    84    2
    22    83    86    1
    23    83    82    2
    24    84    82    1
    25    84    77    1
    26    82    91    1
    27    81    80    1
    28    80    76    1
    29    77    76   ar
    30    77    78   ar
    31    91    94    1
    32    91    92    1
    33    76    75   ar
    34    78    74   ar
    35    75    74   ar
    36    75    79    1
    37    74    66    1
    38    73    72    1
    39    66    65   ar
    40    66    67   ar
    41    72    65    1
    42    65    64   ar
    43    67    63   ar
    44    64    63   ar
    45    64    68    1
    46    63    56    1
    47    68    71    1
    48    68    69    1
    49    56    57   ar
    50    56    55   ar
    51    62    61    1
    52    61    55    1
    53    57    53   ar
    54    55    54   ar
    55    39    33    1
    56    39    42    1
    57    39    40    1
    58    53    54   ar
    59    53    46    1
    60    32    33    1
    61    33    30    1
    62    54    58    1
    63    47    46   ar
    64    47    43   ar
    65    46    45   ar
    66     2     9    1
    67     2     1   ar
    68     2     3   ar
    69    21    19    1
    70    24    23    1
    71     9     8    3
    72     6     5    1
    73     4    16    1
    74     4     5   ar
    75     4     3   ar
    76    16    19   ar
    77    16    14   ar
    78    23    22    3
    79     5     1   ar
    80    19    20   ar
    81     1     7    1
    82     3    10    1
    83    22    14    1
    84    14    15   ar
    85    10    13    1
    86    10    11    1
    87    20    17   ar
    88    15    17   ar
    89    15    18    1
    90    17    29    1
    91    30    43    1
    92    30    28    2
    93    43    44   ar
    94    45    44   ar
    95    45    50    1
    96    27    28    1
    97    27    35    1
    98    44    49    1
    99    28    31    1
   100    35    38    1
   101    35    36    1
   102    49    48    3
