@<TRIPOS>MOLECULE
mol_data/noopt/geoms/mol2/13di13di-.out
 26 27 0 0 0
SMALL
GASTEIGER

@<TRIPOS>ATOM
      1 C           1.1215   -0.3259    0.0002 C.ar    1  LIG1        0.0199
      2 C           0.7176    0.9721   -0.0005 C.ar    1  LIG1        0.0725
      3 C          -0.7144    0.9744    0.0003 C.ar    1  LIG1       -0.0064
      4 C          -1.1226   -0.3223   -0.0003 C.ar    1  LIG1        0.0684
      5 N          -0.0018   -1.1217    0.0001 N.ar    1  LIG1       -0.3581
      6 H          -0.0034   -2.1157   -0.0003 H       1  LIG1        0.1654
      7 H           2.3167   -0.8373    0.0007 H       1  LIG1        0.0820
      8 N           2.1747    2.9375   -0.0001 N.1     1  LIG1       -0.1908
      9 C           1.4918    2.0164   -0.0003 C.1     1  LIG1        0.1009
     10 C          -1.4855    2.0214    0.0010 C.3     1  LIG1       -0.0364
     11 H          -2.4003    1.7904    0.5056 H       1  LIG1        0.0279
     12 H          -1.6974    2.3090   -1.0077 H       1  LIG1        0.0279
     13 H          -0.9933    2.8265    0.5056 H       1  LIG1        0.0279
     14 C          -2.3194   -0.8299   -0.0001 C.ar    1  LIG1        0.0810
     15 C          -2.7274   -2.1266   -0.0005 C.ar    1  LIG1        0.0813
     16 C          -4.1594   -2.1244    0.0011 C.ar    1  LIG1       -0.0151
     17 C          -4.5635   -0.8264    0.0006 C.ar    1  LIG1        0.0064
     18 N          -3.4402   -0.0305    0.0003 N.ar    1  LIG1       -0.3582
     19 H          -3.4386    0.9635   -0.0001 H       1  LIG1        0.1654
     20 H          -5.7587   -0.3150    0.0014 H       1  LIG1        0.0810
     21 N          -1.2766   -4.0966   -0.0007 N.1     1  LIG1       -0.1908
     22 C          -1.9565   -3.1734   -0.0006 C.1     1  LIG1        0.1016
     23 C          -4.9338   -3.1690    0.0023 C.3     1  LIG1       -0.0371
     24 H          -4.4441   -3.9754    0.5071 H       1  LIG1        0.0278
     25 H          -5.1467   -3.4563   -1.0062 H       1  LIG1        0.0278
     26 H          -5.8478   -2.9348    0.5070 H       1  LIG1        0.0278
@<TRIPOS>BOND
     1    12    10    1
     2    25    23    1
     3    21    22    3
     4    22    15    1
     5     2     9    1
     6     2     1   ar
     7     2     3   ar
     8    15    14   ar
     9    15    16   ar
    10     4    14    1
    11     4     5   ar
    12     4     3   ar
    13     6     5    1
    14     9     8    3
    15    19    18    1
    16    14    18   ar
    17     5     1   ar
    18     1     7    1
    19     3    10    1
    20    18    17   ar
    21    17    16   ar
    22    17    20    1
    23    10    13    1
    24    10    11    1
    25    16    23    1
    26    23    26    1
    27    23    24    1
