@<TRIPOS>MOLECULE
mol_data/noopt/geoms/mol2/13di13di-4di13di.out
 52 55 0 0 0
SMALL
GASTEIGER

@<TRIPOS>ATOM
      1 C           1.1215   -0.3259    0.0002 C.ar    1  LIG1        0.0199
      2 C           0.7176    0.9721   -0.0005 C.ar    1  LIG1        0.0725
      3 C          -0.7144    0.9744    0.0003 C.ar    1  LIG1       -0.0064
      4 C          -1.1226   -0.3223   -0.0003 C.ar    1  LIG1        0.0684
      5 N          -0.0018   -1.1217    0.0001 N.ar    1  LIG1       -0.3581
      6 H          -0.0034   -2.1157   -0.0003 H       1  LIG1        0.1654
      7 H           2.3167   -0.8373    0.0007 H       1  LIG1        0.0820
      8 N           2.1747    2.9375   -0.0001 N.1     1  LIG1       -0.1908
      9 C           1.4918    2.0164   -0.0003 C.1     1  LIG1        0.1009
     10 C          -1.4855    2.0214    0.0010 C.3     1  LIG1       -0.0364
     11 H          -2.4003    1.7904    0.5056 H       1  LIG1        0.0279
     12 H          -1.6974    2.3090   -1.0077 H       1  LIG1        0.0279
     13 H          -0.9933    2.8265    0.5056 H       1  LIG1        0.0279
     14 C          -2.3194   -0.8299   -0.0001 C.ar    1  LIG1        0.0814
     15 C          -2.7274   -2.1266   -0.0005 C.ar    1  LIG1        0.0819
     16 C          -4.1594   -2.1244    0.0011 C.ar    1  LIG1       -0.0071
     17 C          -4.5635   -0.8264    0.0006 C.ar    1  LIG1        0.0524
     18 N          -3.4402   -0.0305    0.0003 N.ar    1  LIG1       -0.3517
     19 H          -3.4386    0.9635   -0.0001 H       1  LIG1        0.1660
     20 N          -1.2766   -4.0966   -0.0007 N.1     1  LIG1       -0.1908
     21 C          -1.9565   -3.1734   -0.0006 C.1     1  LIG1        0.1016
     22 C          -4.9338   -3.1690    0.0023 C.3     1  LIG1       -0.0365
     23 H          -4.4441   -3.9754    0.5071 H       1  LIG1        0.0279
     24 H          -5.1467   -3.4563   -1.0062 H       1  LIG1        0.0279
     25 H          -5.8478   -2.9348    0.5070 H       1  LIG1        0.0279
     26 C          -5.9236    1.0852    0.0026 C.ar    1  LIG1        0.0615
     27 C          -7.2385    1.5895    0.0050 C.ar    1  LIG1       -0.0343
     28 C          -5.7587   -0.3150    0.0014 C.ar    1  LIG1        0.0162
     29 C          -8.3419    0.7391    0.0056 C.ar    1  LIG1        0.0037
     30 H          -7.3885    2.6668    0.0062 H       1  LIG1        0.0637
     31 C          -6.8598   -1.1644    0.0020 C.ar    1  LIG1       -0.0478
     32 C          -8.1582   -0.6442    0.0040 C.ar    1  LIG1       -0.0406
     33 H          -6.7065   -2.2406    0.0011 H       1  LIG1        0.0627
     34 N          -4.0617    2.6724    0.0014 N.1     1  LIG1       -0.1908
     35 C          -4.9343    1.9285    0.0020 C.1     1  LIG1        0.0998
     36 C          -9.1840   -1.4433    0.0046 C.3     1  LIG1       -0.0391
     37 H          -8.9283   -2.3515    0.5093 H       1  LIG1        0.0278
     38 H          -9.4658   -1.6628   -1.0040 H       1  LIG1        0.0278
     39 H         -10.0021   -0.9730    0.5092 H       1  LIG1        0.0278
     40 C          -9.5420    1.2389    0.0077 C.ar    1  LIG1        0.0646
     41 C          -9.9585    2.5329    0.0088 C.ar    1  LIG1        0.0798
     42 C         -11.3904    2.5213    0.0122 C.ar    1  LIG1       -0.0152
     43 C         -11.7860    1.2207    0.0113 C.ar    1  LIG1        0.0063
     44 N         -10.6575    0.4322    0.0090 N.ar    1  LIG1       -0.3594
     45 H         -10.6495   -0.5617    0.0079 H       1  LIG1        0.1654
     46 H         -12.9778    0.7015    0.0134 H       1  LIG1        0.0810
     47 N          -8.5205    4.5124    0.0080 N.1     1  LIG1       -0.1908
     48 C          -9.1944    3.5847    0.0084 C.1     1  LIG1        0.1015
     49 C         -12.1716    3.5608    0.0152 C.3     1  LIG1       -0.0371
     50 H         -13.0836    3.3202    0.5204 H       1  LIG1        0.0278
     51 H         -12.3873    3.8478   -0.9929 H       1  LIG1        0.0278
     52 H         -11.6867    4.3699    0.5203 H       1  LIG1        0.0278
@<TRIPOS>BOND
     1    12    10    1
     2    24    22    1
     3    38    36    1
     4    51    49    1
     5    20    21    3
     6    21    15    1
     7     2     9    1
     8     2     1   ar
     9     2     3   ar
    10    15    14   ar
    11    15    16   ar
    12     4    14    1
    13     4     5   ar
    14     4     3   ar
    15     6     5    1
    16     9     8    3
    17    19    18    1
    18    14    18   ar
    19     5     1   ar
    20     1     7    1
    21     3    10    1
    22    18    17   ar
    23    17    16   ar
    24    17    28    1
    25    10    13    1
    26    10    11    1
    27    16    22    1
    28    33    31    1
    29    34    35    3
    30    28    31   ar
    31    28    26   ar
    32    35    26    1
    33    31    32   ar
    34    22    25    1
    35    22    23    1
    36    26    27   ar
    37    32    36    1
    38    32    29   ar
    39    36    39    1
    40    36    37    1
    41    27    29   ar
    42    27    30    1
    43    29    40    1
    44    40    41   ar
    45    40    44   ar
    46    45    44    1
    47    47    48    3
    48    48    41    1
    49    41    42   ar
    50    44    43   ar
    51    43    42   ar
    52    43    46    1
    53    42    49    1
    54    49    52    1
    55    49    50    1
