@<TRIPOS>MOLECULE
mol_data/noopt/geoms/mol2/13di13di-13di-13di.out
 50 53 0 0 0
SMALL
GASTEIGER

@<TRIPOS>ATOM
      1 C           1.1215   -0.3259    0.0002 C.ar    1  LIG1        0.0199
      2 C           0.7176    0.9721   -0.0005 C.ar    1  LIG1        0.0725
      3 C          -0.7144    0.9744    0.0003 C.ar    1  LIG1       -0.0064
      4 C          -1.1226   -0.3223   -0.0003 C.ar    1  LIG1        0.0684
      5 N          -0.0018   -1.1217    0.0001 N.ar    1  LIG1       -0.3581
      6 H          -0.0034   -2.1157   -0.0003 H       1  LIG1        0.1654
      7 H           2.3167   -0.8373    0.0007 H       1  LIG1        0.0820
      8 N           2.1747    2.9375   -0.0001 N.1     1  LIG1       -0.1908
      9 C           1.4918    2.0164   -0.0003 C.1     1  LIG1        0.1009
     10 C          -1.4855    2.0214    0.0010 C.3     1  LIG1       -0.0364
     11 H          -2.4003    1.7904    0.5056 H       1  LIG1        0.0279
     12 H          -1.6974    2.3090   -1.0077 H       1  LIG1        0.0279
     13 H          -0.9933    2.8265    0.5056 H       1  LIG1        0.0279
     14 C          -2.3194   -0.8299   -0.0001 C.ar    1  LIG1        0.0815
     15 C          -2.7274   -2.1266   -0.0005 C.ar    1  LIG1        0.0819
     16 C          -4.1594   -2.1244    0.0011 C.ar    1  LIG1       -0.0057
     17 C          -4.5635   -0.8264    0.0006 C.ar    1  LIG1        0.0688
     18 N          -3.4402   -0.0305    0.0003 N.ar    1  LIG1       -0.3506
     19 H          -3.4386    0.9635   -0.0001 H       1  LIG1        0.1660
     20 N          -1.2766   -4.0966   -0.0007 N.1     1  LIG1       -0.1908
     21 C          -1.9565   -3.1734   -0.0006 C.1     1  LIG1        0.1016
     22 C          -4.9338   -3.1690    0.0023 C.3     1  LIG1       -0.0364
     23 H          -4.4441   -3.9754    0.5071 H       1  LIG1        0.0279
     24 H          -5.1467   -3.4563   -1.0062 H       1  LIG1        0.0279
     25 H          -5.8478   -2.9348    0.5070 H       1  LIG1        0.0279
     26 C          -5.7587   -0.3150    0.0014 C.ar    1  LIG1        0.0815
     27 C          -6.9765   -0.9191    0.0015 C.ar    1  LIG1        0.0819
     28 C          -7.9670    0.1151    0.0037 C.ar    1  LIG1       -0.0057
     29 C          -7.3109    1.3057    0.0031 C.ar    1  LIG1        0.0688
     30 N          -5.9587    1.0470    0.0022 N.ar    1  LIG1       -0.3506
     31 H          -5.2408    1.7345    0.0016 H       1  LIG1        0.1660
     32 N          -7.3920   -3.3302    0.0010 N.1     1  LIG1       -0.1908
     33 C          -7.1973   -2.2002    0.0012 C.1     1  LIG1        0.1016
     34 C          -9.2567   -0.0501    0.0054 C.3     1  LIG1       -0.0364
     35 H          -9.4988   -0.9619    0.5103 H       1  LIG1        0.0279
     36 H          -9.6119   -0.0957   -1.0029 H       1  LIG1        0.0279
     37 H          -9.7208    0.7712    0.5103 H       1  LIG1        0.0279
     38 C          -7.7701    2.5219    0.0044 C.ar    1  LIG1        0.0810
     39 C          -7.1139    3.7125    0.0049 C.ar    1  LIG1        0.0813
     40 C          -8.1043    4.7467    0.0074 C.ar    1  LIG1       -0.0151
     41 C          -9.3222    4.1427    0.0066 C.ar    1  LIG1        0.0064
     42 N          -9.1222    2.7807    0.0052 N.ar    1  LIG1       -0.3582
     43 H          -9.8401    2.0932    0.0043 H       1  LIG1        0.1654
     44 H         -10.5174    4.6541    0.0080 H       1  LIG1        0.0810
     45 N          -4.6871    4.0233    0.0045 N.1     1  LIG1       -0.1908
     46 C          -5.8244    3.8776    0.0047 C.1     1  LIG1        0.1016
     47 C          -7.8835    6.0281    0.0096 C.3     1  LIG1       -0.0371
     48 H          -8.6840    6.5272    0.5146 H       1  LIG1        0.0278
     49 H          -7.8227    6.3813   -0.9986 H       1  LIG1        0.0278
     50 H          -6.9620    6.2303    0.5146 H       1  LIG1        0.0278
@<TRIPOS>BOND
     1    12    10    1
     2    24    22    1
     3    36    34    1
     4    49    47    1
     5    20    21    3
     6    21    15    1
     7     2     9    1
     8     2     1   ar
     9     2     3   ar
    10    15    14   ar
    11    15    16   ar
    12     4    14    1
    13     4     5   ar
    14     4     3   ar
    15     6     5    1
    16     9     8    3
    17    19    18    1
    18    14    18   ar
    19     5     1   ar
    20     1     7    1
    21     3    10    1
    22    18    17   ar
    23    17    16   ar
    24    17    26    1
    25    32    33    3
    26    10    13    1
    27    10    11    1
    28    16    22    1
    29    33    27    1
    30    26    27   ar
    31    26    30   ar
    32    27    28   ar
    33    31    30    1
    34    30    29   ar
    35    22    25    1
    36    22    23    1
    37    29    28   ar
    38    29    38    1
    39    28    34    1
    40    43    42    1
    41    38    39   ar
    42    38    42   ar
    43    45    46    3
    44    46    39    1
    45    39    40   ar
    46    42    41   ar
    47    34    37    1
    48    34    35    1
    49    41    40   ar
    50    41    44    1
    51    40    47    1
    52    47    50    1
    53    47    48    1
