@<TRIPOS>MOLECULE
mol_data/noopt/geoms/mol2/13di13di13di-13di-.out
 50 53 0 0 0
SMALL
GASTEIGER

@<TRIPOS>ATOM
      1 C           1.1215   -0.3259    0.0002 C.ar    1  LIG1        0.0199
      2 C           0.7176    0.9721   -0.0005 C.ar    1  LIG1        0.0725
      3 C          -0.7144    0.9744    0.0003 C.ar    1  LIG1       -0.0064
      4 C          -1.1226   -0.3223   -0.0003 C.ar    1  LIG1        0.0684
      5 N          -0.0018   -1.1217    0.0001 N.ar    1  LIG1       -0.3581
      6 H          -0.0034   -2.1157   -0.0003 H       1  LIG1        0.1654
      7 H           2.3167   -0.8373    0.0007 H       1  LIG1        0.0820
      8 N           2.1747    2.9375   -0.0001 N.1     1  LIG1       -0.1908
      9 C           1.4918    2.0164   -0.0003 C.1     1  LIG1        0.1009
     10 C          -1.4855    2.0214    0.0010 C.3     1  LIG1       -0.0364
     11 H          -2.4003    1.7904    0.5056 H       1  LIG1        0.0279
     12 H          -1.6974    2.3090   -1.0077 H       1  LIG1        0.0279
     13 H          -0.9933    2.8265    0.5056 H       1  LIG1        0.0279
     14 C          -2.3194   -0.8299   -0.0001 C.ar    1  LIG1        0.0815
     15 C          -3.5353   -0.2219   -0.0003 C.ar    1  LIG1        0.0819
     16 C          -4.5290   -1.2530    0.0012 C.ar    1  LIG1       -0.0057
     17 C          -3.8767   -2.4457    0.0005 C.ar    1  LIG1        0.0688
     18 N          -2.5238   -2.1913    0.0002 N.ar    1  LIG1       -0.3506
     19 H          -1.8081   -2.8811   -0.0004 H       1  LIG1        0.1660
     20 N          -3.9431    2.1904   -0.0003 N.1     1  LIG1       -0.1908
     21 C          -3.7520    1.0599   -0.0003 C.1     1  LIG1        0.1016
     22 C          -5.8182   -1.0837    0.0025 C.3     1  LIG1       -0.0364
     23 H          -6.2852   -1.9035    0.5073 H       1  LIG1        0.0279
     24 H          -6.1729   -1.0372   -1.0060 H       1  LIG1        0.0279
     25 H          -6.0576   -0.1710    0.5072 H       1  LIG1        0.0279
     26 C          -4.3398   -3.6604    0.0012 C.ar    1  LIG1        0.0815
     27 C          -3.6874   -4.8530    0.0012 C.ar    1  LIG1        0.0819
     28 C          -4.6811   -5.8841    0.0032 C.ar    1  LIG1       -0.0057
     29 C          -5.8970   -5.2763    0.0027 C.ar    1  LIG1        0.0688
     30 N          -5.6927   -3.9149    0.0019 N.ar    1  LIG1       -0.3506
     31 H          -6.4084   -3.2251    0.0013 H       1  LIG1        0.1660
     32 N          -1.2616   -5.1716    0.0007 N.1     1  LIG1       -0.1908
     33 C          -2.3984   -5.0223    0.0009 C.1     1  LIG1        0.1016
     34 C          -4.4643   -7.1663    0.0049 C.3     1  LIG1       -0.0364
     35 H          -3.5435   -7.3717    0.5097 H       1  LIG1        0.0279
     36 H          -4.4045   -7.5192   -1.0035 H       1  LIG1        0.0279
     37 H          -5.2664   -7.6629    0.5097 H       1  LIG1        0.0279
     38 C          -7.0939   -5.7839    0.0038 C.ar    1  LIG1        0.0810
     39 C          -7.5019   -7.0806    0.0041 C.ar    1  LIG1        0.0813
     40 C          -8.9339   -7.0784    0.0067 C.ar    1  LIG1       -0.0151
     41 C          -9.3380   -5.7804    0.0061 C.ar    1  LIG1        0.0064
     42 N          -8.2146   -4.9846    0.0048 N.ar    1  LIG1       -0.3582
     43 H          -8.2131   -3.9906    0.0040 H       1  LIG1        0.1654
     44 H         -10.5331   -5.2690    0.0075 H       1  LIG1        0.0810
     45 N          -6.0510   -9.0506    0.0035 N.1     1  LIG1       -0.1908
     46 C          -6.7310   -8.1274    0.0038 C.1     1  LIG1        0.1016
     47 C          -9.7082   -8.1230    0.0087 C.3     1  LIG1       -0.0371
     48 H          -9.2184   -8.9291    0.5137 H       1  LIG1        0.0278
     49 H          -9.9216   -8.4108   -0.9996 H       1  LIG1        0.0278
     50 H         -10.6220   -7.8885    0.5136 H       1  LIG1        0.0278
@<TRIPOS>BOND
     1    12    10    1
     2    24    22    1
     3    36    34    1
     4    49    47    1
     5     2     9    1
     6     2     1   ar
     7     2     3   ar
     8    19    18    1
     9    15    21    1
    10    15    14   ar
    11    15    16   ar
    12     4    14    1
    13     4     5   ar
    14     4     3   ar
    15     6     5    1
    16     9     8    3
    17    21    20    3
    18    14    18   ar
    19     5     1   ar
    20    18    17   ar
    21     1     7    1
    22     3    10    1
    23    17    16   ar
    24    17    26    1
    25    32    33    3
    26    33    27    1
    27    10    13    1
    28    10    11    1
    29    27    26   ar
    30    27    28   ar
    31    16    22    1
    32    26    30   ar
    33    31    30    1
    34    30    29   ar
    35    22    25    1
    36    22    23    1
    37    29    28   ar
    38    29    38    1
    39    28    34    1
    40    45    46    3
    41    46    39    1
    42    38    39   ar
    43    38    42   ar
    44    43    42    1
    45    39    40   ar
    46    42    41   ar
    47    34    37    1
    48    34    35    1
    49    41    40   ar
    50    41    44    1
    51    40    47    1
    52    47    50    1
    53    47    48    1
