@<TRIPOS>MOLECULE
mol_data/noopt/geoms/mol2/13dl13da-4df6eh13df12fl-13el-13de-.out
 96 103 0 0 0
SMALL
GASTEIGER

@<TRIPOS>ATOM
      1 C           1.1215   -0.3259    0.0002 C.ar    1  LIG1        0.0233
      2 C           0.7176    0.9721   -0.0005 C.ar    1  LIG1        0.1112
      3 C          -0.7144    0.9744    0.0003 C.ar    1  LIG1        0.1640
      4 C          -1.1226   -0.3223   -0.0003 C.ar    1  LIG1        0.1077
      5 N          -0.0018   -1.1217    0.0001 N.ar    1  LIG1       -0.3553
      6 H          -0.0034   -2.1157   -0.0003 H       1  LIG1        0.1655
      7 H           2.3167   -0.8373    0.0007 H       1  LIG1        0.0821
      8 N           2.1747    2.9375   -0.0001 N.1     1  LIG1       -0.1907
      9 C           1.4918    2.0164   -0.0003 C.1     1  LIG1        0.1044
     10 O          -1.4853    2.0212    0.0010 O.3     1  LIG1       -0.4916
     11 C          -0.6829    3.2049    0.0012 C.3     1  LIG1        0.0789
     12 H          -1.3178    4.0662    0.0016 H       1  LIG1        0.0660
     13 H          -0.0650    3.2168    0.8747 H       1  LIG1        0.0660
     14 H          -0.0654    3.2174   -0.8726 H       1  LIG1        0.0660
     15 C          -2.3194   -0.8299   -0.0001 C.ar    1  LIG1        0.0845
     16 C          -3.5353   -0.2219   -0.0003 C.ar    1  LIG1        0.0791
     17 C          -4.5290   -1.2530    0.0012 C.ar    1  LIG1       -0.0183
     18 C          -3.8767   -2.4457    0.0005 C.ar    1  LIG1        0.0496
     19 N          -2.5238   -2.1913    0.0002 N.ar    1  LIG1       -0.3519
     20 H          -1.8081   -2.8811   -0.0004 H       1  LIG1        0.1660
     21 N          -3.9431    2.1904   -0.0003 N.1     1  LIG1       -0.1908
     22 C          -3.7520    1.0599   -0.0003 C.1     1  LIG1        0.1014
     23 H          -5.8179   -1.0837    0.0025 H       1  LIG1        0.0652
     24 C          -5.7323   -3.8813    0.0023 C.ar    1  LIG1        0.0617
     25 C          -6.1835   -5.2154    0.0046 C.ar    1  LIG1       -0.0324
     26 C          -4.3398   -3.6604    0.0012 C.ar    1  LIG1        0.0192
     27 C          -5.2895   -6.2838    0.0051 C.ar    1  LIG1        0.0275
     28 H          -7.2539   -5.4084    0.0057 H       1  LIG1        0.0638
     29 C          -3.4469   -4.7266    0.0017 C.ar    1  LIG1       -0.0092
     30 C          -3.9147   -6.0449    0.0035 C.ar    1  LIG1        0.1253
     31 H          -2.3778   -4.5303    0.0009 H       1  LIG1        0.0661
     32 N          -7.3928   -2.0845    0.0011 N.1     1  LIG1       -0.1908
     33 C          -6.6146   -2.9266    0.0017 C.1     1  LIG1        0.0998
     34 O          -3.0753   -7.0376    0.0041 O.3     1  LIG1       -0.5061
     35 H          -2.1774   -6.6980    0.0043 H       1  LIG1        0.2922
     36 C          -4.8492   -8.5913    0.0083 C.ar    1  LIG1        0.1218
     37 C          -5.7408   -7.5029    0.0071 C.ar    1  LIG1        0.0213
     38 C          -7.1122   -7.7645    0.0083 C.ar    1  LIG1       -0.0284
     39 C          -7.5430   -9.0923    0.0106 C.ar    1  LIG1        0.0530
     40 C          -6.5742  -10.1126    0.0115 C.ar    1  LIG1        0.1104
     41 N          -5.2474   -9.8782    0.0105 N.ar    1  LIG1       -0.2344
     42 H          -7.8390   -6.9399    0.0064 H       1  LIG1        0.0643
     43 C          -3.5636   -8.3985    0.0073 C.1     1  LIG1       -0.0492
     44 C          -2.3757   -8.2203    0.0064 C.1     1  LIG1       -0.1124
     45 H          -1.3175   -8.0616    0.0056 H       1  LIG1        0.1232
     46 N          -8.8089   -9.3881    0.0116 N.pl3   1  LIG1       -0.3563
     47 H          -9.3196   -8.6689   -0.4595 H       1  LIG1        0.1424
     48 H          -8.9481  -10.2591   -0.4595 H       1  LIG1        0.1424
     49 C          -6.9258  -11.3642    0.0136 C.ar    1  LIG1        0.0885
     50 C          -8.1603  -11.9334    0.0148 C.ar    1  LIG1        0.1206
     51 C          -7.9763  -13.3536    0.0183 C.ar    1  LIG1        0.1633
     52 C          -6.6376  -13.5897    0.0174 C.ar    1  LIG1        0.1297
     53 N          -5.9907  -12.3744    0.0150 N.ar    1  LIG1       -0.3464
     54 H          -5.0049  -12.2467    0.0138 H       1  LIG1        0.1662
     55 N         -10.2985  -10.7444    0.0140 N.1     1  LIG1       -0.1907
     56 C          -9.2964  -11.3016    0.0143 C.1     1  LIG1        0.1050
     57 O          -8.9140  -14.2541    0.0213 O.3     1  LIG1       -0.5034
     58 H          -8.5182  -15.1287    0.0220 H       1  LIG1        0.2923
     59 C          -5.9786  -14.7103    0.0194 C.ar    1  LIG1        0.2005
     60 C          -6.3141  -16.0484    0.0210 C.ar    1  LIG1        0.2077
     61 C          -5.0693  -16.7881    0.0230 C.ar    1  LIG1        0.2099
     62 C          -4.0552  -15.8526    0.0224 C.ar    1  LIG1        0.1983
     63 O          -4.5907  -14.5642    0.0202 O.2     1  LIG1       -0.4441
     64 O          -7.5049  -16.5701    0.0209 O.3     1  LIG1       -0.5008
     65 H          -7.4352  -17.5276    0.0208 H       1  LIG1        0.2924
     66 O          -4.9577  -18.0834    0.0249 O.3     1  LIG1       -0.4884
     67 C          -6.2597  -18.6746    0.0255 C.3     1  LIG1        0.0791
     68 H          -6.1674  -19.7407    0.0268 H       1  LIG1        0.0660
     69 H          -6.7931  -18.3617    0.8987 H       1  LIG1        0.0660
     70 H          -6.7929  -18.3640   -0.8486 H       1  LIG1        0.0660
     71 C          -2.7559  -15.8950    0.0235 C.ar    1  LIG1        0.1056
     72 C          -1.9081  -16.9575    0.0405 C.ar    1  LIG1        0.0953
     73 C          -0.5731  -16.4396    0.0340 C.ar    1  LIG1        0.1627
     74 C          -0.6637  -15.0834    0.0115 C.ar    1  LIG1        0.1082
     75 N          -1.9983  -14.7457    0.0055 N.ar    1  LIG1       -0.3466
     76 H          -2.3578  -13.8191   -0.0101 H       1  LIG1        0.1662
     77 C          -2.2502  -18.2115    0.0607 C.1     1  LIG1       -0.0637
     78 C          -2.5663  -19.3703    0.0793 C.1     1  LIG1       -0.1137
     79 H          -2.8478  -20.4024    0.0959 H       1  LIG1        0.1232
     80 O           0.5254  -17.1349    0.0466 O.3     1  LIG1       -0.4917
     81 C           0.2077  -18.5291    0.0512 C.3     1  LIG1        0.0789
     82 H           1.1121  -19.1010    0.0614 H       1  LIG1        0.0660
     83 H          -0.3704  -18.7604    0.9214 H       1  LIG1        0.0660
     84 H          -0.3562  -18.7694   -0.8258 H       1  LIG1        0.0660
     85 C           0.2670  -14.1759   -0.0023 C.ar    1  LIG1        0.0853
     86 C           1.6206  -14.3009   -0.0120 C.ar    1  LIG1        0.0938
     87 C           2.1721  -12.9794   -0.0246 C.ar    1  LIG1        0.0600
     88 C           1.1312  -12.1050   -0.0238 C.ar    1  LIG1        0.0190
     89 N          -0.0370  -12.8333   -0.0097 N.ar    1  LIG1       -0.3573
     90 H          -0.9543  -12.4504   -0.0061 H       1  LIG1        0.1655
     91 H           1.1215  -10.8050   -0.0328 H       1  LIG1        0.0820
     92 N           2.8767  -16.4004   -0.0058 N.1     1  LIG1       -0.1908
     93 C           2.2880  -15.4165   -0.0087 C.1     1  LIG1        0.1026
     94 C           3.4345  -12.6691   -0.0353 C.1     1  LIG1       -0.0669
     95 C           4.6009  -12.3824   -0.0452 C.1     1  LIG1       -0.1138
     96 H           5.6399  -12.1270   -0.0540 H       1  LIG1        0.1232
@<TRIPOS>BOND
     1    14    11    1
     2    70    67    1
     3    84    81    1
     4    48    46    1
     5    47    46    1
     6    96    95    1
     7    95    94    3
     8    94    87    1
     9    91    88    1
    10    87    88   ar
    11    87    86   ar
    12    88    89   ar
    13    86    93    1
    14    86    85   ar
    15    76    75    1
    16    89    90    1
    17    89    85   ar
    18    93    92    3
    19    85    74    1
    20     2     9    1
    21     2     1   ar
    22     2     3   ar
    23    20    19    1
    24    16    22    1
    25    16    15   ar
    26    16    17   ar
    27     9     8    3
    28     6     5    1
    29     4    15    1
    30     4     5   ar
    31     4     3   ar
    32    22    21    3
    33    15    19   ar
    34     5     1   ar
    35    19    18   ar
    36     1     7    1
    37     3    10    1
    38    18    17   ar
    39    18    26    1
    40    31    29    1
    41    10    11    1
    42    32    33    3
    43    17    23    1
    44    11    12    1
    45    11    13    1
    46    26    29   ar
    47    26    24   ar
    48    29    30   ar
    49    33    24    1
    50    24    25   ar
    51    30    34    1
    52    30    27   ar
    53    34    35    1
    54    25    27   ar
    55    25    28    1
    56    27    37    1
    57    75    74   ar
    58    75    71   ar
    59    45    44    1
    60    44    43    3
    61    42    38    1
    62    37    36   ar
    63    37    38   ar
    64    43    36    1
    65    36    41   ar
    66    38    39   ar
    67    41    40   ar
    68    39    40   ar
    69    39    46    1
    70    74    73   ar
    71    40    49    1
    72    49    50   ar
    73    49    53   ar
    74    54    53    1
    75    55    56    3
    76    56    50    1
    77    50    51   ar
    78    53    52   ar
    79    52    51   ar
    80    52    59    1
    81    51    57    1
    82    59    63   ar
    83    59    60   ar
    84    63    62   ar
    85    65    64    1
    86    64    60    1
    87    60    61   ar
    88    57    58    1
    89    62    61   ar
    90    62    71    1
    91    61    66    1
    92    71    72   ar
    93    66    67    1
    94    67    68    1
    95    67    69    1
    96    73    72   ar
    97    73    80    1
    98    72    77    1
    99    80    81    1
   100    81    82    1
   101    81    83    1
   102    77    78    3
   103    78    79    1
