@<TRIPOS>MOLECULE
mol_data/noopt/geoms/mol2/13dl6ld13ah13ii.out
 53 56 0 0 0
SMALL
GASTEIGER

@<TRIPOS>ATOM
      1 C           1.1215   -0.3259    0.0002 C.ar    1  LIG1        0.0233
      2 C           0.7176    0.9721   -0.0005 C.ar    1  LIG1        0.1112
      3 C          -0.7144    0.9744    0.0003 C.ar    1  LIG1        0.1627
      4 C          -1.1226   -0.3223   -0.0003 C.ar    1  LIG1        0.0952
      5 N          -0.0018   -1.1217    0.0001 N.ar    1  LIG1       -0.3564
      6 H          -0.0034   -2.1157   -0.0003 H       1  LIG1        0.1655
      7 H           2.3167   -0.8373    0.0007 H       1  LIG1        0.0821
      8 N           2.1747    2.9375   -0.0001 N.1     1  LIG1       -0.1907
      9 C           1.4918    2.0164   -0.0003 C.1     1  LIG1        0.1044
     10 O          -1.4853    2.0212    0.0010 O.3     1  LIG1       -0.4917
     11 C          -0.6829    3.2049    0.0012 C.3     1  LIG1        0.0789
     12 H          -1.3178    4.0662    0.0016 H       1  LIG1        0.0660
     13 H          -0.0650    3.2168    0.8747 H       1  LIG1        0.0660
     14 H          -0.0654    3.2174   -0.8726 H       1  LIG1        0.0660
     15 C          -2.5001   -2.2252    0.0002 C.ar    1  LIG1        0.2246
     16 C          -2.3194   -0.8299   -0.0001 C.ar    1  LIG1        0.0646
     17 C          -3.4502   -0.0112    0.0002 C.ar    1  LIG1       -0.0279
     18 C          -4.7120   -0.6082    0.0005 C.ar    1  LIG1        0.0800
     19 C          -4.7903   -2.0130    0.0006 C.ar    1  LIG1        0.1083
     20 N          -3.7098   -2.8179    0.0005 N.ar    1  LIG1       -0.2096
     21 H          -3.3485    1.0833   -0.0010 H       1  LIG1        0.0639
     22 O          -1.4781   -3.0287    0.0000 O.3     1  LIG1       -0.4792
     23 C          -1.9361   -4.3834   -0.0001 C.3     1  LIG1        0.0804
     24 H          -1.0946   -5.0443   -0.0004 H       1  LIG1        0.0660
     25 H          -2.5280   -4.5599    0.8737 H       1  LIG1        0.0660
     26 H          -2.5283   -4.5596   -0.8736 H       1  LIG1        0.0660
     27 N          -6.7510    0.7440    0.0007 N.1     1  LIG1       -0.1908
     28 C          -5.7954    0.1103    0.0006 C.1     1  LIG1        0.1014
     29 C          -5.9423   -2.6153    0.0010 C.ar    1  LIG1        0.0686
     30 C          -7.2032   -2.1074    0.0175 C.ar    1  LIG1       -0.0135
     31 C          -8.1106   -3.2151    0.0102 C.ar    1  LIG1        0.0523
     32 C          -7.3645   -4.3512   -0.0122 C.ar    1  LIG1        0.0845
     33 N          -6.0364   -3.9886   -0.0175 N.ar    1  LIG1       -0.3503
     34 H          -5.2676   -4.6184   -0.0328 H       1  LIG1        0.1660
     35 H          -7.5223   -0.8473    0.0378 H       1  LIG1        0.0658
     36 N          -9.4090   -3.1503    0.0222 N.pl3   1  LIG1       -0.3563
     37 H          -9.7055   -2.3179   -0.4461 H       1  LIG1        0.1424
     38 H          -9.7870   -3.9489   -0.4461 H       1  LIG1        0.1424
     39 C          -7.7283   -5.5992   -0.0265 C.ar    1  LIG1        0.0679
     40 C          -8.9682   -6.1564   -0.0365 C.ar    1  LIG1       -0.0208
     41 C          -8.7981   -7.5782   -0.0496 C.ar    1  LIG1       -0.0296
     42 C          -7.4617   -7.8273   -0.0488 C.ar    1  LIG1        0.0054
     43 N          -6.8030   -6.6185   -0.0342 N.ar    1  LIG1       -0.3590
     44 H          -5.8161   -6.5005   -0.0305 H       1  LIG1        0.1654
     45 H          -6.8137   -8.9543   -0.0581 H       1  LIG1        0.0810
     46 C         -10.0984   -5.5133   -0.0331 C.3     1  LIG1       -0.0374
     47 H         -10.8393   -6.0970    0.4722 H       1  LIG1        0.0278
     48 H         -10.4107   -5.3357   -1.0410 H       1  LIG1        0.0278
     49 H          -9.9752   -4.5782    0.4722 H       1  LIG1        0.0278
     50 C          -9.7447   -8.4696   -0.0607 C.3     1  LIG1       -0.0380
     51 H          -9.4085   -9.3531    0.4406 H       1  LIG1        0.0278
     52 H          -9.9980   -8.7083   -1.0726 H       1  LIG1        0.0278
     53 H         -10.6064   -8.0810    0.4405 H       1  LIG1        0.0278
@<TRIPOS>BOND
     1    52    50    1
     2    48    46    1
     3    26    23    1
     4    14    11    1
     5    38    36    1
     6    37    36    1
     7    50    41    1
     8    50    53    1
     9    50    51    1
    10    45    42    1
    11    41    42   ar
    12    41    40   ar
    13    42    43   ar
    14    40    46    1
    15    40    39   ar
    16    43    44    1
    17    43    39   ar
    18    46    49    1
    19    46    47    1
    20    34    33    1
    21    39    32    1
    22    33    32   ar
    23    33    29   ar
    24    32    31   ar
    25    21    17    1
    26     2     9    1
    27     2     1   ar
    28     2     3   ar
    29    24    23    1
    30     9     8    3
    31     6     5    1
    32     4    16    1
    33     4     5   ar
    34     4     3   ar
    35    16    15   ar
    36    16    17   ar
    37    23    22    1
    38    23    25    1
    39    22    15    1
    40     5     1   ar
    41    15    20   ar
    42    17    18   ar
    43     1     7    1
    44     3    10    1
    45    20    19   ar
    46    18    19   ar
    47    18    28    1
    48    19    29    1
    49    28    27    3
    50    29    30   ar
    51    10    11    1
    52    11    12    1
    53    11    13    1
    54    31    30   ar
    55    31    36    1
    56    30    35    1
