@<TRIPOS>MOLECULE
mol_data/noopt/geoms/mol2/13dl4ae6id-13il.out
 55 58 0 0 0
SMALL
GASTEIGER

@<TRIPOS>ATOM
      1 C           1.1215   -0.3259    0.0002 C.ar    1  LIG1        0.0233
      2 C           0.7176    0.9721   -0.0005 C.ar    1  LIG1        0.1112
      3 C          -0.7144    0.9744    0.0003 C.ar    1  LIG1        0.1625
      4 C          -1.1226   -0.3223   -0.0003 C.ar    1  LIG1        0.0900
      5 N          -0.0018   -1.1217    0.0001 N.ar    1  LIG1       -0.3565
      6 H          -0.0034   -2.1157   -0.0003 H       1  LIG1        0.1655
      7 H           2.3167   -0.8373    0.0007 H       1  LIG1        0.0821
      8 N           2.1747    2.9375   -0.0001 N.1     1  LIG1       -0.1907
      9 C           1.4918    2.0164   -0.0003 C.1     1  LIG1        0.1044
     10 O          -1.4853    2.0212    0.0010 O.3     1  LIG1       -0.4917
     11 C          -0.6829    3.2049    0.0012 C.3     1  LIG1        0.0789
     12 H          -1.3178    4.0662    0.0016 H       1  LIG1        0.0660
     13 H          -0.0650    3.2168    0.8747 H       1  LIG1        0.0660
     14 H          -0.0654    3.2174   -0.8726 H       1  LIG1        0.0660
     15 C          -3.4434    0.0212    0.0008 C.ar    1  LIG1       -0.0519
     16 C          -4.7180   -0.5776    0.0025 C.ar    1  LIG1       -0.0531
     17 C          -2.3194   -0.8299   -0.0001 C.ar    1  LIG1        0.0022
     18 C          -4.8692   -1.9625    0.0027 C.ar    1  LIG1       -0.0126
     19 H          -5.5988    0.0606    0.0034 H       1  LIG1        0.0624
     20 C          -2.4697   -2.2124    0.0001 C.ar    1  LIG1       -0.0485
     21 C          -3.7444   -2.7884    0.0015 C.ar    1  LIG1       -0.0350
     22 H          -1.5874   -2.8474   -0.0005 H       1  LIG1        0.0627
     23 H          -3.3661    1.3189    0.0004 H       1  LIG1        0.0624
     24 C          -3.8788   -4.0814    0.0018 C.3     1  LIG1       -0.0048
     25 C          -4.0030   -5.2762    0.0022 C.3     1  LIG1       -0.0263
     26 H          -4.1136   -6.3404    0.0025 H       1  LIG1        0.0313
     27 C          -6.2282   -3.8784   -0.0159 C.ar    1  LIG1        0.0502
     28 C          -6.0610   -2.4816    0.0042 C.ar    1  LIG1        0.0050
     29 C          -7.1996   -1.6741    0.0261 C.ar    1  LIG1       -0.0328
     30 C          -8.4556   -2.2833    0.0268 C.ar    1  LIG1        0.0797
     31 C          -8.5203   -3.6886    0.0055 C.ar    1  LIG1        0.1051
     32 N          -7.4322   -4.4829   -0.0156 N.ar    1  LIG1       -0.2482
     33 H          -7.1084   -0.5788    0.0412 H       1  LIG1        0.0638
     34 C          -5.1984   -4.6720   -0.0366 C.3     1  LIG1       -0.0044
     35 H          -4.3763   -4.2026    0.4621 H       1  LIG1        0.0358
     36 H          -4.9285   -4.8799   -1.0510 H       1  LIG1        0.0332
     37 H          -5.4428   -5.5866    0.4621 H       1  LIG1        0.0332
     38 N         -10.5074   -0.9512    0.0639 N.1     1  LIG1       -0.1908
     39 C          -9.5458   -1.5755    0.0465 C.1     1  LIG1        0.1014
     40 C          -9.6664   -4.3021    0.0053 C.ar    1  LIG1        0.0727
     41 C         -10.9321   -3.8064    0.0215 C.ar    1  LIG1        0.0180
     42 C         -11.8288   -4.9228    0.0136 C.ar    1  LIG1        0.1408
     43 C         -11.0717   -6.0517   -0.0087 C.ar    1  LIG1        0.0447
     44 N          -9.7472   -5.6762   -0.0134 N.ar    1  LIG1       -0.3561
     45 H          -8.9723   -6.2985   -0.0286 H       1  LIG1        0.1655
     46 H         -11.4234   -7.3031   -0.0233 H       1  LIG1        0.0844
     47 C         -11.2636   -2.5492    0.0419 C.3     1  LIG1       -0.0342
     48 H         -12.1973   -2.4347    0.5519 H       1  LIG1        0.0279
     49 H         -11.3586   -2.1890   -0.9612 H       1  LIG1        0.0279
     50 H         -10.5077   -1.9893    0.5518 H       1  LIG1        0.0279
     51 O         -13.1278   -4.8706    0.0252 O.3     1  LIG1       -0.4933
     52 C         -13.5505   -3.5045    0.0294 C.3     1  LIG1        0.0789
     53 H         -14.6196   -3.4620    0.0388 H       1  LIG1        0.0660
     54 H         -13.1664   -3.0150    0.9000 H       1  LIG1        0.0660
     55 H         -13.1817   -3.0143   -0.8473 H       1  LIG1        0.0660
@<TRIPOS>BOND
     1    36    34    1
     2    49    47    1
     3    14    11    1
     4    55    52    1
     5    34    27    1
     6    34    37    1
     7    45    44    1
     8    46    43    1
     9    27    32   ar
    10    27    28   ar
    11    32    31   ar
    12    44    43   ar
    13    44    40   ar
    14    43    42   ar
    15     2     9    1
    16     2     1   ar
    17     2     3   ar
    18    22    20    1
    19     9     8    3
    20     6     5    1
    21     4    17    1
    22     4     5   ar
    23     4     3   ar
    24    17    20   ar
    25    17    15   ar
    26     5     1   ar
    27    20    21   ar
    28     1     7    1
    29     3    10    1
    30    23    15    1
    31    15    16   ar
    32    10    11    1
    33    11    12    1
    34    11    13    1
    35    21    24    1
    36    21    18   ar
    37    24    25    1
    38    24    35    1
    39    25    26    1
    40    16    18   ar
    41    16    19    1
    42    18    28    1
    43    28    29   ar
    44    40    31    1
    45    40    41   ar
    46    31    30   ar
    47    42    41   ar
    48    42    51    1
    49    41    47    1
    50    51    52    1
    51    29    30   ar
    52    29    33    1
    53    30    39    1
    54    52    53    1
    55    52    54    1
    56    47    50    1
    57    47    48    1
    58    39    38    3
