@<TRIPOS>MOLECULE
mol_data/noopt/geoms/mol2/13dl13fl-12ia-12hh.out
 49 52 0 0 0
SMALL
GASTEIGER

@<TRIPOS>ATOM
      1 C           1.1215   -0.3259    0.0002 C.ar    1  LIG1        0.0233
      2 C           0.7176    0.9721   -0.0005 C.ar    1  LIG1        0.1112
      3 C          -0.7144    0.9744    0.0003 C.ar    1  LIG1        0.1641
      4 C          -1.1226   -0.3223   -0.0003 C.ar    1  LIG1        0.1101
      5 N          -0.0018   -1.1217    0.0001 N.ar    1  LIG1       -0.3553
      6 H          -0.0034   -2.1157   -0.0003 H       1  LIG1        0.1655
      7 H           2.3167   -0.8373    0.0007 H       1  LIG1        0.0821
      8 N           2.1747    2.9375   -0.0001 N.1     1  LIG1       -0.1907
      9 C           1.4918    2.0164   -0.0003 C.1     1  LIG1        0.1044
     10 O          -1.4853    2.0212    0.0010 O.3     1  LIG1       -0.4916
     11 C          -0.6829    3.2049    0.0012 C.3     1  LIG1        0.0789
     12 H          -1.3178    4.0662    0.0016 H       1  LIG1        0.0660
     13 H          -0.0650    3.2168    0.8747 H       1  LIG1        0.0660
     14 H          -0.0654    3.2174   -0.8726 H       1  LIG1        0.0660
     15 C          -2.3194   -0.8299   -0.0001 C.ar    1  LIG1        0.1128
     16 C          -3.5353   -0.2219   -0.0003 C.ar    1  LIG1        0.1867
     17 C          -4.5290   -1.2530    0.0012 C.ar    1  LIG1        0.1904
     18 C          -3.8767   -2.4457    0.0005 C.ar    1  LIG1        0.1288
     19 N          -2.5238   -2.1913    0.0002 N.ar    1  LIG1       -0.3446
     20 H          -1.8081   -2.8811   -0.0004 H       1  LIG1        0.1663
     21 O          -3.7520    1.0599   -0.0003 O.3     1  LIG1       -0.5019
     22 H          -4.6977    1.2250   -0.0003 H       1  LIG1        0.2924
     23 O          -5.8180   -1.0837    0.0025 O.3     1  LIG1       -0.4894
     24 C          -6.1157    0.3150    0.0029 C.3     1  LIG1        0.0791
     25 H          -7.1766    0.4539    0.0038 H       1  LIG1        0.0660
     26 H          -5.6958    0.7688    0.8763 H       1  LIG1        0.0660
     27 H          -5.6973    0.7690   -0.8710 H       1  LIG1        0.0660
     28 C          -4.3398   -3.6604    0.0012 C.ar    1  LIG1        0.1585
     29 C          -5.5940   -4.2347    0.0165 C.ar    1  LIG1       -0.0024
     30 C          -5.3937   -5.6688    0.0065 C.ar    1  LIG1       -0.0091
     31 C          -4.0297   -5.8758   -0.0144 C.ar    1  LIG1        0.1728
     32 O          -3.3585   -4.6526   -0.0181 O.2     1  LIG1       -0.4498
     33 C          -6.7455   -3.6311    0.0363 C.3     1  LIG1       -0.0360
     34 H          -7.4602   -4.2428    0.5461 H       1  LIG1        0.0279
     35 H          -7.0750   -3.4584   -0.9670 H       1  LIG1        0.0279
     36 H          -6.6489   -2.6952    0.5460 H       1  LIG1        0.0279
     37 H          -6.3350   -6.5654    0.0157 H       1  LIG1        0.0659
     38 C          -3.2510   -6.9166   -0.0308 C.ar    1  LIG1        0.1920
     39 C          -3.4364   -8.2836   -0.0284 C.ar    1  LIG1        0.0950
     40 C          -2.1176   -8.8811   -0.0551 C.ar    1  LIG1        0.0846
     41 C          -1.2134   -7.8391   -0.0722 C.ar    1  LIG1        0.1152
     42 O          -1.8881   -6.6178   -0.0577 O.2     1  LIG1       -0.4560
     43 H           0.0824   -7.7374   -0.0977 H       1  LIG1        0.1049
     44 N          -4.5618   -8.9340   -0.0067 N.pl3   1  LIG1       -0.3535
     45 H          -5.2657   -8.3977   -0.4724 H       1  LIG1        0.1425
     46 H          -4.4488   -9.8116   -0.4724 H       1  LIG1        0.1425
     47 N          -1.8634  -10.1560   -0.0614 N.pl3   1  LIG1       -0.3541
     48 H          -2.5994  -10.6403   -0.5344 H       1  LIG1        0.1425
     49 H          -0.9979  -10.3210   -0.5344 H       1  LIG1        0.1425
@<TRIPOS>BOND
     1    35    33    1
     2    14    11    1
     3    27    24    1
     4    49    47    1
     5    48    47    1
     6    46    44    1
     7    45    44    1
     8    43    41    1
     9    41    42   ar
    10    41    40   ar
    11    47    40    1
    12    42    38   ar
    13    40    39   ar
    14    38    39   ar
    15    38    31    1
    16    39    44    1
    17    32    31   ar
    18    32    28   ar
    19    31    30   ar
    20     2     9    1
    21     2     1   ar
    22     2     3   ar
    23    20    19    1
    24    16    21    1
    25    16    15   ar
    26    16    17   ar
    27     9     8    3
    28     6     5    1
    29     4    15    1
    30     4     5   ar
    31     4     3   ar
    32    21    22    1
    33    15    19   ar
    34     5     1   ar
    35    19    18   ar
    36     1     7    1
    37     3    10    1
    38    18    17   ar
    39    18    28    1
    40    10    11    1
    41    11    12    1
    42    11    13    1
    43    17    23    1
    44    28    29   ar
    45    23    24    1
    46    24    25    1
    47    24    26    1
    48    30    37    1
    49    30    29   ar
    50    29    33    1
    51    33    36    1
    52    33    34    1
