@<TRIPOS>MOLECULE
mol_data/noopt/geoms/mol2/13dl13dl-13dl-13dl.out
 54 56 0 0 0
SMALL
GASTEIGER

@<TRIPOS>ATOM
      1 C           1.1215   -0.3259    0.0002 C.ar    1  LIG1        0.0233
      2 C           0.7176    0.9721   -0.0005 C.ar    1  LIG1        0.1112
      3 C          -0.7144    0.9744    0.0003 C.ar    1  LIG1        0.1640
      4 C          -1.1226   -0.3223   -0.0003 C.ar    1  LIG1        0.1078
      5 N          -0.0018   -1.1217    0.0001 N.ar    1  LIG1       -0.3553
      6 H          -0.0034   -2.1157   -0.0003 H       1  LIG1        0.1655
      7 H           2.3167   -0.8373    0.0007 H       1  LIG1        0.0821
      8 N           2.1747    2.9375   -0.0001 N.1     1  LIG1       -0.1907
      9 C           1.4918    2.0164   -0.0003 C.1     1  LIG1        0.1044
     10 O          -1.4853    2.0212    0.0010 O.3     1  LIG1       -0.4916
     11 C          -0.6829    3.2049    0.0012 C.3     1  LIG1        0.0789
     12 H          -1.3178    4.0662    0.0016 H       1  LIG1        0.0660
     13 H          -0.0650    3.2168    0.8747 H       1  LIG1        0.0660
     14 H          -0.0654    3.2174   -0.8726 H       1  LIG1        0.0660
     15 C          -2.3194   -0.8299   -0.0001 C.ar    1  LIG1        0.0884
     16 C          -2.7274   -2.1266   -0.0005 C.ar    1  LIG1        0.1257
     17 C          -4.1594   -2.1244    0.0011 C.ar    1  LIG1        0.2234
     18 C          -4.5635   -0.8264    0.0006 C.ar    1  LIG1        0.1127
     19 N          -3.4402   -0.0305    0.0003 N.ar    1  LIG1       -0.3476
     20 H          -3.4386    0.9635   -0.0001 H       1  LIG1        0.1661
     21 N          -1.2766   -4.0966   -0.0007 N.1     1  LIG1       -0.1907
     22 C          -1.9565   -3.1734   -0.0006 C.1     1  LIG1        0.1052
     23 O          -4.9337   -3.1687    0.0023 O.3     1  LIG1       -0.2842
     24 C          -6.3008   -2.7494    0.0027 C.3     1  LIG1       -0.0198
     25 H          -6.9376   -3.6092    0.0035 H       1  LIG1        0.0293
     26 H          -6.4935   -2.1620    0.8761 H       1  LIG1        0.0293
     27 H          -6.4943   -2.1631   -0.8712 H       1  LIG1        0.0293
     28 C          -5.7587   -0.3150    0.0014 C.ar    1  LIG1        0.0800
     29 C          -6.9765   -0.9191    0.0015 C.ar    1  LIG1        0.0719
     30 C          -7.9670    0.1151    0.0037 C.ar    1  LIG1        0.2151
     31 C          -7.3109    1.3057    0.0031 C.ar    1  LIG1        0.1147
     32 N          -5.9587    1.0470    0.0022 N.ar    1  LIG1       -0.3481
     33 H          -5.2408    1.7345    0.0016 H       1  LIG1        0.1661
     34 N          -7.3920   -3.3302    0.0010 N.2     1  LIG1       -0.1535
     35 C          -7.1973   -2.2002    0.0012 C.2     1  LIG1        0.0734
     36 O          -9.2565   -0.0501    0.0054 O.3     1  LIG1       -0.2849
     37 C          -9.9012    1.2263    0.0060 C.3     2  LIG2       -0.0776
     38 H         -10.9624    1.0899    0.0073 H       1  LIG1        0.0194
     39 H          -9.6107    1.7723    0.8793 H       1  LIG1        0.0194
     40 H          -9.6128    1.7720   -0.8680 H       1  LIG1        0.0194
     41 C          -7.7701    2.5219    0.0044 C.ar    1  LIG1        0.1119
     42 C          -7.1139    3.7125    0.0049 C.ar    1  LIG1        0.1221
     43 C          -8.1043    4.7467    0.0074 C.ar    1  LIG1        0.1575
     44 C          -9.3222    4.1427    0.0066 C.ar    1  LIG1        0.0713
     45 N          -9.1222    2.7807    0.0052 N.ar    1  LIG1       -0.2483
     46 H          -9.8401    2.0932    0.0043 H       1  LIG1        0.0194
     47 H         -10.5174    4.6541    0.0080 H       1  LIG1        0.0867
     48 N          -4.6871    4.0233    0.0045 N.1     1  LIG1       -0.1907
     49 C          -5.8244    3.8776    0.0047 C.1     1  LIG1        0.1051
     50 O          -7.8835    6.0279    0.0096 O.3     1  LIG1       -0.4922
     51 C          -6.4740    6.2692    0.0103 C.3     1  LIG1        0.0789
     52 H          -6.2927    7.3238    0.0120 H       1  LIG1        0.0660
     53 H          -6.0375    5.8310    0.8835 H       1  LIG1        0.0660
     54 H          -6.0371    5.8336   -0.8638 H       1  LIG1        0.0660
@<TRIPOS>BOND
     1    14    11    1
     2    27    24    1
     3    40    37    1
     4    54    51    1
     5    21    22    3
     6    22    16    1
     7     2     9    1
     8     2     1   ar
     9     2     3   ar
    10    16    15   ar
    11    16    17   ar
    12     4    15    1
    13     4     5   ar
    14     4     3   ar
    15     6     5    1
    16     9     8    3
    17    20    19    1
    18    15    19   ar
    19     5     1   ar
    20     1     7    1
    21     3    10    1
    22    19    18   ar
    23    18    17   ar
    24    18    28    1
    25    34    35    2
    26    10    11    1
    27    17    23    1
    28    11    12    1
    29    11    13    1
    30    35    29    1
    31    35    24    1
    32    28    29   ar
    33    28    32   ar
    34    29    30   ar
    35    33    32    1
    36    32    31   ar
    37    24    25    1
    38    24    26    1
    39    31    30   ar
    40    31    41    1
    41    30    36    1
    42    46    37    1
    43    41    42   ar
    44    41    45   ar
    45    48    49    3
    46    49    42    1
    47    42    43   ar
    48    45    44   ar
    49    37    38    1
    50    37    39    1
    51    44    43   ar
    52    44    47    1
    53    43    50    1
    54    50    51    1
    55    51    52    1
    56    51    53    1
