@<TRIPOS>MOLECULE
mol_data/noopt/geoms/mol2/13dl13dl-13dl.out
 41 42 0 0 0
SMALL
GASTEIGER

@<TRIPOS>ATOM
      1 C           1.1215   -0.3259    0.0002 C.ar    1  LIG1        0.0233
      2 C           0.7176    0.9721   -0.0005 C.ar    1  LIG1        0.1112
      3 C          -0.7144    0.9744    0.0003 C.ar    1  LIG1        0.1640
      4 C          -1.1226   -0.3223   -0.0003 C.ar    1  LIG1        0.1078
      5 N          -0.0018   -1.1217    0.0001 N.ar    1  LIG1       -0.3553
      6 H          -0.0034   -2.1157   -0.0003 H       1  LIG1        0.1655
      7 H           2.3167   -0.8373    0.0007 H       1  LIG1        0.0821
      8 N           2.1747    2.9375   -0.0001 N.1     1  LIG1       -0.1907
      9 C           1.4918    2.0164   -0.0003 C.1     1  LIG1        0.1044
     10 O          -1.4853    2.0212    0.0010 O.3     1  LIG1       -0.4916
     11 C          -0.6829    3.2049    0.0012 C.3     1  LIG1        0.0789
     12 H          -1.3178    4.0662    0.0016 H       1  LIG1        0.0660
     13 H          -0.0650    3.2168    0.8747 H       1  LIG1        0.0660
     14 H          -0.0654    3.2174   -0.8726 H       1  LIG1        0.0660
     15 C          -2.3194   -0.8299   -0.0001 C.ar    1  LIG1        0.0884
     16 C          -2.7274   -2.1266   -0.0005 C.ar    1  LIG1        0.1257
     17 C          -4.1594   -2.1244    0.0011 C.ar    1  LIG1        0.2235
     18 C          -4.5635   -0.8264    0.0006 C.ar    1  LIG1        0.1154
     19 N          -3.4402   -0.0305    0.0003 N.ar    1  LIG1       -0.3476
     20 H          -3.4386    0.9635   -0.0001 H       1  LIG1        0.1661
     21 N          -1.2766   -4.0966   -0.0007 N.1     1  LIG1       -0.1907
     22 C          -1.9565   -3.1734   -0.0006 C.1     1  LIG1        0.1052
     23 O          -4.9337   -3.1687    0.0023 O.3     1  LIG1       -0.2842
     24 C          -6.3008   -2.7494    0.0027 C.3     2  LIG2       -0.0776
     25 H          -6.9376   -3.6092    0.0035 H       1  LIG1        0.0194
     26 H          -6.4935   -2.1620    0.8761 H       1  LIG1        0.0194
     27 H          -6.4943   -2.1631   -0.8712 H       1  LIG1        0.0194
     28 C          -5.7587   -0.3150    0.0014 C.ar    1  LIG1        0.1119
     29 C          -6.1626    0.9830    0.0016 C.ar    1  LIG1        0.1221
     30 C          -7.5946    0.9853    0.0038 C.ar    1  LIG1        0.1575
     31 C          -8.0028   -0.3114    0.0030 C.ar    1  LIG1        0.0713
     32 N          -6.8820   -1.1108    0.0021 N.ar    1  LIG1       -0.2483
     33 H          -6.8836   -2.1048    0.0013 H       1  LIG1        0.0194
     34 H          -9.1996   -0.8190    0.0041 H       1  LIG1        0.0867
     35 N          -4.7055    2.9484    0.0014 N.1     1  LIG1       -0.1907
     36 C          -5.3884    2.0273    0.0015 C.1     1  LIG1        0.1051
     37 O          -8.3655    2.0321    0.0056 O.3     1  LIG1       -0.4922
     38 C          -7.5631    3.2158    0.0062 C.3     1  LIG1        0.0789
     39 H          -8.1980    4.0771    0.0075 H       1  LIG1        0.0660
     40 H          -6.9448    3.2271    0.8794 H       1  LIG1        0.0660
     41 H          -6.9461    3.2289   -0.8679 H       1  LIG1        0.0660
@<TRIPOS>BOND
     1    14    11    1
     2    27    24    1
     3    41    38    1
     4    21    22    3
     5    22    16    1
     6     2     9    1
     7     2     1   ar
     8     2     3   ar
     9    16    15   ar
    10    16    17   ar
    11     6     5    1
    12     9     8    3
    13     4    15    1
    14     4     5   ar
    15     4     3   ar
    16    20    19    1
    17    15    19   ar
    18     5     1   ar
    19     1     7    1
    20     3    10    1
    21    19    18   ar
    22    18    17   ar
    23    18    28    1
    24    10    11    1
    25    17    23    1
    26    11    12    1
    27    11    13    1
    28    33    24    1
    29    35    36    3
    30    28    29   ar
    31    28    32   ar
    32    36    29    1
    33    29    30   ar
    34    32    31   ar
    35    24    25    1
    36    24    26    1
    37    31    30   ar
    38    31    34    1
    39    30    37    1
    40    37    38    1
    41    38    39    1
    42    38    40    1
