@<TRIPOS>MOLECULE
mol_data/noopt/geoms/mol2/13dl13eh12hd4af.out
 48 51 0 0 0
SMALL
GASTEIGER

@<TRIPOS>ATOM
      1 C           1.1215   -0.3259    0.0002 C.ar    1  LIG1        0.0233
      2 C           0.7176    0.9721   -0.0005 C.ar    1  LIG1        0.1112
      3 C          -0.7144    0.9744    0.0003 C.ar    1  LIG1        0.1640
      4 C          -1.1226   -0.3223   -0.0003 C.ar    1  LIG1        0.1077
      5 N          -0.0018   -1.1217    0.0001 N.ar    1  LIG1       -0.3553
      6 H          -0.0034   -2.1157   -0.0003 H       1  LIG1        0.1655
      7 H           2.3167   -0.8373    0.0007 H       1  LIG1        0.0821
      8 N           2.1747    2.9375   -0.0001 N.1     1  LIG1       -0.1907
      9 C           1.4918    2.0164   -0.0003 C.1     1  LIG1        0.1044
     10 O          -1.4853    2.0212    0.0010 O.3     1  LIG1       -0.4916
     11 C          -0.6829    3.2049    0.0012 C.3     1  LIG1        0.0789
     12 H          -1.3178    4.0662    0.0016 H       1  LIG1        0.0660
     13 H          -0.0650    3.2168    0.8747 H       1  LIG1        0.0660
     14 H          -0.0654    3.2174   -0.8726 H       1  LIG1        0.0660
     15 C          -2.3194   -0.8299   -0.0001 C.ar    1  LIG1        0.0844
     16 C          -3.5352   -0.2220    0.0163 C.ar    1  LIG1        0.0728
     17 C          -4.5290   -1.2531    0.0088 C.ar    1  LIG1        0.0696
     18 C          -3.8768   -2.4456   -0.0136 C.ar    1  LIG1        0.1066
     19 N          -2.5238   -2.1911   -0.0187 N.ar    1  LIG1       -0.3480
     20 H          -1.8082   -2.8808   -0.0339 H       1  LIG1        0.1661
     21 C          -3.7519    1.0596    0.0366 C.1     1  LIG1       -0.0656
     22 C          -3.9521    2.2439    0.0554 C.1     1  LIG1       -0.1138
     23 H          -4.1304    3.2988    0.0722 H       1  LIG1        0.1232
     24 N          -5.8179   -1.0839    0.0207 N.pl3   1  LIG1       -0.3553
     25 H          -6.0463   -0.2304   -0.4477 H       1  LIG1        0.1424
     26 H          -6.2589   -1.8494   -0.4477 H       1  LIG1        0.1424
     27 C          -4.3399   -3.6602   -0.0280 C.ar    1  LIG1        0.1754
     28 C          -5.5942   -4.2343   -0.0388 C.ar    1  LIG1        0.0908
     29 C          -5.3939   -5.6684   -0.0529 C.ar    1  LIG1        0.1187
     30 C          -4.0298   -5.8756   -0.0497 C.ar    1  LIG1        0.1550
     31 O          -3.3585   -4.6525   -0.0346 O.2     1  LIG1       -0.4501
     32 N          -6.7456   -3.6307   -0.0370 N.pl3   1  LIG1       -0.3540
     33 H          -6.6622   -2.7525   -0.5080 H       1  LIG1        0.1425
     34 H          -7.4205   -4.1988   -0.5080 H       1  LIG1        0.1425
     35 N          -7.1657   -7.3555   -0.0773 N.1     1  LIG1       -0.1907
     36 C          -6.3353   -6.5648   -0.0658 C.1     1  LIG1        0.1048
     37 C          -3.8090   -8.2112   -0.0608 C.ar    1  LIG1       -0.0508
     38 C          -2.9229   -9.3058   -0.0676 C.ar    1  LIG1       -0.0576
     39 C          -3.2510   -6.9164   -0.0574 C.ar    1  LIG1        0.0221
     40 C          -1.5421   -9.1218   -0.0715 C.ar    1  LIG1       -0.0201
     41 H          -3.3323  -10.3136   -0.0701 H       1  LIG1        0.0619
     42 C          -1.8726   -6.7321   -0.0613 C.ar    1  LIG1       -0.0095
     43 C          -1.0088   -7.8323   -0.0685 C.ar    1  LIG1        0.1175
     44 H          -1.4667   -5.7237   -0.0585 H       1  LIG1        0.0661
     45 H          -0.7532  -10.1551   -0.0779 H       1  LIG1        0.0654
     46 H          -5.0875   -8.4462   -0.0577 H       1  LIG1        0.0625
     47 O           0.2789   -7.6538   -0.0719 O.3     1  LIG1       -0.5067
     48 H           0.4721   -6.7135   -0.0727 H       1  LIG1        0.2921
@<TRIPOS>BOND
     1    14    11    1
     2    34    32    1
     3    33    32    1
     4    26    24    1
     5    25    24    1
     6    45    40    1
     7    35    36    3
     8    48    47    1
     9    47    43    1
    10    40    43   ar
    11    40    38   ar
    12    41    38    1
    13    43    42   ar
    14    38    37   ar
    15    36    29    1
    16    42    44    1
    17    42    39   ar
    18    37    46    1
    19    37    39   ar
    20    39    30    1
    21    29    30   ar
    22    29    28   ar
    23    30    31   ar
    24    28    32    1
    25    28    27   ar
    26    31    27   ar
    27    20    19    1
    28    27    18    1
    29    19    18   ar
    30    19    15   ar
    31    18    17   ar
    32     2     9    1
    33     2     1   ar
    34     2     3   ar
    35     4    15    1
    36     4     5   ar
    37     4     3   ar
    38     9     8    3
    39     6     5    1
    40    15    16   ar
    41     5     1   ar
    42     1     7    1
    43     3    10    1
    44    10    11    1
    45    11    12    1
    46    11    13    1
    47    17    16   ar
    48    17    24    1
    49    16    21    1
    50    21    22    3
    51    22    23    1
