@<TRIPOS>MOLECULE
mol_data/noopt/geoms/mol2/13dl12da13hh13di-.out
 47 50 0 0 0
SMALL
GASTEIGER

@<TRIPOS>ATOM
      1 C           1.1215   -0.3259    0.0002 C.ar    1  LIG1        0.0234
      2 C           0.7176    0.9721   -0.0005 C.ar    1  LIG1        0.1113
      3 C          -0.7144    0.9744    0.0003 C.ar    1  LIG1        0.1656
      4 C          -1.1226   -0.3223   -0.0003 C.ar    1  LIG1        0.1269
      5 N          -0.0018   -1.1217    0.0001 N.ar    1  LIG1       -0.3541
      6 H          -0.0034   -2.1157   -0.0003 H       1  LIG1        0.1656
      7 H           2.3167   -0.8373    0.0007 H       1  LIG1        0.0821
      8 N           2.1747    2.9375   -0.0001 N.1     1  LIG1       -0.1907
      9 C           1.4918    2.0164   -0.0003 C.1     1  LIG1        0.1044
     10 O          -1.4853    2.0212    0.0010 O.3     1  LIG1       -0.4916
     11 C          -0.6829    3.2049    0.0012 C.3     1  LIG1        0.0789
     12 H          -1.3178    4.0662    0.0016 H       1  LIG1        0.0660
     13 H          -0.0650    3.2168    0.8747 H       1  LIG1        0.0660
     14 H          -0.0654    3.2174   -0.8726 H       1  LIG1        0.0660
     15 C          -2.3194   -0.8299   -0.0001 C.ar    1  LIG1        0.1727
     16 C          -3.6024   -0.3233    0.0148 C.ar    1  LIG1        0.0996
     17 C          -4.4979   -1.4613    0.0044 C.ar    1  LIG1        0.0038
     18 C          -3.7022   -2.5883   -0.0164 C.ar    1  LIG1        0.1550
     19 O          -2.3551   -2.2249   -0.0196 O.2     1  LIG1       -0.4504
     20 N          -4.2844    2.0260    0.0521 N.1     1  LIG1       -0.1907
     21 C          -3.9648    0.9250    0.0347 C.1     1  LIG1        0.1030
     22 H          -5.7965   -1.4036    0.0131 H       1  LIG1        0.0669
     23 C          -3.9133   -3.8710   -0.0331 C.ar    1  LIG1        0.1054
     24 C          -5.0772   -4.5732   -0.0448 C.ar    1  LIG1        0.0749
     25 C          -4.7373   -5.9642   -0.0604 C.ar    1  LIG1        0.0734
     26 C          -3.3807   -6.0508   -0.0593 C.ar    1  LIG1        0.0874
     27 N          -2.8722   -4.7716   -0.0421 N.ar    1  LIG1       -0.3476
     28 H          -1.9066   -4.5357   -0.0377 H       1  LIG1        0.1661
     29 N          -6.2762   -4.0709   -0.0408 N.pl3   1  LIG1       -0.3548
     30 H          -6.2695   -3.1884   -0.5112 H       1  LIG1        0.1424
     31 H          -6.9005   -4.6946   -0.5112 H       1  LIG1        0.1424
     32 N          -5.5696   -6.9627   -0.0736 N.pl3   1  LIG1       -0.3548
     33 H          -6.4072   -6.6923   -0.5484 H       1  LIG1        0.1424
     34 H          -5.1528   -7.7378   -0.5484 H       1  LIG1        0.1424
     35 C          -2.6018   -7.0916   -0.0703 C.ar    1  LIG1        0.0826
     36 C          -2.9017   -8.4175   -0.0781 C.ar    1  LIG1        0.0813
     37 C          -1.6631   -9.1361   -0.0880 C.ar    1  LIG1       -0.0151
     38 C          -0.6608   -8.2177   -0.0875 C.ar    1  LIG1        0.0064
     39 N          -1.2311   -6.9648   -0.0762 N.ar    1  LIG1       -0.3582
     40 H          -0.7323   -6.1050   -0.0735 H       1  LIG1        0.1654
     41 H           0.6294   -8.3771   -0.0946 H       1  LIG1        0.0810
     42 N          -5.1468   -9.3899   -0.0732 N.1     1  LIG1       -0.1908
     43 C          -4.0946   -8.9342   -0.0755 C.1     1  LIG1        0.1016
     44 C          -1.5195  -10.4284   -0.0964 C.3     1  LIG1       -0.0371
     45 H          -0.6115  -10.6897    0.4058 H       1  LIG1        0.0278
     46 H          -1.4808  -10.7765   -1.1075 H       1  LIG1        0.0278
     47 H          -2.3481  -10.8826    0.4057 H       1  LIG1        0.0278
@<TRIPOS>BOND
     1    46    44    1
     2    14    11    1
     3    34    32    1
     4    33    32    1
     5    31    29    1
     6    30    29    1
     7    44    37    1
     8    44    47    1
     9    44    45    1
    10    41    38    1
    11    37    38   ar
    12    37    36   ar
    13    38    39   ar
    14    36    43    1
    15    36    35   ar
    16    39    40    1
    17    39    35   ar
    18    43    42    3
    19    32    25    1
    20    35    26    1
    21    25    26   ar
    22    25    24   ar
    23    26    27   ar
    24    24    29    1
    25    24    23   ar
    26    27    28    1
    27    27    23   ar
    28    23    18    1
    29    19    18   ar
    30    19    15   ar
    31    18    17   ar
    32     2     9    1
    33     2     1   ar
    34     2     3   ar
    35     9     8    3
    36     6     5    1
    37     4    15    1
    38     4     5   ar
    39     4     3   ar
    40    15    16   ar
    41     5     1   ar
    42     1     7    1
    43     3    10    1
    44    10    11    1
    45    11    12    1
    46    11    13    1
    47    17    22    1
    48    17    16   ar
    49    16    21    1
    50    21    20    3
