@<TRIPOS>MOLECULE
mol_data/noopt/geoms/mol2/13ea13dd(290)12ff(190)13ee(70).out
 43 46 0 0 0
SMALL
GASTEIGER

@<TRIPOS>ATOM
      1 C           1.1215   -0.3259    0.0002 C.ar    1  LIG1        0.0177
      2 C           0.7176    0.9721   -0.0005 C.ar    1  LIG1        0.0426
      3 C          -0.7144    0.9744    0.0003 C.ar    1  LIG1       -0.0195
      4 C          -1.1226   -0.3223   -0.0003 C.ar    1  LIG1        0.0654
      5 N          -0.0018   -1.1217    0.0001 N.ar    1  LIG1       -0.3584
      6 H          -0.0034   -2.1157   -0.0003 H       1  LIG1        0.1654
      7 H           2.3167   -0.8373    0.0007 H       1  LIG1        0.0819
      8 C           1.4918    2.0164   -0.0003 C.1     1  LIG1       -0.0682
      9 C           2.2072    2.9814   -0.0001 C.1     1  LIG1       -0.1139
     10 H           2.8444    3.8409    0.0000 H       1  LIG1        0.1232
     11 H          -1.4853    2.0212    0.0010 H       1  LIG1        0.0651
     12 C          -2.3194   -0.8299   -0.0001 C.ar    1  LIG1        0.0823
     13 C          -3.2799   -0.8244   -0.9621 C.ar    1  LIG1        0.0964
     14 C          -4.4126   -1.5277   -0.4395 C.ar    1  LIG1        0.0981
     15 C          -4.0938   -1.9335    0.8182 C.ar    1  LIG1        0.1052
     16 N          -2.8134   -1.5080    1.0914 N.ar    1  LIG1       -0.3484
     17 H          -2.3231   -1.6659    1.9415 H       1  LIG1        0.1661
     18 N          -3.1006    0.2026   -3.1754 N.1     1  LIG1       -0.1908
     19 C          -3.1846   -0.2787   -2.1381 C.1     1  LIG1        0.1026
     20 N          -6.5331   -1.9293   -1.5919 N.1     1  LIG1       -0.1908
     21 C          -5.5393   -1.7411   -1.0519 C.1     1  LIG1        0.1027
     22 C          -4.7884   -2.6020    1.6903 C.ar    1  LIG1        0.1981
     23 C          -4.7222   -3.8653    2.2405 C.ar    1  LIG1        0.2074
     24 C          -5.8270   -3.9711    3.1706 C.ar    1  LIG1        0.2074
     25 C          -6.4953   -2.7649    3.1271 C.ar    1  LIG1        0.1980
     26 O          -5.8739   -1.9041    2.2217 O.2     1  LIG1       -0.4442
     27 O          -3.8506   -4.7971    1.9911 O.3     1  LIG1       -0.5008
     28 H          -2.9749   -4.4086    1.9297 H       1  LIG1        0.2924
     29 O          -6.1111   -5.0132    3.8942 O.3     1  LIG1       -0.5008
     30 H          -5.3080   -5.5080    4.0725 H       1  LIG1        0.2924
     31 C          -7.5385   -2.2621    3.7178 C.ar    1  LIG1        0.1027
     32 C          -7.6872   -1.7675    4.9753 C.ar    1  LIG1        0.0684
     33 C          -9.0480   -1.3423    5.1094 C.ar    1  LIG1        0.0580
     34 C          -9.6706   -1.5942    3.9275 C.ar    1  LIG1        0.0189
     35 N          -8.7502   -2.1577    3.0728 N.ar    1  LIG1       -0.3560
     36 H          -8.9316   -2.4433    2.1382 H       1  LIG1        0.1655
     37 H         -10.9001   -1.3852    3.5604 H       1  LIG1        0.0820
     38 C          -6.7623   -1.6967    5.8861 C.1     1  LIG1       -0.0662
     39 C          -5.9078   -1.6312    6.7277 C.1     1  LIG1       -0.1138
     40 H          -5.1465   -1.5730    7.4773 H       1  LIG1        0.1232
     41 C          -9.5914   -0.8124    6.1649 C.1     1  LIG1       -0.0669
     42 C         -10.0934   -0.3228    7.1401 C.1     1  LIG1       -0.1138
     43 H         -10.5406    0.1134    8.0089 H       1  LIG1        0.1232
@<TRIPOS>BOND
     1    18    19    3
     2    19    13    1
     3    20    21    3
     4    21    14    1
     5    13    14   ar
     6    13    12   ar
     7    14    15   ar
     8     2     8    1
     9     2     1   ar
    10     2     3   ar
    11     4    12    1
    12     4     5   ar
    13     4     3   ar
    14     6     5    1
    15     8     9    3
    16     9    10    1
    17    12    16   ar
    18     5     1   ar
    19     1     7    1
    20     3    11    1
    21    15    16   ar
    22    15    22    1
    23    16    17    1
    24    22    26   ar
    25    22    23   ar
    26    28    27    1
    27    27    23    1
    28    36    35    1
    29    26    25   ar
    30    23    24   ar
    31    35    31   ar
    32    35    34   ar
    33    25    24   ar
    34    25    31    1
    35    24    29    1
    36    37    34    1
    37    31    32   ar
    38    29    30    1
    39    34    33   ar
    40    32    33   ar
    41    32    38    1
    42    33    41    1
    43    38    39    3
    44    41    42    3
    45    39    40    1
    46    42    43    1
