@<TRIPOS>MOLECULE
mol_data/noopt/geoms/mol2/13ea13ea-13ea.out
 32 34 0 0 0
SMALL
GASTEIGER

@<TRIPOS>ATOM
      1 C           1.1215   -0.3259    0.0002 C.ar    1  LIG1        0.0177
      2 C           0.7176    0.9721   -0.0005 C.ar    1  LIG1        0.0426
      3 C          -0.7144    0.9744    0.0003 C.ar    1  LIG1       -0.0195
      4 C          -1.1226   -0.3223   -0.0003 C.ar    1  LIG1        0.0653
      5 N          -0.0018   -1.1217    0.0001 N.ar    1  LIG1       -0.3584
      6 H          -0.0034   -2.1157   -0.0003 H       1  LIG1        0.1654
      7 H           2.3167   -0.8373    0.0007 H       1  LIG1        0.0819
      8 C           1.4918    2.0164   -0.0003 C.1     1  LIG1       -0.0682
      9 C           2.2072    2.9814   -0.0001 C.1     1  LIG1       -0.1139
     10 H           2.8444    3.8409    0.0000 H       1  LIG1        0.1232
     11 H          -1.4853    2.0212    0.0010 H       1  LIG1        0.0651
     12 C          -2.3194   -0.8299   -0.0001 C.ar    1  LIG1        0.0790
     13 C          -2.7274   -2.1266   -0.0005 C.ar    1  LIG1        0.0520
     14 C          -4.1594   -2.1244    0.0011 C.ar    1  LIG1       -0.0189
     15 C          -4.5635   -0.8264    0.0006 C.ar    1  LIG1        0.0657
     16 N          -3.4402   -0.0305    0.0003 N.ar    1  LIG1       -0.3509
     17 H          -3.4386    0.9635   -0.0001 H       1  LIG1        0.1660
     18 C          -1.9565   -3.1734   -0.0006 C.1     1  LIG1       -0.0675
     19 C          -1.2442   -4.1406   -0.0007 C.1     1  LIG1       -0.1138
     20 H          -0.6097   -5.0022   -0.0008 H       1  LIG1        0.1232
     21 H          -4.9336   -3.1687    0.0023 H       1  LIG1        0.0652
     22 C          -5.7587   -0.3150    0.0014 C.ar    1  LIG1        0.0785
     23 C          -6.1626    0.9830    0.0016 C.ar    1  LIG1        0.0513
     24 C          -7.5946    0.9853    0.0038 C.ar    1  LIG1       -0.0283
     25 C          -8.0028   -0.3114    0.0030 C.ar    1  LIG1        0.0034
     26 N          -6.8820   -1.1108    0.0021 N.ar    1  LIG1       -0.3585
     27 H          -6.8836   -2.1048    0.0013 H       1  LIG1        0.1654
     28 H          -9.1996   -0.8190    0.0041 H       1  LIG1        0.0807
     29 C          -5.3884    2.0273    0.0015 C.1     1  LIG1       -0.0675
     30 C          -4.6730    2.9923    0.0014 C.1     1  LIG1       -0.1138
     31 H          -4.0358    3.8518    0.0013 H       1  LIG1        0.1232
     32 H          -8.3655    2.0321    0.0056 H       1  LIG1        0.0645
@<TRIPOS>BOND
     1    20    19    1
     2    19    18    3
     3    18    13    1
     4     2     8    1
     5     2     1   ar
     6     2     3   ar
     7    13    12   ar
     8    13    14   ar
     9     4    12    1
    10     4     5   ar
    11     4     3   ar
    12     6     5    1
    13     8     9    3
    14    17    16    1
    15     9    10    1
    16    12    16   ar
    17     5     1   ar
    18     1     7    1
    19     3    11    1
    20    16    15   ar
    21    15    14   ar
    22    15    22    1
    23    14    21    1
    24    27    26    1
    25    31    30    1
    26    30    29    3
    27    22    23   ar
    28    22    26   ar
    29    29    23    1
    30    23    24   ar
    31    26    25   ar
    32    25    24   ar
    33    25    28    1
    34    24    32    1
