@<TRIPOS>MOLECULE
mol_data/noopt/geoms/mol2/13ea13ea-13ea-13ea-.out
 42 45 0 0 0
SMALL
GASTEIGER

@<TRIPOS>ATOM
      1 C           1.1215   -0.3259    0.0002 C.ar    1  LIG1        0.0177
      2 C           0.7176    0.9721   -0.0005 C.ar    1  LIG1        0.0426
      3 C          -0.7144    0.9744    0.0003 C.ar    1  LIG1       -0.0195
      4 C          -1.1226   -0.3223   -0.0003 C.ar    1  LIG1        0.0653
      5 N          -0.0018   -1.1217    0.0001 N.ar    1  LIG1       -0.3584
      6 H          -0.0034   -2.1157   -0.0003 H       1  LIG1        0.1654
      7 H           2.3167   -0.8373    0.0007 H       1  LIG1        0.0819
      8 C           1.4918    2.0164   -0.0003 C.1     1  LIG1       -0.0682
      9 C           2.2072    2.9814   -0.0001 C.1     1  LIG1       -0.1139
     10 H           2.8444    3.8409    0.0000 H       1  LIG1        0.1232
     11 H          -1.4853    2.0212    0.0010 H       1  LIG1        0.0651
     12 C          -2.3194   -0.8299   -0.0001 C.ar    1  LIG1        0.0790
     13 C          -2.7274   -2.1266   -0.0005 C.ar    1  LIG1        0.0520
     14 C          -4.1594   -2.1244    0.0011 C.ar    1  LIG1       -0.0189
     15 C          -4.5635   -0.8264    0.0006 C.ar    1  LIG1        0.0658
     16 N          -3.4402   -0.0305    0.0003 N.ar    1  LIG1       -0.3509
     17 H          -3.4386    0.9635   -0.0001 H       1  LIG1        0.1660
     18 C          -1.9565   -3.1734   -0.0006 C.1     1  LIG1       -0.0675
     19 C          -1.2442   -4.1406   -0.0007 C.1     1  LIG1       -0.1138
     20 H          -0.6097   -5.0022   -0.0008 H       1  LIG1        0.1232
     21 H          -4.9336   -3.1687    0.0023 H       1  LIG1        0.0652
     22 C          -5.7587   -0.3150    0.0014 C.ar    1  LIG1        0.0790
     23 C          -6.9765   -0.9191    0.0015 C.ar    1  LIG1        0.0520
     24 C          -7.9670    0.1151    0.0037 C.ar    1  LIG1       -0.0189
     25 C          -7.3109    1.3057    0.0031 C.ar    1  LIG1        0.0657
     26 N          -5.9587    1.0470    0.0022 N.ar    1  LIG1       -0.3509
     27 H          -5.2408    1.7345    0.0016 H       1  LIG1        0.1660
     28 C          -7.1973   -2.2002    0.0012 C.1     1  LIG1       -0.0675
     29 C          -7.4013   -3.3840    0.0010 C.1     1  LIG1       -0.1138
     30 H          -7.5830   -4.4384    0.0007 H       1  LIG1        0.1232
     31 H          -9.2564   -0.0501    0.0054 H       1  LIG1        0.0652
     32 C          -7.7701    2.5219    0.0044 C.ar    1  LIG1        0.0785
     33 C          -9.0494    2.9816    0.0047 C.ar    1  LIG1        0.0513
     34 C          -8.9898    4.4124    0.0074 C.ar    1  LIG1       -0.0283
     35 C          -7.6767    4.7641    0.0068 C.ar    1  LIG1        0.0034
     36 N          -6.9265    3.6098    0.0054 N.ar    1  LIG1       -0.3585
     37 H          -5.9333    3.5684    0.0046 H       1  LIG1        0.1654
     38 H          -7.1178    5.9378    0.0083 H       1  LIG1        0.0807
     39 C         -10.1263    2.2533    0.0043 C.1     1  LIG1       -0.0675
     40 C         -11.1212    1.5803    0.0040 C.1     1  LIG1       -0.1138
     41 H         -12.0075    0.9808    0.0037 H       1  LIG1        0.1232
     42 H         -10.0023    5.2278    0.0095 H       1  LIG1        0.0645
@<TRIPOS>BOND
     1    20    19    1
     2    19    18    3
     3    18    13    1
     4     2     8    1
     5     2     1   ar
     6     2     3   ar
     7    13    12   ar
     8    13    14   ar
     9     4    12    1
    10     4     5   ar
    11     4     3   ar
    12     6     5    1
    13     8     9    3
    14    17    16    1
    15     9    10    1
    16    12    16   ar
    17     5     1   ar
    18     1     7    1
    19     3    11    1
    20    16    15   ar
    21    15    14   ar
    22    15    22    1
    23    30    29    1
    24    29    28    3
    25    14    21    1
    26    28    23    1
    27    22    23   ar
    28    22    26   ar
    29    23    24   ar
    30    27    26    1
    31    26    25   ar
    32    25    24   ar
    33    25    32    1
    34    41    40    1
    35    24    31    1
    36    40    39    3
    37    39    33    1
    38    32    33   ar
    39    32    36   ar
    40    37    36    1
    41    33    34   ar
    42    36    35   ar
    43    35    34   ar
    44    35    38    1
    45    34    42    1
