@<TRIPOS>MOLECULE
mol_data/noopt/geoms/mol2/13ea13ea-.out
 22 23 0 0 0
SMALL
GASTEIGER

@<TRIPOS>ATOM
      1 C           1.1215   -0.3259    0.0002 C.ar    1  LIG1        0.0177
      2 C           0.7176    0.9721   -0.0005 C.ar    1  LIG1        0.0426
      3 C          -0.7144    0.9744    0.0003 C.ar    1  LIG1       -0.0195
      4 C          -1.1226   -0.3223   -0.0003 C.ar    1  LIG1        0.0653
      5 N          -0.0018   -1.1217    0.0001 N.ar    1  LIG1       -0.3584
      6 H          -0.0034   -2.1157   -0.0003 H       1  LIG1        0.1654
      7 H           2.3167   -0.8373    0.0007 H       1  LIG1        0.0819
      8 C           1.4918    2.0164   -0.0003 C.1     1  LIG1       -0.0682
      9 C           2.2072    2.9814   -0.0001 C.1     1  LIG1       -0.1139
     10 H           2.8444    3.8409    0.0000 H       1  LIG1        0.1232
     11 H          -1.4853    2.0212    0.0010 H       1  LIG1        0.0651
     12 C          -2.3194   -0.8299   -0.0001 C.ar    1  LIG1        0.0785
     13 C          -2.7274   -2.1266   -0.0005 C.ar    1  LIG1        0.0513
     14 C          -4.1594   -2.1244    0.0011 C.ar    1  LIG1       -0.0283
     15 C          -4.5635   -0.8264    0.0006 C.ar    1  LIG1        0.0034
     16 N          -3.4402   -0.0305    0.0003 N.ar    1  LIG1       -0.3585
     17 H          -3.4386    0.9635   -0.0001 H       1  LIG1        0.1654
     18 H          -5.7587   -0.3150    0.0014 H       1  LIG1        0.0807
     19 C          -1.9565   -3.1734   -0.0006 C.1     1  LIG1       -0.0675
     20 C          -1.2442   -4.1406   -0.0007 C.1     1  LIG1       -0.1138
     21 H          -0.6097   -5.0022   -0.0008 H       1  LIG1        0.1232
     22 H          -4.9336   -3.1687    0.0023 H       1  LIG1        0.0645
@<TRIPOS>BOND
     1    21    20    1
     2    20    19    3
     3    19    13    1
     4     2     8    1
     5     2     1   ar
     6     2     3   ar
     7    13    12   ar
     8    13    14   ar
     9     4    12    1
    10     4     5   ar
    11     4     3   ar
    12     6     5    1
    13     8     9    3
    14    17    16    1
    15     9    10    1
    16    12    16   ar
    17     5     1   ar
    18     1     7    1
    19     3    11    1
    20    16    15   ar
    21    15    14   ar
    22    15    18    1
    23    14    22    1
