@<TRIPOS>MOLECULE
mol_data/noopt/geoms/mol2/13ea13ea13ea-13ea-.out
 42 45 0 0 0
SMALL
GASTEIGER

@<TRIPOS>ATOM
      1 C           1.1215   -0.3259    0.0002 C.ar    1  LIG1        0.0177
      2 C           0.7176    0.9721   -0.0005 C.ar    1  LIG1        0.0426
      3 C          -0.7144    0.9744    0.0003 C.ar    1  LIG1       -0.0195
      4 C          -1.1226   -0.3223   -0.0003 C.ar    1  LIG1        0.0653
      5 N          -0.0018   -1.1217    0.0001 N.ar    1  LIG1       -0.3584
      6 H          -0.0034   -2.1157   -0.0003 H       1  LIG1        0.1654
      7 H           2.3167   -0.8373    0.0007 H       1  LIG1        0.0819
      8 C           1.4918    2.0164   -0.0003 C.1     1  LIG1       -0.0682
      9 C           2.2072    2.9814   -0.0001 C.1     1  LIG1       -0.1139
     10 H           2.8444    3.8409    0.0000 H       1  LIG1        0.1232
     11 H          -1.4853    2.0212    0.0010 H       1  LIG1        0.0651
     12 C          -2.3194   -0.8299   -0.0001 C.ar    1  LIG1        0.0790
     13 C          -3.5353   -0.2219   -0.0003 C.ar    1  LIG1        0.0520
     14 C          -4.5290   -1.2530    0.0012 C.ar    1  LIG1       -0.0189
     15 C          -3.8767   -2.4457    0.0005 C.ar    1  LIG1        0.0658
     16 N          -2.5238   -2.1913    0.0002 N.ar    1  LIG1       -0.3509
     17 H          -1.8081   -2.8811   -0.0004 H       1  LIG1        0.1660
     18 C          -3.7520    1.0599   -0.0003 C.1     1  LIG1       -0.0675
     19 C          -3.9522    2.2443   -0.0003 C.1     1  LIG1       -0.1138
     20 H          -4.1306    3.2993   -0.0002 H       1  LIG1        0.1232
     21 H          -5.8179   -1.0837    0.0025 H       1  LIG1        0.0652
     22 C          -4.3398   -3.6604    0.0012 C.ar    1  LIG1        0.0790
     23 C          -3.6874   -4.8530    0.0012 C.ar    1  LIG1        0.0520
     24 C          -4.6811   -5.8841    0.0032 C.ar    1  LIG1       -0.0189
     25 C          -5.8970   -5.2763    0.0027 C.ar    1  LIG1        0.0657
     26 N          -5.6927   -3.9149    0.0019 N.ar    1  LIG1       -0.3509
     27 H          -6.4084   -3.2251    0.0013 H       1  LIG1        0.1660
     28 C          -2.3984   -5.0223    0.0009 C.1     1  LIG1       -0.0675
     29 C          -1.2075   -5.1787    0.0007 C.1     1  LIG1       -0.1138
     30 H          -0.1466   -5.3180    0.0005 H       1  LIG1        0.1232
     31 H          -4.4643   -7.1660    0.0049 H       1  LIG1        0.0652
     32 C          -7.0939   -5.7839    0.0038 C.ar    1  LIG1        0.0785
     33 C          -7.5019   -7.0806    0.0041 C.ar    1  LIG1        0.0513
     34 C          -8.9339   -7.0784    0.0067 C.ar    1  LIG1       -0.0283
     35 C          -9.3380   -5.7804    0.0061 C.ar    1  LIG1        0.0034
     36 N          -8.2146   -4.9846    0.0048 N.ar    1  LIG1       -0.3585
     37 H          -8.2131   -3.9906    0.0040 H       1  LIG1        0.1654
     38 H         -10.5331   -5.2690    0.0075 H       1  LIG1        0.0807
     39 C          -6.7310   -8.1274    0.0038 C.1     1  LIG1       -0.0675
     40 C          -6.0187   -9.0946    0.0034 C.1     1  LIG1       -0.1138
     41 H          -5.3842   -9.9562    0.0032 H       1  LIG1        0.1232
     42 H          -9.7081   -8.1227    0.0087 H       1  LIG1        0.0645
@<TRIPOS>BOND
     1     2     8    1
     2     2     1   ar
     3     2     3   ar
     4    17    16    1
     5    13    18    1
     6    13    12   ar
     7    13    14   ar
     8     4    12    1
     9     4     5   ar
    10     4     3   ar
    11     6     5    1
    12     8     9    3
    13    18    19    3
    14    19    20    1
    15     9    10    1
    16    12    16   ar
    17     5     1   ar
    18    16    15   ar
    19     1     7    1
    20     3    11    1
    21    30    29    1
    22    15    14   ar
    23    15    22    1
    24    29    28    3
    25    28    23    1
    26    23    22   ar
    27    23    24   ar
    28    14    21    1
    29    22    26   ar
    30    27    26    1
    31    26    25   ar
    32    25    24   ar
    33    25    32    1
    34    41    40    1
    35    24    31    1
    36    40    39    3
    37    39    33    1
    38    32    33   ar
    39    32    36   ar
    40    37    36    1
    41    33    34   ar
    42    36    35   ar
    43    35    34   ar
    44    35    38    1
    45    34    42    1
