@<TRIPOS>MOLECULE
mol_data/noopt/geoms/mol2/13ea12fa(220)12id(260)6aa.out
 40 43 0 0 0
SMALL
GASTEIGER

@<TRIPOS>ATOM
      1 C           1.1215   -0.3259    0.0002 C.ar    1  LIG1        0.0177
      2 C           0.7176    0.9721   -0.0005 C.ar    1  LIG1        0.0426
      3 C          -0.7144    0.9744    0.0003 C.ar    1  LIG1       -0.0178
      4 C          -1.1226   -0.3223   -0.0003 C.ar    1  LIG1        0.0870
      5 N          -0.0018   -1.1217    0.0001 N.ar    1  LIG1       -0.3570
      6 H          -0.0034   -2.1157   -0.0003 H       1  LIG1        0.1655
      7 H           2.3167   -0.8373    0.0007 H       1  LIG1        0.0819
      8 C           1.4918    2.0164   -0.0003 C.1     1  LIG1       -0.0682
      9 C           2.2072    2.9814   -0.0001 C.1     1  LIG1       -0.1139
     10 H           2.8444    3.8409    0.0000 H       1  LIG1        0.1232
     11 H          -1.4853    2.0212    0.0010 H       1  LIG1        0.0652
     12 C          -2.3194   -0.8299   -0.0001 C.ar    1  LIG1        0.1930
     13 C          -2.9204   -1.9316   -0.5729 C.ar    1  LIG1        0.1648
     14 C          -4.3080   -1.9091   -0.1593 C.ar    1  LIG1        0.0296
     15 C          -4.4628   -0.7947    0.6393 C.ar    1  LIG1        0.1746
     16 O          -3.2507   -0.1130    0.7526 O.2     1  LIG1       -0.4465
     17 O          -2.3728   -2.8291   -1.3376 O.3     1  LIG1       -0.5031
     18 H          -1.4653   -2.5790   -1.5260 H       1  LIG1        0.2923
     19 H          -5.2117   -2.7827   -0.4909 H       1  LIG1        0.0693
     20 C          -5.4483   -0.2512    1.2900 C.ar    1  LIG1        0.1749
     21 C          -6.7017    0.2221    0.9612 C.ar    1  LIG1        0.0164
     22 C          -7.2969    0.7077    2.1887 C.ar    1  LIG1        0.1010
     23 C          -6.3674    0.4988    3.1867 C.ar    1  LIG1        0.1548
     24 O          -5.2192   -0.0914    2.6574 O.2     1  LIG1       -0.4501
     25 C          -7.2629    0.2407   -0.2116 C.3     1  LIG1       -0.0348
     26 H          -7.9006   -0.6122   -0.3155 H       1  LIG1        0.0279
     27 H          -6.5074    0.2156   -0.9690 H       1  LIG1        0.0279
     28 H          -7.8424    1.1342   -0.3155 H       1  LIG1        0.0279
     29 N          -9.5241    1.6984    2.3989 N.1     1  LIG1       -0.1907
     30 C          -8.4803    1.2341    2.3004 C.1     1  LIG1        0.1033
     31 C          -7.4745    1.1069    5.1673 C.ar    1  LIG1        0.0382
     32 C          -6.3176    0.7189    4.4669 C.ar    1  LIG1        0.0366
     33 C          -5.1242    0.5772    5.1774 C.ar    1  LIG1       -0.0482
     34 C          -5.1263    0.8258    6.5510 C.ar    1  LIG1       -0.0429
     35 C          -6.3342    1.2095    7.1621 C.ar    1  LIG1        0.0276
     36 N          -7.4945    1.3507    6.4921 N.ar    1  LIG1       -0.2626
     37 H          -4.1998    0.2766    4.6641 H       1  LIG1        0.0626
     38 H          -6.3867    1.4518    8.4382 H       1  LIG1        0.0829
     39 H          -8.6092    1.2519    4.5497 H       1  LIG1        0.0837
     40 H          -4.0411    0.7080    7.2570 H       1  LIG1        0.0633
@<TRIPOS>BOND
     1    18    17    1
     2    17    13    1
     3    27    25    1
     4    13    14   ar
     5    13    12   ar
     6    19    14    1
     7    26    25    1
     8    28    25    1
     9    25    21    1
    10    14    15   ar
    11     2     8    1
    12     2     1   ar
    13     2     3   ar
    14     8     9    3
    15     6     5    1
    16     4    12    1
    17     4     5   ar
    18     4     3   ar
    19     9    10    1
    20    12    16   ar
    21     5     1   ar
    22     1     7    1
    23     3    11    1
    24    15    16   ar
    25    15    20    1
    26    21    20   ar
    27    21    22   ar
    28    20    24   ar
    29    22    30    1
    30    22    23   ar
    31    30    29    3
    32    24    23   ar
    33    23    32    1
    34    32    31   ar
    35    32    33   ar
    36    39    31    1
    37    37    33    1
    38    31    36   ar
    39    33    34   ar
    40    36    35   ar
    41    34    35   ar
    42    34    40    1
    43    35    38    1
