@<TRIPOS>MOLECULE
mol_data/noopt/geoms/mol2/13ea6fh(250)12lh(160)12ih(340).out
 49 52 0 0 0
SMALL
GASTEIGER

@<TRIPOS>ATOM
      1 C           1.1215   -0.3259    0.0002 C.ar    1  LIG1        0.0176
      2 C           0.7176    0.9721   -0.0005 C.ar    1  LIG1        0.0425
      3 C          -0.7144    0.9744    0.0003 C.ar    1  LIG1       -0.0208
      4 C          -1.1226   -0.3223   -0.0003 C.ar    1  LIG1        0.0528
      5 N          -0.0018   -1.1217    0.0001 N.ar    1  LIG1       -0.3594
      6 H          -0.0034   -2.1157   -0.0003 H       1  LIG1        0.1654
      7 H           2.3167   -0.8373    0.0007 H       1  LIG1        0.0819
      8 C           1.4918    2.0164   -0.0003 C.1     1  LIG1       -0.0682
      9 C           2.2072    2.9814   -0.0001 C.1     1  LIG1       -0.1139
     10 H           2.8444    3.8409    0.0000 H       1  LIG1        0.1232
     11 H          -1.4853    2.0212    0.0010 H       1  LIG1        0.0651
     12 C          -3.1362   -0.7248    1.1406 C.ar    1  LIG1        0.2224
     13 C          -2.3194   -0.8299   -0.0001 C.ar    1  LIG1        0.0614
     14 C          -2.8240   -1.4882   -1.1231 C.ar    1  LIG1       -0.0246
     15 C          -4.1157   -2.0147   -1.0695 C.ar    1  LIG1        0.0549
     16 C          -4.8555   -1.8591    0.1171 C.ar    1  LIG1        0.1341
     17 N          -4.3844   -1.2268    1.2096 N.ar    1  LIG1       -0.2074
     18 H          -2.2147   -1.5908   -2.0322 H       1  LIG1        0.0645
     19 O          -2.7109   -0.1210    2.2105 O.3     1  LIG1       -0.4919
     20 H          -3.3460    0.5489    2.4742 H       1  LIG1        0.2937
     21 N          -4.6308   -2.6365   -2.0883 N.pl3   1  LIG1       -0.3562
     22 H          -5.1559   -1.9905   -2.6423 H       1  LIG1        0.1424
     23 H          -3.8984   -3.0323   -2.6424 H       1  LIG1        0.1424
     24 C          -6.0625   -2.3319    0.2156 C.ar    1  LIG1        0.1991
     25 C          -6.6186   -3.5396    0.5832 C.ar    1  LIG1        0.1887
     26 C          -8.0541   -3.3876    0.4679 C.ar    1  LIG1        0.1171
     27 C          -8.2800   -2.0963    0.0374 C.ar    1  LIG1        0.1952
     28 O          -7.0674   -1.4254   -0.1253 O.2     1  LIG1       -0.4444
     29 O          -5.9995   -4.6181    0.9625 O.3     1  LIG1       -0.4896
     30 C          -6.9414   -5.6851    1.1016 C.3     1  LIG1        0.0791
     31 H          -6.4314   -6.5725    1.4137 H       1  LIG1        0.0660
     32 H          -7.6755   -5.4196    1.8334 H       1  LIG1        0.0660
     33 H          -7.4219   -5.8615    0.1621 H       1  LIG1        0.0660
     34 N          -8.9365   -4.3065    0.7265 N.pl3   1  LIG1       -0.3521
     35 H          -9.8166   -4.0442    0.3308 H       1  LIG1        0.1425
     36 H          -8.6388   -5.1753    0.3308 H       1  LIG1        0.1425
     37 C          -9.3306   -1.3838   -0.2427 C.ar    1  LIG1        0.1764
     38 C          -9.5557   -0.1175   -0.7416 C.ar    1  LIG1        0.0191
     39 C         -10.9921    0.0530   -0.8078 C.ar    1  LIG1        0.0665
     40 C         -11.5499   -1.1210   -0.3449 C.ar    1  LIG1        0.1136
     41 O         -10.5456   -2.0225    0.0095 O.2     1  LIG1       -0.4576
     42 H         -12.7586   -1.5659   -0.1688 H       1  LIG1        0.1049
     43 C          -8.6709    0.7689   -1.0913 C.3     1  LIG1       -0.0342
     44 H          -8.9508    1.7252   -0.7014 H       1  LIG1        0.0279
     45 H          -8.6200    0.8200   -2.1589 H       1  LIG1        0.0279
     46 H          -7.7141    0.4908   -0.7015 H       1  LIG1        0.0279
     47 N         -11.6103    1.1172   -1.2268 N.pl3   1  LIG1       -0.3553
     48 H         -10.9864    1.6687   -1.7804 H       1  LIG1        0.1424
     49 H         -12.3984    0.8486   -1.7805 H       1  LIG1        0.1424
@<TRIPOS>BOND
     1    23    21    1
     2    22    21    1
     3    45    43    1
     4    21    15    1
     5    18    14    1
     6    49    47    1
     7    48    47    1
     8    47    39    1
     9    14    15   ar
    10    14    13   ar
    11    43    38    1
    12    43    46    1
    13    43    44    1
    14    15    16   ar
    15    39    38   ar
    16    39    40   ar
    17    38    37   ar
    18    40    42    1
    19    40    41   ar
    20    37    41   ar
    21    37    27    1
    22    28    27   ar
    23    28    24   ar
    24     2     8    1
    25     2     1   ar
    26     2     3   ar
    27     8     9    3
    28     6     5    1
    29     4    13    1
    30     4     5   ar
    31     4     3   ar
    32     9    10    1
    33    13    12   ar
    34     5     1   ar
    35     1     7    1
    36     3    11    1
    37    27    26   ar
    38    16    24    1
    39    16    17   ar
    40    33    30    1
    41    24    25   ar
    42    36    34    1
    43    35    34    1
    44    26    25   ar
    45    26    34    1
    46    25    29    1
    47    29    30    1
    48    30    31    1
    49    30    32    1
    50    12    17   ar
    51    12    19    1
    52    19    20    1
