@<TRIPOS>MOLECULE
mol_data/noopt/geoms/mol2/13ea13af4ef-4ff-.out
 46 49 0 0 0
SMALL
GASTEIGER

@<TRIPOS>ATOM
      1 C           1.1215   -0.3259    0.0002 C.ar    1  LIG1        0.0177
      2 C           0.7176    0.9721   -0.0005 C.ar    1  LIG1        0.0426
      3 C          -0.7144    0.9744    0.0003 C.ar    1  LIG1       -0.0196
      4 C          -1.1226   -0.3223   -0.0003 C.ar    1  LIG1        0.0642
      5 N          -0.0018   -1.1217    0.0001 N.ar    1  LIG1       -0.3584
      6 H          -0.0034   -2.1157   -0.0003 H       1  LIG1        0.1654
      7 H           2.3167   -0.8373    0.0007 H       1  LIG1        0.0819
      8 C           1.4918    2.0164   -0.0003 C.1     1  LIG1       -0.0682
      9 C           2.2072    2.9814   -0.0001 C.1     1  LIG1       -0.1139
     10 H           2.8444    3.8409    0.0000 H       1  LIG1        0.1232
     11 H          -1.4853    2.0212    0.0010 H       1  LIG1        0.0651
     12 C          -2.3194   -0.8299   -0.0001 C.ar    1  LIG1        0.0669
     13 C          -3.5352   -0.2220    0.0163 C.ar    1  LIG1        0.0072
     14 C          -4.5290   -1.2531    0.0088 C.ar    1  LIG1        0.1427
     15 C          -3.8768   -2.4456   -0.0136 C.ar    1  LIG1        0.0902
     16 N          -2.5238   -2.1911   -0.0187 N.ar    1  LIG1       -0.3501
     17 H          -1.8082   -2.8808   -0.0339 H       1  LIG1        0.1661
     18 H          -3.7519    1.0596    0.0366 H       1  LIG1        0.0676
     19 O          -5.8179   -1.0839    0.0207 O.3     1  LIG1       -0.5046
     20 H          -6.2534   -1.9394    0.0236 H       1  LIG1        0.2922
     21 C          -5.7322   -3.8813   -0.0137 C.ar    1  LIG1        0.0347
     22 C          -6.1835   -5.2152   -0.0286 C.ar    1  LIG1       -0.0344
     23 C          -4.3399   -3.6602   -0.0280 C.ar    1  LIG1        0.0207
     24 C          -5.2897   -6.2834   -0.0572 C.ar    1  LIG1        0.0283
     25 H          -7.2539   -5.4084   -0.0178 H       1  LIG1        0.0637
     26 C          -3.4472   -4.7262   -0.0565 C.ar    1  LIG1       -0.0092
     27 C          -3.9150   -6.0443   -0.0714 C.ar    1  LIG1        0.1253
     28 H          -2.3781   -4.5297   -0.0670 H       1  LIG1        0.0661
     29 C          -6.6144   -2.9268    0.0127 C.1     1  LIG1       -0.0690
     30 C          -7.4296   -2.0448    0.0371 C.1     1  LIG1       -0.1139
     31 H          -8.1557   -1.2592    0.0588 H       1  LIG1        0.1232
     32 O          -3.0757   -7.0368   -0.0980 O.3     1  LIG1       -0.5061
     33 H          -2.1779   -6.6971   -0.1045 H       1  LIG1        0.2922
     34 C          -7.1312   -7.7370   -0.0556 C.ar    1  LIG1        0.1249
     35 C          -7.5694   -9.0753   -0.0694 C.ar    1  LIG1       -0.0161
     36 C          -5.7410   -7.5024   -0.0705 C.ar    1  LIG1        0.0305
     37 C          -6.6653  -10.1347   -0.0974 C.ar    1  LIG1       -0.0167
     38 H          -8.6379   -9.2788   -0.0581 H       1  LIG1        0.0655
     39 C          -4.8380   -8.5597   -0.0985 C.ar    1  LIG1       -0.0089
     40 C          -5.2930   -9.8823   -0.1123 C.ar    1  LIG1        0.1177
     41 H          -3.7709   -8.3529   -0.1095 H       1  LIG1        0.0661
     42 H          -7.1048  -11.3582   -0.1096 H       1  LIG1        0.0655
     43 O          -8.0226   -6.7911   -0.0297 O.3     1  LIG1       -0.5062
     44 H          -8.9009   -7.1786   -0.0233 H       1  LIG1        0.2922
     45 O          -4.4441  -10.8666   -0.1383 O.3     1  LIG1       -0.5067
     46 H          -3.5496  -10.5182   -0.1447 H       1  LIG1        0.2921
@<TRIPOS>BOND
     1    46    45    1
     2    45    40    1
     3    40    39   ar
     4    40    37   ar
     5    42    37    1
     6    41    39    1
     7    33    32    1
     8    39    36   ar
     9    32    27    1
    10    37    35   ar
    11    27    24   ar
    12    27    26   ar
    13    36    24    1
    14    36    34   ar
    15    35    38    1
    16    35    34   ar
    17    28    26    1
    18    24    22   ar
    19    26    23   ar
    20    34    43    1
    21    17    16    1
    22    43    44    1
    23    22    25    1
    24    22    21   ar
    25    23    21   ar
    26    23    15    1
    27    16    15   ar
    28    16    12   ar
    29    21    29    1
    30    15    14   ar
    31     2     8    1
    32     2     1   ar
    33     2     3   ar
    34     4    12    1
    35     4     5   ar
    36     4     3   ar
    37     6     5    1
    38     8     9    3
    39     9    10    1
    40    12    13   ar
    41     5     1   ar
    42     1     7    1
    43     3    11    1
    44    14    13   ar
    45    14    19    1
    46    29    30    3
    47    13    18    1
    48    19    20    1
    49    30    31    1
