@<TRIPOS>MOLECULE
mol_data/noopt/geoms/mol2/13ea13ea-4ea13ea.out
 44 47 0 0 0
SMALL
GASTEIGER

@<TRIPOS>ATOM
      1 C           1.1215   -0.3259    0.0002 C.ar    1  LIG1        0.0177
      2 C           0.7176    0.9721   -0.0005 C.ar    1  LIG1        0.0426
      3 C          -0.7144    0.9744    0.0003 C.ar    1  LIG1       -0.0195
      4 C          -1.1226   -0.3223   -0.0003 C.ar    1  LIG1        0.0653
      5 N          -0.0018   -1.1217    0.0001 N.ar    1  LIG1       -0.3584
      6 H          -0.0034   -2.1157   -0.0003 H       1  LIG1        0.1654
      7 H           2.3167   -0.8373    0.0007 H       1  LIG1        0.0819
      8 C           1.4918    2.0164   -0.0003 C.1     1  LIG1       -0.0682
      9 C           2.2072    2.9814   -0.0001 C.1     1  LIG1       -0.1139
     10 H           2.8444    3.8409    0.0000 H       1  LIG1        0.1232
     11 H          -1.4853    2.0212    0.0010 H       1  LIG1        0.0651
     12 C          -2.3194   -0.8299   -0.0001 C.ar    1  LIG1        0.0789
     13 C          -2.7274   -2.1266   -0.0005 C.ar    1  LIG1        0.0519
     14 C          -4.1594   -2.1244    0.0011 C.ar    1  LIG1       -0.0203
     15 C          -4.5635   -0.8264    0.0006 C.ar    1  LIG1        0.0493
     16 N          -3.4402   -0.0305    0.0003 N.ar    1  LIG1       -0.3520
     17 H          -3.4386    0.9635   -0.0001 H       1  LIG1        0.1660
     18 C          -1.9565   -3.1734   -0.0006 C.1     1  LIG1       -0.0675
     19 C          -1.2442   -4.1406   -0.0007 C.1     1  LIG1       -0.1138
     20 H          -0.6097   -5.0022   -0.0008 H       1  LIG1        0.1232
     21 H          -4.9336   -3.1687    0.0023 H       1  LIG1        0.0651
     22 C          -5.9236    1.0852    0.0026 C.ar    1  LIG1        0.0344
     23 C          -7.2385    1.5895    0.0050 C.ar    1  LIG1       -0.0365
     24 C          -5.7587   -0.3150    0.0014 C.ar    1  LIG1        0.0137
     25 C          -8.3419    0.7391    0.0056 C.ar    1  LIG1        0.0007
     26 H          -7.3885    2.6668    0.0062 H       1  LIG1        0.0636
     27 C          -6.8598   -1.1644    0.0020 C.ar    1  LIG1       -0.0508
     28 C          -8.1582   -0.6442    0.0040 C.ar    1  LIG1       -0.0519
     29 H          -6.7065   -2.2406    0.0011 H       1  LIG1        0.0625
     30 C          -4.9343    1.9285    0.0020 C.1     1  LIG1       -0.0690
     31 C          -4.0201    2.7078    0.0013 C.1     1  LIG1       -0.1139
     32 H          -3.2058    3.4019    0.0008 H       1  LIG1        0.1232
     33 H          -9.1838   -1.4431    0.0046 H       1  LIG1        0.0624
     34 C          -9.5420    1.2389    0.0077 C.ar    1  LIG1        0.0621
     35 C          -9.9585    2.5329    0.0088 C.ar    1  LIG1        0.0499
     36 C         -11.3904    2.5213    0.0122 C.ar    1  LIG1       -0.0284
     37 C         -11.7860    1.2207    0.0113 C.ar    1  LIG1        0.0034
     38 N         -10.6575    0.4322    0.0090 N.ar    1  LIG1       -0.3597
     39 H         -10.6495   -0.5617    0.0079 H       1  LIG1        0.1654
     40 H         -12.9778    0.7015    0.0134 H       1  LIG1        0.0807
     41 C          -9.1944    3.5847    0.0084 C.1     1  LIG1       -0.0675
     42 C          -8.4884    4.5565    0.0080 C.1     1  LIG1       -0.1138
     43 H          -7.8596    5.4222    0.0077 H       1  LIG1        0.1232
     44 H         -12.1714    3.5606    0.0152 H       1  LIG1        0.0645
@<TRIPOS>BOND
     1    20    19    1
     2    19    18    3
     3    18    13    1
     4     2     8    1
     5     2     1   ar
     6     2     3   ar
     7    13    12   ar
     8    13    14   ar
     9     4    12    1
    10     4     5   ar
    11     4     3   ar
    12     6     5    1
    13     8     9    3
    14    17    16    1
    15     9    10    1
    16    12    16   ar
    17     5     1   ar
    18     1     7    1
    19     3    11    1
    20    16    15   ar
    21    15    14   ar
    22    15    24    1
    23    32    31    1
    24    14    21    1
    25    29    27    1
    26    31    30    3
    27    24    27   ar
    28    24    22   ar
    29    30    22    1
    30    27    28   ar
    31    22    23   ar
    32    28    33    1
    33    28    25   ar
    34    23    25   ar
    35    23    26    1
    36    25    34    1
    37    43    42    1
    38    34    35   ar
    39    34    38   ar
    40    39    38    1
    41    42    41    3
    42    41    35    1
    43    35    36   ar
    44    38    37   ar
    45    37    36   ar
    46    37    40    1
    47    36    44    1
