@<TRIPOS>MOLECULE
mol_data/noopt/geoms/mol2/13ea13ea.out
 22 23 0 0 0
SMALL
GASTEIGER

@<TRIPOS>ATOM
      1 C           1.1215   -0.3259    0.0002 C.ar    1  LIG1        0.0177
      2 C           0.7176    0.9721   -0.0005 C.ar    1  LIG1        0.0426
      3 C          -0.7144    0.9744    0.0003 C.ar    1  LIG1       -0.0195
      4 C          -1.1226   -0.3223   -0.0003 C.ar    1  LIG1        0.0653
      5 N          -0.0018   -1.1217    0.0001 N.ar    1  LIG1       -0.3584
      6 H          -0.0034   -2.1157   -0.0003 H       1  LIG1        0.1654
      7 H           2.3167   -0.8373    0.0007 H       1  LIG1        0.0819
      8 C           1.4918    2.0164   -0.0003 C.1     1  LIG1       -0.0682
      9 C           2.2072    2.9814   -0.0001 C.1     1  LIG1       -0.1139
     10 H           2.8444    3.8409    0.0000 H       1  LIG1        0.1232
     11 H          -1.4853    2.0212    0.0010 H       1  LIG1        0.0651
     12 C          -2.3194   -0.8299   -0.0001 C.ar    1  LIG1        0.0785
     13 C          -3.5353   -0.2219   -0.0003 C.ar    1  LIG1        0.0513
     14 C          -4.5290   -1.2530    0.0012 C.ar    1  LIG1       -0.0283
     15 C          -3.8767   -2.4457    0.0005 C.ar    1  LIG1        0.0034
     16 N          -2.5238   -2.1913    0.0002 N.ar    1  LIG1       -0.3585
     17 H          -1.8081   -2.8811   -0.0004 H       1  LIG1        0.1654
     18 H          -4.3398   -3.6604    0.0012 H       1  LIG1        0.0807
     19 C          -3.7520    1.0599   -0.0003 C.1     1  LIG1       -0.0675
     20 C          -3.9522    2.2443   -0.0003 C.1     1  LIG1       -0.1138
     21 H          -4.1306    3.2993   -0.0002 H       1  LIG1        0.1232
     22 H          -5.8179   -1.0837    0.0025 H       1  LIG1        0.0645
@<TRIPOS>BOND
     1     2     8    1
     2     2     1   ar
     3     2     3   ar
     4    17    16    1
     5    13    19    1
     6    13    12   ar
     7    13    14   ar
     8     4    12    1
     9     4     5   ar
    10     4     3   ar
    11     6     5    1
    12     8     9    3
    13    19    20    3
    14    20    21    1
    15     9    10    1
    16    12    16   ar
    17     5     1   ar
    18    16    15   ar
    19     1     7    1
    20     3    11    1
    21    15    14   ar
    22    15    18    1
    23    14    22    1
