@<TRIPOS>MOLECULE
mol_data/noopt/geoms/mol2/13ea12ih(270)4ad(80)6if(120).out
 48 51 0 0 0
SMALL
GASTEIGER

@<TRIPOS>ATOM
      1 C           1.1215   -0.3259    0.0002 C.ar    1  LIG1        0.0177
      2 C           0.7176    0.9721   -0.0005 C.ar    1  LIG1        0.0426
      3 C          -0.7144    0.9744    0.0003 C.ar    1  LIG1       -0.0180
      4 C          -1.1226   -0.3223   -0.0003 C.ar    1  LIG1        0.0836
      5 N          -0.0018   -1.1217    0.0001 N.ar    1  LIG1       -0.3571
      6 H          -0.0034   -2.1157   -0.0003 H       1  LIG1        0.1655
      7 H           2.3167   -0.8373    0.0007 H       1  LIG1        0.0819
      8 C           1.4918    2.0164   -0.0003 C.1     1  LIG1       -0.0682
      9 C           2.2072    2.9814   -0.0001 C.1     1  LIG1       -0.1139
     10 H           2.8444    3.8409    0.0000 H       1  LIG1        0.1232
     11 H          -1.4853    2.0212    0.0010 H       1  LIG1        0.0652
     12 C          -2.3194   -0.8299   -0.0001 C.ar    1  LIG1        0.1565
     13 C          -3.2248   -1.2139   -0.9674 C.ar    1  LIG1        0.0181
     14 C          -4.3927   -1.7093   -0.2691 C.ar    1  LIG1        0.0746
     15 C          -4.1233   -1.5951    1.0792 C.ar    1  LIG1        0.1566
     16 O          -2.8508   -1.0555    1.2705 O.2     1  LIG1       -0.4512
     17 C          -3.0834   -1.1538   -2.2586 C.3     1  LIG1       -0.0343
     18 H          -2.9253   -0.1374   -2.5532 H       1  LIG1        0.0279
     19 H          -3.9667   -1.5291   -2.7320 H       1  LIG1        0.0279
     20 H          -2.2421   -1.7456   -2.5532 H       1  LIG1        0.0279
     21 N          -5.4728   -2.1673   -0.8292 N.pl3   1  LIG1       -0.3548
     22 H          -5.8815   -1.4538   -1.3982 H       1  LIG1        0.1424
     23 H          -5.2439   -2.9571   -1.3983 H       1  LIG1        0.1424
     24 C          -4.2546   -1.4210    3.4151 C.ar    1  LIG1       -0.0504
     25 C          -4.9839   -1.7420    4.5763 C.ar    1  LIG1       -0.0521
     26 C          -4.7630   -1.8664    2.1778 C.ar    1  LIG1        0.0204
     27 C          -6.1676   -2.4736    4.5108 C.ar    1  LIG1        0.0013
     28 H          -4.6093   -1.4083    5.5415 H       1  LIG1        0.0624
     29 C          -5.9447   -2.5968    2.1119 C.ar    1  LIG1       -0.0330
     30 C          -6.6550   -2.9054    3.2767 C.ar    1  LIG1        0.0602
     31 H          -6.3161   -2.9290    1.1458 H       1  LIG1        0.0638
     32 H          -3.1571   -0.7355    3.5398 H       1  LIG1        0.0625
     33 N          -8.7326   -4.1911    3.1491 N.1     1  LIG1       -0.1908
     34 C          -7.7590   -3.5885    3.2089 C.1     1  LIG1        0.0998
     35 C          -8.2210   -2.6955    5.6301 C.ar    1  LIG1        0.0462
     36 C          -6.8155   -2.7521    5.6029 C.ar    1  LIG1        0.0078
     37 C          -6.1401   -3.1129    6.7703 C.ar    1  LIG1       -0.0092
     38 C          -6.8845   -3.4021    7.9152 C.ar    1  LIG1        0.1355
     39 C          -8.2871   -3.3173    7.8434 C.ar    1  LIG1        0.0693
     40 N          -8.9548   -2.9712    6.7256 N.ar    1  LIG1       -0.2559
     41 H          -5.0423   -3.1670    6.7876 H       1  LIG1        0.0661
     42 H          -9.0235   -3.5771    8.8827 H       1  LIG1        0.0867
     43 C          -8.8945   -2.3647    4.5681 C.3     1  LIG1       -0.0218
     44 H          -9.8342   -2.8766    4.5680 H       1  LIG1        0.0293
     45 H          -8.3398   -2.6372    3.6946 H       1  LIG1        0.0293
     46 H          -9.0639   -1.3082    4.5680 H       1  LIG1        0.0293
     47 O          -6.3027   -3.7426    9.0268 O.3     1  LIG1       -0.5052
     48 H          -5.7022   -3.0455    9.3008 H       1  LIG1        0.2922
@<TRIPOS>BOND
     1    19    17    1
     2    18    17    1
     3    20    17    1
     4    17    13    1
     5    23    21    1
     6    22    21    1
     7    13    14   ar
     8    13    12   ar
     9    21    14    1
    10    14    15   ar
    11     2     8    1
    12     2     1   ar
    13     2     3   ar
    14     4    12    1
    15     4     5   ar
    16     4     3   ar
    17     6     5    1
    18     8     9    3
    19     9    10    1
    20    12    16   ar
    21     5     1   ar
    22     1     7    1
    23     3    11    1
    24    15    16   ar
    25    15    26    1
    26    31    29    1
    27    29    26   ar
    28    29    30   ar
    29    26    24   ar
    30    33    34    3
    31    34    30    1
    32    30    27   ar
    33    24    32    1
    34    24    25   ar
    35    45    43    1
    36    27    25   ar
    37    27    36    1
    38    44    43    1
    39    46    43    1
    40    43    35    1
    41    25    28    1
    42    36    35   ar
    43    36    37   ar
    44    35    40   ar
    45    40    39   ar
    46    37    41    1
    47    37    38   ar
    48    39    38   ar
    49    39    42    1
    50    38    47    1
    51    47    48    1
