@<TRIPOS>MOLECULE
mol_data/noopt/geoms/mol2/13ed13ed13ed-13ed-.out
 46 51 0 0 0
SMALL
GASTEIGER

@<TRIPOS>ATOM
      1 C           1.1215   -0.3259    0.0002 C.ar    1  LIG1        0.0178
      2 C           0.7176    0.9721   -0.0005 C.ar    1  LIG1        0.0477
      3 C          -0.7144    0.9744    0.0003 C.ar    1  LIG1        0.0212
      4 C          -1.1226   -0.3223   -0.0003 C.ar    1  LIG1        0.0544
      5 N          -0.0018   -1.1217    0.0001 N.ar    1  LIG1       -0.3610
      6 H          -0.0034   -2.1157   -0.0003 H       1  LIG1        0.1651
      7 H           2.3167   -0.8373    0.0007 H       1  LIG1        0.0819
      8 C           1.4918    2.0164   -0.0003 C.1     1  LIG1       -0.0678
      9 C           2.2072    2.9814   -0.0001 C.1     1  LIG1       -0.1139
     10 H           2.8444    3.8409    0.0000 H       1  LIG1        0.1232
     11 N          -2.1652    2.9444    0.0016 N.pl3   1  LIG1       -0.2335
     12 C          -1.4853    2.0212    0.0010 C.3     1  LIG1        0.1403
     13 C          -2.3194   -0.8299   -0.0001 C.3     1  LIG1        0.1382
     14 C          -3.5353   -0.2219   -0.0003 C.2     1  LIG1        0.0470
     15 C          -4.5290   -1.2530    0.0012 C.2     1  LIG1        0.0879
     16 C          -3.8767   -2.4457    0.0005 C.2     1  LIG1        0.0715
     17 N          -2.5238   -2.1913    0.0002 N.pl3   1  LIG1       -0.3240
     18 H          -1.8081   -2.8811   -0.0004 H       1  LIG1        0.1475
     19 C          -3.7520    1.0599   -0.0003 C.1     1  LIG1       -0.0957
     20 C          -3.9522    2.2443   -0.0003 C.2     1  LIG1        0.0549
     21 H          -4.1306    3.2993   -0.0002 H       1  LIG1        0.0888
     22 N          -6.9548   -0.9344    0.0036 N.1     1  LIG1       -0.1908
     23 C          -5.8179   -1.0837    0.0025 C.1     1  LIG1        0.1020
     24 C          -4.3398   -3.6604    0.0012 C.ar    1  LIG1        0.0779
     25 C          -3.6874   -4.8530    0.0012 C.ar    1  LIG1        0.0569
     26 C          -4.6811   -5.8841    0.0032 C.ar    1  LIG1        0.0218
     27 C          -5.8970   -5.2763    0.0027 C.ar    1  LIG1        0.0549
     28 N          -5.6927   -3.9149    0.0019 N.ar    1  LIG1       -0.3536
     29 H          -6.4084   -3.2251    0.0013 H       1  LIG1        0.1657
     30 C          -2.3984   -5.0223    0.0009 C.1     1  LIG1       -0.0671
     31 C          -1.2075   -5.1787    0.0007 C.1     1  LIG1       -0.1138
     32 H          -0.1466   -5.3180    0.0005 H       1  LIG1        0.1232
     33 N          -4.2732   -8.2965    0.0063 N.pl3   1  LIG1       -0.2335
     34 C          -4.4643   -7.1660    0.0049 C.3     1  LIG1        0.1403
     35 C          -7.0939   -5.7839    0.0038 C.3     1  LIG1        0.1378
     36 C          -7.5019   -7.0806    0.0041 C.2     1  LIG1        0.0463
     37 C          -8.9339   -7.0784    0.0067 C.2     1  LIG1        0.0785
     38 C          -9.3380   -5.7804    0.0061 C.2     1  LIG1        0.0090
     39 N          -8.2146   -4.9846    0.0048 N.pl3   1  LIG1       -0.3315
     40 H          -8.2131   -3.9906    0.0040 H       1  LIG1        0.1469
     41 H         -10.5331   -5.2690    0.0075 H       1  LIG1        0.0792
     42 C          -6.7310   -8.1274    0.0038 C.1     1  LIG1       -0.0957
     43 C          -6.0187   -9.0946    0.0034 C.2     1  LIG1        0.0549
     44 H          -5.3842   -9.9562    0.0032 H       1  LIG1        0.0888
     45 N         -10.3909   -9.0438    0.0105 N.1     1  LIG1       -0.1908
     46 C          -9.7081   -8.1227    0.0087 C.1     1  LIG1        0.1014
@<TRIPOS>BOND
     1     2     8    1
     2     2     1   ar
     3     2     3   ar
     4    18    17    1
     5    14    19    2
     6    14    13    1
     7    14    15    1
     8     4    13    1
     9     4     5   ar
    10     4     3   ar
    11     6     5    1
    12     8     9    3
    13    19    20    2
    14    20    21    1
    15    20    11    1
    16     9    10    1
    17    13    17    1
    18     5     1   ar
    19    17    16    1
    20     1     7    1
    21     3    12    1
    22    32    31    1
    23    16    15    2
    24    16    24    1
    25    31    30    3
    26    30    25    1
    27    12    11    1
    28    25    24   ar
    29    25    26   ar
    30    15    23    1
    31    24    28   ar
    32    29    28    1
    33    28    27   ar
    34    23    22    3
    35    27    26   ar
    36    27    35    1
    37    44    43    1
    38    26    34    1
    39    43    42    2
    40    43    33    1
    41    42    36    2
    42    35    36    1
    43    35    39    1
    44    40    39    1
    45    36    37    1
    46    39    38    1
    47    34    33    1
    48    38    37    2
    49    38    41    1
    50    37    46    1
    51    46    45    3
