@<TRIPOS>MOLECULE
mol_data/noopt/geoms/mol2/13ed13ed-.out
 24 25 0 0 0
SMALL
GASTEIGER

@<TRIPOS>ATOM
      1 C           1.1215   -0.3259    0.0002 C.ar    1  LIG1        0.0190
      2 C           0.7176    0.9721   -0.0005 C.ar    1  LIG1        0.0600
      3 C          -0.7144    0.9744    0.0003 C.ar    1  LIG1        0.0937
      4 C          -1.1226   -0.3223   -0.0003 C.ar    1  LIG1        0.0829
      5 N          -0.0018   -1.1217    0.0001 N.ar    1  LIG1       -0.3573
      6 H          -0.0034   -2.1157   -0.0003 H       1  LIG1        0.1655
      7 H           2.3167   -0.8373    0.0007 H       1  LIG1        0.0820
      8 C           1.4918    2.0164   -0.0003 C.1     1  LIG1       -0.0669
      9 C           2.2072    2.9814   -0.0001 C.1     1  LIG1       -0.1138
     10 H           2.8444    3.8409    0.0000 H       1  LIG1        0.1232
     11 N          -2.1652    2.9444    0.0016 N.1     1  LIG1       -0.1908
     12 C          -1.4853    2.0212    0.0010 C.1     1  LIG1        0.1026
     13 C          -2.3194   -0.8299   -0.0001 C.ar    1  LIG1        0.0810
     14 C          -2.7274   -2.1266   -0.0005 C.ar    1  LIG1        0.0687
     15 C          -4.1594   -2.1244    0.0011 C.ar    1  LIG1        0.0850
     16 C          -4.5635   -0.8264    0.0006 C.ar    1  LIG1        0.0209
     17 N          -3.4402   -0.0305    0.0003 N.ar    1  LIG1       -0.3573
     18 H          -3.4386    0.9635   -0.0001 H       1  LIG1        0.1655
     19 H          -5.7587   -0.3150    0.0014 H       1  LIG1        0.0820
     20 C          -1.9565   -3.1734   -0.0006 C.1     1  LIG1       -0.0662
     21 C          -1.2442   -4.1406   -0.0007 C.1     1  LIG1       -0.1138
     22 H          -0.6097   -5.0022   -0.0008 H       1  LIG1        0.1232
     23 N          -5.6165   -4.0898    0.0034 N.1     1  LIG1       -0.1908
     24 C          -4.9336   -3.1687    0.0023 C.1     1  LIG1        0.1019
@<TRIPOS>BOND
     1    22    21    1
     2    21    20    3
     3    20    14    1
     4     2     8    1
     5     2     1   ar
     6     2     3   ar
     7    14    13   ar
     8    14    15   ar
     9     4    13    1
    10     4     5   ar
    11     4     3   ar
    12     6     5    1
    13     8     9    3
    14    18    17    1
    15     9    10    1
    16    13    17   ar
    17     5     1   ar
    18     1     7    1
    19     3    12    1
    20    17    16   ar
    21    16    15   ar
    22    16    19    1
    23    12    11    3
    24    15    24    1
    25    24    23    3
