@<TRIPOS>MOLECULE
mol_data/noopt/geoms/mol2/13ed4hh(190)12af(140)12hd(330).out
 45 48 0 0 0
SMALL
GASTEIGER

@<TRIPOS>ATOM
      1 C           1.1215   -0.3259    0.0002 C.ar    1  LIG1        0.0189
      2 C           0.7176    0.9721   -0.0005 C.ar    1  LIG1        0.0599
      3 C          -0.7144    0.9744    0.0003 C.ar    1  LIG1        0.0923
      4 C          -1.1226   -0.3223   -0.0003 C.ar    1  LIG1        0.0671
      5 N          -0.0018   -1.1217    0.0001 N.ar    1  LIG1       -0.3584
      6 H          -0.0034   -2.1157   -0.0003 H       1  LIG1        0.1654
      7 H           2.3167   -0.8373    0.0007 H       1  LIG1        0.0820
      8 C           1.4918    2.0164   -0.0003 C.1     1  LIG1       -0.0669
      9 C           2.2072    2.9814   -0.0001 C.1     1  LIG1       -0.1138
     10 H           2.8444    3.8409    0.0000 H       1  LIG1        0.1232
     11 N          -2.1652    2.9444    0.0016 N.1     1  LIG1       -0.1908
     12 C          -1.4853    2.0212    0.0010 C.1     1  LIG1        0.1025
     13 C          -2.4961   -2.2124   -0.2130 C.ar    1  LIG1        0.0346
     14 C          -3.8124   -2.7130   -0.2050 C.ar    1  LIG1       -0.0280
     15 C          -2.3194   -0.8299   -0.0001 C.ar    1  LIG1        0.0220
     16 C          -4.9058   -1.8761    0.0061 C.ar    1  LIG1        0.0398
     17 H          -3.9713   -3.7767   -0.3674 H       1  LIG1        0.0644
     18 C          -3.4106    0.0061    0.2107 C.ar    1  LIG1       -0.0294
     19 C          -4.7105   -0.5103    0.2154 C.ar    1  LIG1        0.0361
     20 H          -3.2483    1.0687    0.3724 H       1  LIG1        0.0643
     21 N          -1.5163   -3.0426   -0.4150 N.pl3   1  LIG1       -0.3574
     22 H          -1.8489   -3.8311   -0.9324 H       1  LIG1        0.1423
     23 H          -0.7931   -2.5853   -0.9325 H       1  LIG1        0.1423
     24 N          -5.7268    0.2760    0.4128 N.pl3   1  LIG1       -0.3574
     25 H          -5.5443    1.1672   -0.0025 H       1  LIG1        0.1423
     26 H          -6.5436   -0.1244   -0.0025 H       1  LIG1        0.1423
     27 C          -6.1075   -2.3720    0.0072 C.ar    1  LIG1        0.1413
     28 C          -6.7186   -3.4675    0.5811 C.ar    1  LIG1        0.0266
     29 C          -8.1063   -3.4317    0.1687 C.ar    1  LIG1        0.1664
     30 C          -8.2511   -2.3161   -0.6301 C.ar    1  LIG1        0.2135
     31 O          -7.0325   -1.6462   -0.7446 O.2     1  LIG1       -0.4478
     32 H          -6.1791   -4.3701    1.3454 H       1  LIG1        0.0692
     33 O          -9.0182   -4.2965    0.5015 O.3     1  LIG1       -0.5031
     34 H          -8.6203   -5.1662    0.5836 H       1  LIG1        0.2923
     35 C          -9.2318   -1.7633   -1.2801 C.ar    1  LIG1        0.1951
     36 C          -9.3596   -0.7002   -2.1500 C.ar    1  LIG1        0.0918
     37 C         -10.7599   -0.6261   -2.5115 C.ar    1  LIG1        0.1107
     38 C         -11.3951   -1.6493   -1.8383 C.ar    1  LIG1        0.1119
     39 O         -10.4740   -2.3647   -1.0725 O.2     1  LIG1       -0.4565
     40 H         -12.6169   -2.0860   -1.7566 H       1  LIG1        0.1043
     41 N          -8.4242    0.0949   -2.5775 N.pl3   1  LIG1       -0.3540
     42 H          -7.7737   -0.4238   -3.1323 H       1  LIG1        0.1425
     43 H          -8.8312    0.8204   -3.1323 H       1  LIG1        0.1425
     44 N         -11.7561    1.0156   -4.0275 N.1     1  LIG1       -0.1907
     45 C         -11.2892    0.2462   -3.3170 C.1     1  LIG1        0.1042
@<TRIPOS>BOND
     1    44    45    3
     2    45    37    1
     3    43    41    1
     4    42    41    1
     5    41    36    1
     6    37    36   ar
     7    37    38   ar
     8    36    35   ar
     9    38    40    1
    10    38    39   ar
    11    35    39   ar
    12    35    30    1
    13    23    21    1
    14    22    21    1
    15    31    30   ar
    16    31    27   ar
    17    30    29   ar
    18    21    13    1
    19    17    14    1
    20    13    14   ar
    21    13    15   ar
    22    14    16   ar
    23    26    24    1
    24    25    24    1
    25     2     8    1
    26     2     1   ar
    27     2     3   ar
    28     4    15    1
    29     4     5   ar
    30     4     3   ar
    31     6     5    1
    32     8     9    3
    33     9    10    1
    34    15    18   ar
    35     5     1   ar
    36     1     7    1
    37     3    12    1
    38    12    11    3
    39    16    27    1
    40    16    19   ar
    41    27    28   ar
    42    29    33    1
    43    29    28   ar
    44    18    19   ar
    45    18    20    1
    46    19    24    1
    47    33    34    1
    48    28    32    1
