@<TRIPOS>MOLECULE
mol_data/noopt/geoms/mol2/13ed13ed.out
 24 26 0 0 0
SMALL
GASTEIGER

@<TRIPOS>ATOM
      1 C           1.1215   -0.3259    0.0002 C.ar    1  LIG1        0.0178
      2 C           0.7176    0.9721   -0.0005 C.ar    1  LIG1        0.0477
      3 C          -0.7144    0.9744    0.0003 C.ar    1  LIG1        0.0212
      4 C          -1.1226   -0.3223   -0.0003 C.ar    1  LIG1        0.0544
      5 N          -0.0018   -1.1217    0.0001 N.ar    1  LIG1       -0.3610
      6 H          -0.0034   -2.1157   -0.0003 H       1  LIG1        0.1651
      7 H           2.3167   -0.8373    0.0007 H       1  LIG1        0.0819
      8 C           1.4918    2.0164   -0.0003 C.1     1  LIG1       -0.0678
      9 C           2.2072    2.9814   -0.0001 C.1     1  LIG1       -0.1139
     10 H           2.8444    3.8409    0.0000 H       1  LIG1        0.1232
     11 N          -2.1652    2.9444    0.0016 N.pl3   1  LIG1       -0.2335
     12 C          -1.4853    2.0212    0.0010 C.3     1  LIG1        0.1403
     13 C          -2.3194   -0.8299   -0.0001 C.3     1  LIG1        0.1377
     14 C          -3.5353   -0.2219   -0.0003 C.2     1  LIG1        0.0463
     15 C          -4.5290   -1.2530    0.0012 C.2     1  LIG1        0.0785
     16 C          -3.8767   -2.4457    0.0005 C.2     1  LIG1        0.0090
     17 N          -2.5238   -2.1913    0.0002 N.pl3   1  LIG1       -0.3315
     18 H          -1.8081   -2.8811   -0.0004 H       1  LIG1        0.1469
     19 H          -4.3398   -3.6604    0.0012 H       1  LIG1        0.0792
     20 C          -3.7520    1.0599   -0.0003 C.1     1  LIG1       -0.0957
     21 C          -3.9522    2.2443   -0.0003 C.2     1  LIG1        0.0549
     22 H          -4.1306    3.2993   -0.0002 H       1  LIG1        0.0888
     23 N          -6.9548   -0.9344    0.0036 N.1     1  LIG1       -0.1908
     24 C          -5.8179   -1.0837    0.0025 C.1     1  LIG1        0.1014
@<TRIPOS>BOND
     1     2     8    1
     2     2     1   ar
     3     2     3   ar
     4    18    17    1
     5    14    20    2
     6    14    13    1
     7    14    15    1
     8     4    13    1
     9     4     5   ar
    10     4     3   ar
    11     6     5    1
    12     8     9    3
    13    20    21    2
    14    21    22    1
    15    21    11    1
    16     9    10    1
    17    13    17    1
    18     5     1   ar
    19    17    16    1
    20     1     7    1
    21     3    12    1
    22    16    15    2
    23    16    19    1
    24    12    11    1
    25    15    24    1
    26    24    23    3
