@<TRIPOS>MOLECULE
mol_data/noopt/geoms/mol2/13ed13ed-13ed.out
 35 37 0 0 0
SMALL
GASTEIGER

@<TRIPOS>ATOM
      1 C           1.1215   -0.3259    0.0002 C.ar    1  LIG1        0.0190
      2 C           0.7176    0.9721   -0.0005 C.ar    1  LIG1        0.0600
      3 C          -0.7144    0.9744    0.0003 C.ar    1  LIG1        0.0937
      4 C          -1.1226   -0.3223   -0.0003 C.ar    1  LIG1        0.0829
      5 N          -0.0018   -1.1217    0.0001 N.ar    1  LIG1       -0.3573
      6 H          -0.0034   -2.1157   -0.0003 H       1  LIG1        0.1655
      7 H           2.3167   -0.8373    0.0007 H       1  LIG1        0.0820
      8 C           1.4918    2.0164   -0.0003 C.1     1  LIG1       -0.0669
      9 C           2.2072    2.9814   -0.0001 C.1     1  LIG1       -0.1138
     10 H           2.8444    3.8409    0.0000 H       1  LIG1        0.1232
     11 N          -2.1652    2.9444    0.0016 N.1     1  LIG1       -0.1908
     12 C          -1.4853    2.0212    0.0010 C.1     1  LIG1        0.1026
     13 C          -2.3194   -0.8299   -0.0001 C.ar    1  LIG1        0.0815
     14 C          -2.7274   -2.1266   -0.0005 C.ar    1  LIG1        0.0694
     15 C          -4.1594   -2.1244    0.0011 C.ar    1  LIG1        0.0944
     16 C          -4.5635   -0.8264    0.0006 C.ar    1  LIG1        0.0834
     17 N          -3.4402   -0.0305    0.0003 N.ar    1  LIG1       -0.3498
     18 H          -3.4386    0.9635   -0.0001 H       1  LIG1        0.1661
     19 C          -1.9565   -3.1734   -0.0006 C.1     1  LIG1       -0.0662
     20 C          -1.2442   -4.1406   -0.0007 C.1     1  LIG1       -0.1138
     21 H          -0.6097   -5.0022   -0.0008 H       1  LIG1        0.1232
     22 N          -5.6165   -4.0898    0.0034 N.1     1  LIG1       -0.1908
     23 C          -4.9336   -3.1687    0.0023 C.1     1  LIG1        0.1026
     24 C          -5.7587   -0.3150    0.0014 C.ar    1  LIG1        0.0810
     25 C          -6.1626    0.9830    0.0016 C.ar    1  LIG1        0.0687
     26 C          -7.5946    0.9853    0.0038 C.ar    1  LIG1        0.0850
     27 C          -8.0028   -0.3114    0.0030 C.ar    1  LIG1        0.0209
     28 N          -6.8820   -1.1108    0.0021 N.ar    1  LIG1       -0.3573
     29 H          -6.8836   -2.1048    0.0013 H       1  LIG1        0.1655
     30 H          -9.1996   -0.8190    0.0041 H       1  LIG1        0.0820
     31 C          -5.3884    2.0273    0.0015 C.1     1  LIG1       -0.0662
     32 C          -4.6730    2.9923    0.0014 C.1     1  LIG1       -0.1138
     33 H          -4.0358    3.8518    0.0013 H       1  LIG1        0.1232
     34 N          -9.0454    2.9553    0.0072 N.1     1  LIG1       -0.1908
     35 C          -8.3655    2.0321    0.0056 C.1     1  LIG1        0.1019
@<TRIPOS>BOND
     1    21    20    1
     2    20    19    3
     3    19    14    1
     4     2     8    1
     5     2     1   ar
     6     2     3   ar
     7    14    13   ar
     8    14    15   ar
     9     4    13    1
    10     4     5   ar
    11     4     3   ar
    12     6     5    1
    13     8     9    3
    14    18    17    1
    15     9    10    1
    16    13    17   ar
    17     5     1   ar
    18     1     7    1
    19     3    12    1
    20    17    16   ar
    21    16    15   ar
    22    16    24    1
    23    12    11    3
    24    15    23    1
    25    29    28    1
    26    33    32    1
    27    32    31    3
    28    24    25   ar
    29    24    28   ar
    30    31    25    1
    31    25    26   ar
    32    28    27   ar
    33    23    22    3
    34    27    26   ar
    35    27    30    1
    36    26    35    1
    37    35    34    3
