@<TRIPOS>MOLECULE
mol_data/noopt/geoms/mol2/13ed12eh(130)4hf(120)4ha(40).out
 49 52 0 0 0
SMALL
GASTEIGER

@<TRIPOS>ATOM
      1 C           1.1215   -0.3259    0.0002 C.ar    1  LIG1        0.0190
      2 C           0.7176    0.9721   -0.0005 C.ar    1  LIG1        0.0600
      3 C          -0.7144    0.9744    0.0003 C.ar    1  LIG1        0.0953
      4 C          -1.1226   -0.3223   -0.0003 C.ar    1  LIG1        0.1022
      5 N          -0.0018   -1.1217    0.0001 N.ar    1  LIG1       -0.3561
      6 H          -0.0034   -2.1157   -0.0003 H       1  LIG1        0.1655
      7 H           2.3167   -0.8373    0.0007 H       1  LIG1        0.0820
      8 C           1.4918    2.0164   -0.0003 C.1     1  LIG1       -0.0669
      9 C           2.2072    2.9814   -0.0001 C.1     1  LIG1       -0.1138
     10 H           2.8444    3.8409    0.0000 H       1  LIG1        0.1232
     11 N          -2.1652    2.9444    0.0016 N.1     1  LIG1       -0.1908
     12 C          -1.4853    2.0212    0.0010 C.1     1  LIG1        0.1026
     13 C          -2.3194   -0.8299   -0.0001 C.ar    1  LIG1        0.1702
     14 C          -2.9633   -1.8299    0.6987 C.ar    1  LIG1        0.0931
     15 C          -4.3199   -1.8808    0.1948 C.ar    1  LIG1        0.0873
     16 C          -4.4150   -0.9079   -0.7790 C.ar    1  LIG1        0.1594
     17 O          -3.1944   -0.2463   -0.9174 O.2     1  LIG1       -0.4501
     18 C          -2.4729   -2.5919    1.6308 C.1     1  LIG1       -0.0639
     19 C          -2.0198   -3.2960    2.4921 C.1     1  LIG1       -0.1137
     20 H          -1.6161   -3.9232    3.2593 H       1  LIG1        0.1232
     21 N          -5.2485   -2.6956    0.5996 N.pl3   1  LIG1       -0.3541
     22 H          -6.1354   -2.3876    0.2554 H       1  LIG1        0.1425
     23 H          -5.0584   -3.6150    0.2554 H       1  LIG1        0.1425
     24 C          -6.6996   -0.5366   -1.1623 C.ar    1  LIG1        0.0362
     25 C          -7.6769   -0.0620   -2.0584 C.ar    1  LIG1       -0.0291
     26 C          -5.3518   -0.4798   -1.5721 C.ar    1  LIG1        0.0432
     27 C          -7.3298    0.4477   -3.3075 C.ar    1  LIG1        0.0271
     28 H          -8.7230   -0.0968   -1.7623 H       1  LIG1        0.0643
     29 C          -5.0047    0.0289   -2.8191 C.ar    1  LIG1       -0.0071
     30 C          -5.9901    0.4960   -3.6950 C.ar    1  LIG1        0.1254
     31 H          -3.9584    0.0620   -3.1120 H       1  LIG1        0.0662
     32 N          -7.0849   -1.0004   -0.0106 N.pl3   1  LIG1       -0.3574
     33 H          -8.0786   -0.9189    0.0661 H       1  LIG1        0.1423
     34 H          -6.8226   -1.9623    0.0661 H       1  LIG1        0.1423
     35 O          -5.6597    0.9704   -4.8595 O.3     1  LIG1       -0.5061
     36 H          -6.3208    1.6045   -5.1465 H       1  LIG1        0.2922
     37 C          -8.8064    2.1631   -3.9247 C.ar    1  LIG1        0.0325
     38 C          -9.8102    2.5816   -4.8194 C.ar    1  LIG1       -0.0405
     39 C          -8.2579    0.8775   -4.1098 C.ar    1  LIG1        0.0063
     40 C         -10.2495    1.7585   -5.8539 C.ar    1  LIG1       -0.0600
     41 H         -10.2472    3.5698   -4.6945 H       1  LIG1        0.0636
     42 C          -8.6960    0.0554   -5.1424 C.ar    1  LIG1       -0.0522
     43 C          -9.6940    0.4894   -6.0212 C.ar    1  LIG1       -0.0611
     44 H          -8.2575   -0.9317   -5.2643 H       1  LIG1        0.0624
     45 H         -11.1780    2.1770   -6.6618 H       1  LIG1        0.0618
     46 N          -8.4379    2.9758   -2.9793 N.pl3   1  LIG1       -0.3575
     47 H          -7.4583    3.1592   -3.0605 H       1  LIG1        0.1423
     48 H          -8.9455    3.8336   -3.0605 H       1  LIG1        0.1423
     49 H         -10.0997   -0.2836   -6.9845 H       1  LIG1        0.0618
@<TRIPOS>BOND
     1    49    43    1
     2    45    40    1
     3    43    40   ar
     4    43    42   ar
     5    40    38   ar
     6    44    42    1
     7    36    35    1
     8    42    39   ar
     9    35    30    1
    10    38    41    1
    11    38    37   ar
    12    39    37   ar
    13    39    27    1
    14    37    46    1
    15    30    27   ar
    16    30    29   ar
    17    27    25   ar
    18    31    29    1
    19    48    46    1
    20    47    46    1
    21    29    26   ar
    22    25    28    1
    23    25    24   ar
    24    26    24   ar
    25    26    16    1
    26    24    32    1
    27    17    16   ar
    28    17    13   ar
    29    16    15   ar
    30    32    33    1
    31    32    34    1
    32     2     8    1
    33     2     1   ar
    34     2     3   ar
    35     6     5    1
    36     4    13    1
    37     4     5   ar
    38     4     3   ar
    39     8     9    3
    40     9    10    1
    41    13    14   ar
    42     5     1   ar
    43     1     7    1
    44     3    12    1
    45    12    11    3
    46    15    21    1
    47    15    14   ar
    48    23    21    1
    49    22    21    1
    50    14    18    1
    51    18    19    3
    52    19    20    1
