@<TRIPOS>MOLECULE
mol_data/noopt/geoms/mol2/13ed6ll-6ed12fe-.out
 52 55 0 0 0
SMALL
GASTEIGER

@<TRIPOS>ATOM
      1 C           1.1215   -0.3259    0.0002 C.ar    1  LIG1        0.0189
      2 C           0.7176    0.9721   -0.0005 C.ar    1  LIG1        0.0599
      3 C          -0.7144    0.9744    0.0003 C.ar    1  LIG1        0.0924
      4 C          -1.1226   -0.3223   -0.0003 C.ar    1  LIG1        0.0705
      5 N          -0.0018   -1.1217    0.0001 N.ar    1  LIG1       -0.3583
      6 H          -0.0034   -2.1157   -0.0003 H       1  LIG1        0.1654
      7 H           2.3167   -0.8373    0.0007 H       1  LIG1        0.0820
      8 C           1.4918    2.0164   -0.0003 C.1     1  LIG1       -0.0669
      9 C           2.2072    2.9814   -0.0001 C.1     1  LIG1       -0.1138
     10 H           2.8444    3.8409    0.0000 H       1  LIG1        0.1232
     11 N          -2.1652    2.9444    0.0016 N.1     1  LIG1       -0.1908
     12 C          -1.4853    2.0212    0.0010 C.1     1  LIG1        0.1025
     13 C          -2.5002   -2.2250   -0.0210 C.ar    1  LIG1        0.2246
     14 C          -2.3194   -0.8299   -0.0001 C.ar    1  LIG1        0.0646
     15 C          -3.4501   -0.0114    0.0210 C.ar    1  LIG1       -0.0036
     16 C          -4.7120   -0.6083    0.0204 C.ar    1  LIG1        0.1469
     17 C          -4.7903   -2.0130   -0.0016 C.ar    1  LIG1        0.1190
     18 N          -3.7099   -2.8177   -0.0220 N.ar    1  LIG1       -0.2086
     19 H          -3.3484    1.0830    0.0367 H       1  LIG1        0.0663
     20 O          -1.4782   -3.0283   -0.0410 O.3     1  LIG1       -0.4792
     21 C          -1.9362   -4.3830   -0.0484 C.3     1  LIG1        0.0804
     22 H          -1.0948   -5.0439   -0.0650 H       1  LIG1        0.0660
     23 H          -2.5175   -4.5678    0.8307 H       1  LIG1        0.0660
     24 H          -2.5389   -4.5511   -0.9164 H       1  LIG1        0.0660
     25 O          -5.7953    0.1100    0.0393 O.3     1  LIG1       -0.4929
     26 C          -5.4481    1.4972    0.0462 C.3     1  LIG1        0.0789
     27 H          -6.3401    2.0881    0.0617 H       1  LIG1        0.0660
     28 H          -4.8617    1.7138    0.9147 H       1  LIG1        0.0660
     29 H          -4.8828    1.7278   -0.8324 H       1  LIG1        0.0660
     30 C          -6.0101   -4.0206   -0.0037 C.ar    1  LIG1        0.1233
     31 C          -5.9423   -2.6153   -0.0030 C.ar    1  LIG1        0.0391
     32 C          -7.1354   -1.8903   -0.0037 C.ar    1  LIG1       -0.0302
     33 C          -8.3451   -2.5870   -0.0051 C.ar    1  LIG1        0.0815
     34 C          -8.3099   -3.9935   -0.0058 C.ar    1  LIG1        0.1284
     35 N          -7.1681   -4.7088   -0.0050 N.ar    1  LIG1       -0.2332
     36 H          -7.1222   -0.7912   -0.0042 H       1  LIG1        0.0638
     37 C          -4.9267   -4.7391   -0.0030 C.1     1  LIG1       -0.0491
     38 C          -3.9257   -5.4031   -0.0024 C.1     1  LIG1       -0.1124
     39 H          -3.0340   -5.9945   -0.0019 H       1  LIG1        0.1232
     40 N         -10.4863   -1.4034   -0.0066 N.1     1  LIG1       -0.1908
     41 C          -9.4828   -1.9581   -0.0059 C.1     1  LIG1        0.1014
     42 C          -9.4097   -4.6867   -0.0070 C.ar    1  LIG1        0.1966
     43 C         -10.7575   -4.3926   -0.0080 C.ar    1  LIG1        0.1799
     44 C         -11.4585   -5.6597   -0.0092 C.ar    1  LIG1        0.1045
     45 C         -10.4921   -6.6444   -0.0090 C.ar    1  LIG1        0.1117
     46 O          -9.2208   -6.0694   -0.0078 O.2     1  LIG1       -0.4563
     47 H         -10.4944   -7.9444   -0.0096 H       1  LIG1        0.1043
     48 O         -11.3157   -3.2185   -0.0077 O.3     1  LIG1       -0.5024
     49 H         -12.2706   -3.3177   -0.0077 H       1  LIG1        0.2923
     50 C         -12.7497   -5.8112   -0.0103 C.1     1  LIG1       -0.0628
     51 C         -13.9427   -5.9512   -0.0113 C.1     1  LIG1       -0.1137
     52 H         -15.0054   -6.0759   -0.0122 H       1  LIG1        0.1232
@<TRIPOS>BOND
     1    24    21    1
     2    29    26    1
     3    22    21    1
     4    21    20    1
     5    21    23    1
     6    20    13    1
     7    18    13   ar
     8    18    17   ar
     9    13    14   ar
    10    52    51    1
    11    51    50    3
    12    50    44    1
    13    47    45    1
    14    44    45   ar
    15    44    43   ar
    16    45    46   ar
    17    43    48    1
    18    43    42   ar
    19    46    42   ar
    20    48    49    1
    21    42    34    1
    22    40    41    3
    23    41    33    1
    24    34    33   ar
    25    34    35   ar
    26    33    32   ar
    27    35    30   ar
    28    36    32    1
    29    32    31   ar
    30    30    31   ar
    31    30    37    1
    32    31    17    1
    33    37    38    3
    34    38    39    1
    35    17    16   ar
    36     2     8    1
    37     2     1   ar
    38     2     3   ar
    39     4    14    1
    40     4     5   ar
    41     4     3   ar
    42     6     5    1
    43     8     9    3
    44     9    10    1
    45    14    15   ar
    46     5     1   ar
    47     1     7    1
    48     3    12    1
    49    12    11    3
    50    16    15   ar
    51    16    25    1
    52    15    19    1
    53    25    26    1
    54    26    27    1
    55    26    28    1
