@<TRIPOS>MOLECULE
mol_data/noopt/geoms/mol2/13ed13ed-13ed-13ed-.out
 46 51 0 0 0
SMALL
GASTEIGER

@<TRIPOS>ATOM
      1 C           1.1215   -0.3259    0.0002 C.ar    1  LIG1        0.0190
      2 C           0.7176    0.9721   -0.0005 C.ar    1  LIG1        0.0600
      3 C          -0.7144    0.9744    0.0003 C.ar    1  LIG1        0.0937
      4 C          -1.1226   -0.3223   -0.0003 C.ar    1  LIG1        0.0829
      5 N          -0.0018   -1.1217    0.0001 N.ar    1  LIG1       -0.3573
      6 H          -0.0034   -2.1157   -0.0003 H       1  LIG1        0.1655
      7 H           2.3167   -0.8373    0.0007 H       1  LIG1        0.0820
      8 C           1.4918    2.0164   -0.0003 C.1     1  LIG1       -0.0669
      9 C           2.2072    2.9814   -0.0001 C.1     1  LIG1       -0.1138
     10 H           2.8444    3.8409    0.0000 H       1  LIG1        0.1232
     11 N          -2.1652    2.9444    0.0016 N.1     1  LIG1       -0.1908
     12 C          -1.4853    2.0212    0.0010 C.1     1  LIG1        0.1026
     13 C          -2.3194   -0.8299   -0.0001 C.ar    1  LIG1        0.0803
     14 C          -2.7274   -2.1266   -0.0005 C.ar    1  LIG1        0.0571
     15 C          -4.1594   -2.1244    0.0011 C.ar    1  LIG1        0.0218
     16 C          -4.5635   -0.8264    0.0006 C.ar    1  LIG1        0.0549
     17 N          -3.4402   -0.0305    0.0003 N.ar    1  LIG1       -0.3534
     18 H          -3.4386    0.9635   -0.0001 H       1  LIG1        0.1658
     19 C          -1.9565   -3.1734   -0.0006 C.1     1  LIG1       -0.0671
     20 C          -1.2442   -4.1406   -0.0007 C.1     1  LIG1       -0.1138
     21 H          -0.6097   -5.0022   -0.0008 H       1  LIG1        0.1232
     22 N          -5.6165   -4.0898    0.0034 N.pl3   1  LIG1       -0.2335
     23 C          -4.9336   -3.1687    0.0023 C.3     1  LIG1        0.1403
     24 C          -5.7587   -0.3150    0.0014 C.3     1  LIG1        0.1371
     25 C          -6.9765   -0.9191    0.0015 C.2     1  LIG1        0.0347
     26 C          -7.9670    0.1151    0.0037 C.2     1  LIG1        0.0153
     27 C          -7.3109    1.3057    0.0031 C.2     1  LIG1        0.0430
     28 N          -5.9587    1.0470    0.0022 N.pl3   1  LIG1       -0.3276
     29 H          -5.2408    1.7345    0.0016 H       1  LIG1        0.1472
     30 C          -7.1973   -2.2002    0.0012 C.1     1  LIG1       -0.0966
     31 C          -7.4013   -3.3840    0.0010 C.2     1  LIG1        0.0548
     32 H          -7.5830   -4.4384    0.0007 H       1  LIG1        0.0888
     33 N         -10.3937   -0.1958    0.0070 N.pl3   1  LIG1       -0.2335
     34 C          -9.2564   -0.0501    0.0054 C.3     1  LIG1        0.1398
     35 C          -7.7701    2.5219    0.0044 C.3     1  LIG1        0.1352
     36 C          -9.0494    2.9816    0.0047 C.2     1  LIG1        0.0461
     37 C          -8.9898    4.4124    0.0074 C.2     1  LIG1        0.0785
     38 C          -7.6767    4.7641    0.0068 C.2     1  LIG1        0.0090
     39 N          -6.9265    3.6098    0.0054 N.pl3   1  LIG1       -0.3317
     40 H          -5.9333    3.5684    0.0046 H       1  LIG1        0.1469
     41 H          -7.1178    5.9378    0.0083 H       1  LIG1        0.0792
     42 C         -10.1263    2.2533    0.0043 C.1     1  LIG1       -0.0957
     43 C         -11.1212    1.5803    0.0040 C.2     1  LIG1        0.0549
     44 H         -12.0075    0.9808    0.0037 H       1  LIG1        0.0888
     45 N         -10.8953    5.9470    0.0113 N.1     1  LIG1       -0.1908
     46 C         -10.0023    5.2278    0.0095 C.1     1  LIG1        0.1014
@<TRIPOS>BOND
     1    21    20    1
     2    20    19    3
     3    19    14    1
     4     2     8    1
     5     2     1   ar
     6     2     3   ar
     7    14    13   ar
     8    14    15   ar
     9     4    13    1
    10     4     5   ar
    11     4     3   ar
    12     6     5    1
    13     8     9    3
    14    18    17    1
    15     9    10    1
    16    13    17   ar
    17     5     1   ar
    18     1     7    1
    19     3    12    1
    20    17    16   ar
    21    16    15   ar
    22    16    24    1
    23    32    31    1
    24    31    30    2
    25    31    22    1
    26    12    11    3
    27    15    23    1
    28    30    25    2
    29    24    25    1
    30    24    28    1
    31    25    26    1
    32    29    28    1
    33    28    27    1
    34    23    22    1
    35    27    26    2
    36    27    35    1
    37    44    43    1
    38    26    34    1
    39    43    42    2
    40    43    33    1
    41    42    36    2
    42    35    36    1
    43    35    39    1
    44    40    39    1
    45    36    37    1
    46    39    38    1
    47    34    33    1
    48    38    37    2
    49    38    41    1
    50    37    46    1
    51    46    45    3
