@<TRIPOS>MOLECULE
mol_data/noopt/geoms/mol2/13ed13ed13ed13ed-.out
 46 51 0 0 0
SMALL
GASTEIGER

@<TRIPOS>ATOM
      1 C           1.1215   -0.3259    0.0002 C.ar    1  LIG1        0.0178
      2 C           0.7176    0.9721   -0.0005 C.ar    1  LIG1        0.0477
      3 C          -0.7144    0.9744    0.0003 C.ar    1  LIG1        0.0212
      4 C          -1.1226   -0.3223   -0.0003 C.ar    1  LIG1        0.0544
      5 N          -0.0018   -1.1217    0.0001 N.ar    1  LIG1       -0.3610
      6 H          -0.0034   -2.1157   -0.0003 H       1  LIG1        0.1651
      7 H           2.3167   -0.8373    0.0007 H       1  LIG1        0.0819
      8 C           1.4918    2.0164   -0.0003 C.1     1  LIG1       -0.0678
      9 C           2.2072    2.9814   -0.0001 C.1     1  LIG1       -0.1139
     10 H           2.8444    3.8409    0.0000 H       1  LIG1        0.1232
     11 N          -2.1652    2.9444    0.0016 N.pl3   1  LIG1       -0.2335
     12 C          -1.4853    2.0212    0.0010 C.3     1  LIG1        0.1403
     13 C          -2.3194   -0.8299   -0.0001 C.3     1  LIG1        0.1371
     14 C          -3.5353   -0.2219   -0.0003 C.2     1  LIG1        0.0347
     15 C          -4.5290   -1.2530    0.0012 C.2     1  LIG1        0.0153
     16 C          -3.8767   -2.4457    0.0005 C.2     1  LIG1        0.0430
     17 N          -2.5238   -2.1913    0.0002 N.pl3   1  LIG1       -0.3276
     18 H          -1.8081   -2.8811   -0.0004 H       1  LIG1        0.1472
     19 C          -3.7520    1.0599   -0.0003 C.1     1  LIG1       -0.0966
     20 C          -3.9522    2.2443   -0.0003 C.2     1  LIG1        0.0548
     21 H          -4.1306    3.2993   -0.0002 H       1  LIG1        0.0888
     22 N          -6.9548   -0.9344    0.0036 N.pl3   1  LIG1       -0.2335
     23 C          -5.8179   -1.0837    0.0025 C.3     1  LIG1        0.1398
     24 C          -4.3398   -3.6604    0.0012 C.3     1  LIG1        0.1357
     25 C          -5.6206   -4.1160    0.0013 C.2     1  LIG1        0.0468
     26 C          -5.5655   -5.5470    0.0033 C.2     1  LIG1        0.0879
     27 C          -4.2535   -5.9029    0.0026 C.2     1  LIG1        0.0715
     28 N          -3.4996   -4.7510    0.0018 N.pl3   1  LIG1       -0.3241
     29 H          -2.5064   -4.7127    0.0010 H       1  LIG1        0.1475
     30 C          -6.6951   -3.3843    0.0012 C.1     1  LIG1       -0.0957
     31 C          -7.6879   -2.7082    0.0012 C.2     1  LIG1        0.0549
     32 H          -8.5723   -2.1059    0.0011 H       1  LIG1        0.0888
     33 N          -7.4758   -7.0756    0.0065 N.1     1  LIG1       -0.1908
     34 C          -6.5805   -6.3592    0.0050 C.1     1  LIG1        0.1020
     35 C          -3.6983   -7.0784    0.0036 C.ar    1  LIG1        0.0785
     36 C          -2.3863   -7.4341    0.0038 C.ar    1  LIG1        0.0685
     37 C          -2.3311   -8.8651    0.0062 C.ar    1  LIG1        0.0850
     38 C          -3.6119   -9.3208    0.0056 C.ar    1  LIG1        0.0209
     39 N          -4.4521   -8.2303    0.0045 N.ar    1  LIG1       -0.3575
     40 H          -5.4454   -8.2686    0.0038 H       1  LIG1        0.1654
     41 H          -4.0750  -10.5356    0.0070 H       1  LIG1        0.0820
     42 C          -1.3713   -6.6219    0.0035 C.1     1  LIG1       -0.0662
     43 C          -0.4334   -5.8714    0.0032 C.1     1  LIG1       -0.1138
     44 H           0.4021   -5.2029    0.0029 H       1  LIG1        0.1232
     45 N          -0.3089  -10.2422    0.0098 N.1     1  LIG1       -0.1908
     46 C          -1.2566   -9.5968    0.0081 C.1     1  LIG1        0.1019
@<TRIPOS>BOND
     1     2     8    1
     2     2     1   ar
     3     2     3   ar
     4    18    17    1
     5    14    19    2
     6    14    13    1
     7    14    15    1
     8     4    13    1
     9     4     5   ar
    10     4     3   ar
    11     6     5    1
    12     8     9    3
    13    19    20    2
    14    20    21    1
    15    20    11    1
    16     9    10    1
    17    13    17    1
    18     5     1   ar
    19    17    16    1
    20     1     7    1
    21     3    12    1
    22    16    15    2
    23    16    24    1
    24    29    28    1
    25    12    11    1
    26    32    31    1
    27    31    30    2
    28    31    22    1
    29    15    23    1
    30    24    25    1
    31    24    28    1
    32    30    25    2
    33    25    26    1
    34    28    27    1
    35    23    22    1
    36    27    26    2
    37    27    35    1
    38    44    43    1
    39    43    42    3
    40    26    34    1
    41    42    36    1
    42    35    36   ar
    43    35    39   ar
    44    40    39    1
    45    36    37   ar
    46    39    38   ar
    47    34    33    3
    48    38    37   ar
    49    38    41    1
    50    37    46    1
    51    46    45    3
