@<TRIPOS>MOLECULE
mol_data/noopt/geoms/mol2/13ee12ld-12ea6ld-.out
 49 51 0 0 0
SMALL
GASTEIGER

@<TRIPOS>ATOM
      1 C           1.1215   -0.3259    0.0002 C.2     1  LIG1        0.0070
      2 C           0.7176    0.9721   -0.0005 C.2     1  LIG1        0.0515
      3 C          -0.7144    0.9744    0.0003 C.2     1  LIG1        0.0442
      4 C          -1.1226   -0.3223   -0.0003 C.3     1  LIG1        0.1608
      5 N          -0.0018   -1.1217    0.0001 N.pl3   1  LIG1       -0.3301
      6 H          -0.0034   -2.1157   -0.0003 H       1  LIG1        0.1469
      7 H           2.3167   -0.8373    0.0007 H       1  LIG1        0.0791
      8 C           1.4918    2.0164   -0.0003 C.1     1  LIG1       -0.0675
      9 C           2.2072    2.9814   -0.0001 C.1     1  LIG1       -0.1138
     10 H           2.8444    3.8409    0.0000 H       1  LIG1        0.1232
     11 C          -1.4853    2.0212    0.0010 C.1     1  LIG1       -0.1201
     12 C          -2.1976    2.9884    0.0016 C.2     1  LIG1       -0.0558
     13 H          -2.8321    3.8500    0.0022 H       1  LIG1        0.0622
     14 C          -2.3194   -0.8299   -0.0001 C.ar    1  LIG1        0.1848
     15 C          -3.6025   -0.3232    0.0001 C.ar    1  LIG1        0.2402
     16 C          -4.4979   -1.4613    0.0002 C.ar    1  LIG1        0.1475
     17 C          -3.7022   -2.5884    0.0001 C.ar    1  LIG1        0.1926
     18 O          -2.3550   -2.2250   -0.0002 O.2     1  LIG1       -0.4486
     19 O          -3.9649    0.9253    0.0001 O.3     1  LIG1       -0.2828
     20 C          -2.8034    1.7595    0.0001 C.3     2  LIG2       -0.0531
     21 H          -3.1022    2.7869   -0.0000 H       1  LIG1        0.0622
     22 H          -2.2195    1.5579    0.8738 H       1  LIG1        0.0265
     23 H          -2.2195    1.5578   -0.8735 H       1  LIG1        0.0265
     24 N          -6.9421   -1.3525    0.0006 N.1     1  LIG1       -0.1906
     25 C          -5.7966   -1.4035    0.0004 C.1     1  LIG1        0.1070
     26 C          -3.9132   -3.8712    0.0002 C.ar    1  LIG1        0.1873
     27 C          -5.0274   -4.6845    0.0003 C.ar    1  LIG1        0.0741
     28 C          -4.5445   -6.0497    0.0004 C.ar    1  LIG1        0.0005
     29 C          -3.1665   -5.9800    0.0003 C.ar    1  LIG1        0.1422
     30 O          -2.7533   -4.6473    0.0001 O.2     1  LIG1       -0.4502
     31 C          -6.2762   -4.3232    0.0004 C.1     1  LIG1       -0.0657
     32 C          -7.4301   -3.9894    0.0005 C.1     1  LIG1       -0.1138
     33 H          -8.4579   -3.6920    0.0005 H       1  LIG1        0.1232
     34 H          -5.2877   -7.1162    0.0005 H       1  LIG1        0.0668
     35 C          -0.8572   -6.4102   -0.0206 C.ar    1  LIG1        0.2255
     36 C          -2.1954   -6.8442    0.0003 C.ar    1  LIG1        0.0799
     37 C          -2.4509   -8.2165    0.0214 C.ar    1  LIG1       -0.0271
     38 C          -1.3712   -9.1012    0.0206 C.ar    1  LIG1        0.0707
     39 C          -0.0683   -8.5706   -0.0015 C.ar    1  LIG1        0.0488
     40 N           0.1964   -7.2497   -0.0218 N.ar    1  LIG1       -0.2194
     41 H          -3.4835   -8.5931    0.0371 H       1  LIG1        0.0640
     42 H           0.9693   -9.3538   -0.0031 H       1  LIG1        0.0844
     43 O          -0.5688   -5.1427   -0.0406 O.3     1  LIG1       -0.4792
     44 C           0.8515   -4.9765   -0.0480 C.3     1  LIG1        0.0804
     45 H           1.0885   -3.9332   -0.0645 H       1  LIG1        0.0660
     46 H           1.2674   -5.4228    0.8312 H       1  LIG1        0.0660
     47 H           1.2614   -5.4492   -0.9159 H       1  LIG1        0.0660
     48 N          -1.7200  -11.5226    0.0561 N.1     1  LIG1       -0.1908
     49 C          -1.5565  -10.3878    0.0395 C.1     1  LIG1        0.1007
@<TRIPOS>BOND
     1    47    44    1
     2    23    20    1
     3    45    44    1
     4    44    43    1
     5    44    46    1
     6    43    35    1
     7    40    35   ar
     8    40    39   ar
     9    35    36   ar
    10    42    39    1
    11    39    38   ar
    12     2     8    1
    13     2     1    2
    14     2     3    1
    15     4    14    1
    16     4     5    1
    17     4     3    1
    18     6     5    1
    19     8     9    3
    20    18    14   ar
    21    18    17   ar
    22     9    10    1
    23    14    15   ar
    24    21    12    1
    25    15    19    1
    26    15    16   ar
    27    30    26   ar
    28    30    29   ar
    29    20    22    1
    30     5     1    1
    31    17    26    1
    32    17    16   ar
    33     1     7    1
    34    26    27   ar
    35    16    25    1
    36    29    36    1
    37    29    28   ar
    38    27    31    1
    39    27    28   ar
    40     3    11    2
    41    36    37   ar
    42    31    32    3
    43    28    34    1
    44    25    24    3
    45    32    33    1
    46    11    12    2
    47    12    13    1
    48    38    37   ar
    49    38    49    1
    50    37    41    1
    51    49    48    3
