@<TRIPOS>MOLECULE
mol_data/noopt/geoms/mol2/13ee13ee-4ee13ee.out
 52 54 0 0 0
SMALL
GASTEIGER

@<TRIPOS>ATOM
      1 C           1.1215   -0.3259    0.0002 C.ar    1  LIG1        0.0180
      2 C           0.7176    0.9721   -0.0005 C.ar    1  LIG1        0.0464
      3 C          -0.7144    0.9744    0.0003 C.ar    1  LIG1        0.0036
      4 C          -1.1226   -0.3223   -0.0003 C.ar    1  LIG1        0.0692
      5 N          -0.0018   -1.1217    0.0001 N.ar    1  LIG1       -0.3581
      6 H          -0.0034   -2.1157   -0.0003 H       1  LIG1        0.1654
      7 H           2.3167   -0.8373    0.0007 H       1  LIG1        0.0819
      8 C           1.4918    2.0164   -0.0003 C.1     1  LIG1       -0.0679
      9 C           2.2072    2.9814   -0.0001 C.1     1  LIG1       -0.1139
     10 H           2.8444    3.8409    0.0000 H       1  LIG1        0.1232
     11 C          -1.4853    2.0212    0.0010 C.3     1  LIG1        0.0333
     12 C          -2.1976    2.9884    0.0016 C.3     2  LIG2       -0.0309
     13 H          -2.8321    3.8500    0.0022 H       1  LIG1        0.0309
     14 C          -2.3194   -0.8299   -0.0001 C.ar    1  LIG1        0.0804
     15 C          -2.7274   -2.1266   -0.0005 C.ar    1  LIG1        0.0673
     16 C          -4.1594   -2.1244    0.0011 C.ar    1  LIG1        0.0659
     17 C          -4.5635   -0.8264    0.0006 C.ar    1  LIG1        0.0650
     18 N          -3.4402   -0.0305    0.0003 N.ar    1  LIG1       -0.3510
     19 H          -3.4386    0.9635   -0.0001 H       1  LIG1        0.1660
     20 C          -1.9565   -3.1734   -0.0006 C.1     1  LIG1       -0.0662
     21 C          -1.2442   -4.1406   -0.0007 C.1     1  LIG1       -0.1138
     22 H          -0.6097   -5.0022   -0.0008 H       1  LIG1        0.1232
     23 C          -4.9336   -3.1687    0.0023 C.1     1  LIG1       -0.0663
     24 C          -5.6490   -4.1337    0.0035 C.1     1  LIG1       -0.1138
     25 H          -6.2862   -4.9932    0.0045 H       1  LIG1        0.1232
     26 C          -5.9236    1.0852    0.0026 C.ar    1  LIG1        0.0345
     27 C          -7.2385    1.5895    0.0050 C.ar    1  LIG1       -0.0354
     28 C          -5.7587   -0.3150    0.0014 C.ar    1  LIG1        0.0161
     29 C          -8.3419    0.7391    0.0056 C.ar    1  LIG1        0.0161
     30 H          -7.3885    2.6668    0.0062 H       1  LIG1        0.0637
     31 C          -6.8598   -1.1644    0.0020 C.ar    1  LIG1       -0.0354
     32 C          -8.1582   -0.6442    0.0040 C.ar    1  LIG1        0.0345
     33 H          -6.7065   -2.2406    0.0011 H       1  LIG1        0.0637
     34 C          -4.9343    1.9285    0.0020 C.1     1  LIG1       -0.0690
     35 C          -4.0201    2.7078    0.0013 C.1     1  LIG1       -0.1139
     36 H          -3.2058    3.4019    0.0008 H       1  LIG1        0.1232
     37 C          -9.1838   -1.4431    0.0046 C.1     1  LIG1       -0.0690
     38 C         -10.1314   -2.1813    0.0053 C.1     1  LIG1       -0.1139
     39 H         -10.9755   -2.8388    0.0058 H       1  LIG1        0.1232
     40 C          -9.5420    1.2389    0.0077 C.ar    1  LIG1        0.0645
     41 C          -9.9585    2.5329    0.0088 C.ar    1  LIG1        0.0653
     42 C         -11.3904    2.5213    0.0122 C.ar    1  LIG1        0.0579
     43 C         -11.7860    1.2207    0.0113 C.ar    1  LIG1        0.0188
     44 N         -10.6575    0.4322    0.0090 N.ar    1  LIG1       -0.3585
     45 H         -10.6495   -0.5617    0.0079 H       1  LIG1        0.1654
     46 H         -12.9778    0.7015    0.0134 H       1  LIG1        0.0820
     47 C          -9.1944    3.5847    0.0084 C.1     1  LIG1       -0.0663
     48 C          -8.4884    4.5565    0.0080 C.1     1  LIG1       -0.1138
     49 H          -7.8596    5.4222    0.0077 H       1  LIG1        0.1232
     50 C         -12.1714    3.5606    0.0152 C.1     1  LIG1       -0.0669
     51 C         -12.8930    4.5208    0.0179 C.1     1  LIG1       -0.1138
     52 H         -13.5359    5.3762    0.0203 H       1  LIG1        0.1232
@<TRIPOS>BOND
     1    22    21    1
     2    21    20    3
     3    20    15    1
     4     2     8    1
     5     2     1   ar
     6     2     3   ar
     7    15    14   ar
     8    15    16   ar
     9     4    14    1
    10     4     5   ar
    11     4     3   ar
    12     6     5    1
    13     8     9    3
    14    19    18    1
    15     9    10    1
    16    14    18   ar
    17     5     1   ar
    18     1     7    1
    19     3    11    1
    20    18    17   ar
    21    17    16   ar
    22    17    28    1
    23    36    35    1
    24    16    23    1
    25    33    31    1
    26    35    34    3
    27    28    31   ar
    28    28    26   ar
    29    12    13    1
    30    34    26    1
    31    31    32   ar
    32    23    24    3
    33    26    27   ar
    34    24    25    1
    35    32    37    1
    36    32    29   ar
    37    37    38    3
    38    27    29   ar
    39    27    30    1
    40    38    39    1
    41    29    40    1
    42    49    48    1
    43    40    41   ar
    44    40    44   ar
    45    45    44    1
    46    48    47    3
    47    47    41    1
    48    41    42   ar
    49    44    43   ar
    50    43    42   ar
    51    43    46    1
    52    42    50    1
    53    50    51    3
    54    51    52    1
