@<TRIPOS>MOLECULE
mol_data/noopt/geoms/mol2/13ee13ee13ee-13ee-.out
 50 55 0 0 0
SMALL
GASTEIGER

@<TRIPOS>ATOM
      1 C           1.1215   -0.3259    0.0002 C.ar    1  LIG1        0.0189
      2 C           0.7176    0.9721   -0.0005 C.ar    1  LIG1        0.0574
      3 C          -0.7144    0.9744    0.0003 C.ar    1  LIG1        0.0591
      4 C          -1.1226   -0.3223   -0.0003 C.ar    1  LIG1        0.0803
      5 N          -0.0018   -1.1217    0.0001 N.ar    1  LIG1       -0.3574
      6 H          -0.0034   -2.1157   -0.0003 H       1  LIG1        0.1654
      7 H           2.3167   -0.8373    0.0007 H       1  LIG1        0.0820
      8 C           1.4918    2.0164   -0.0003 C.1     1  LIG1       -0.0669
      9 C           2.2072    2.9814   -0.0001 C.1     1  LIG1       -0.1138
     10 H           2.8444    3.8409    0.0000 H       1  LIG1        0.1232
     11 C          -1.4853    2.0212    0.0010 C.1     1  LIG1       -0.1080
     12 C          -2.1976    2.9884    0.0016 C.2     1  LIG1       -0.0112
     13 H          -2.8321    3.8500    0.0022 H       1  LIG1        0.0712
     14 C          -2.3194   -0.8299   -0.0001 C.ar    1  LIG1        0.0808
     15 C          -3.5353   -0.2219   -0.0003 C.ar    1  LIG1        0.0598
     16 C          -4.5290   -1.2530    0.0012 C.ar    1  LIG1        0.0668
     17 C          -3.8767   -2.4457    0.0005 C.ar    1  LIG1        0.0814
     18 N          -2.5238   -2.1913    0.0002 N.ar    1  LIG1       -0.3499
     19 H          -1.8081   -2.8811   -0.0004 H       1  LIG1        0.1661
     20 C          -3.7520    1.0599   -0.0003 C.1     1  LIG1       -0.1080
     21 C          -3.9522    2.2443   -0.0003 C.2     1  LIG1       -0.0112
     22 H          -4.1306    3.2993   -0.0002 H       1  LIG1        0.0712
     23 C          -5.8179   -1.0837    0.0025 C.1     1  LIG1       -0.0663
     24 C          -7.0089   -0.9273    0.0037 C.1     1  LIG1       -0.1138
     25 H          -8.0698   -0.7879    0.0048 H       1  LIG1        0.1232
     26 C          -4.3398   -3.6604    0.0012 C.ar    1  LIG1        0.0814
     27 C          -3.6874   -4.8530    0.0012 C.ar    1  LIG1        0.0668
     28 C          -4.6811   -5.8841    0.0032 C.ar    1  LIG1        0.0598
     29 C          -5.8970   -5.2763    0.0027 C.ar    1  LIG1        0.0808
     30 N          -5.6927   -3.9149    0.0019 N.ar    1  LIG1       -0.3499
     31 H          -6.4084   -3.2251    0.0013 H       1  LIG1        0.1661
     32 C          -2.3984   -5.0223    0.0009 C.1     1  LIG1       -0.0663
     33 C          -1.2075   -5.1787    0.0007 C.1     1  LIG1       -0.1138
     34 H          -0.1466   -5.3180    0.0005 H       1  LIG1        0.1232
     35 C          -4.4643   -7.1660    0.0049 C.1     1  LIG1       -0.1080
     36 C          -4.2641   -8.3503    0.0064 C.2     1  LIG1       -0.0112
     37 H          -4.0857   -9.4054    0.0077 H       1  LIG1        0.0712
     38 C          -7.0939   -5.7839    0.0038 C.ar    1  LIG1        0.0803
     39 C          -7.5019   -7.0806    0.0041 C.ar    1  LIG1        0.0591
     40 C          -8.9339   -7.0784    0.0067 C.ar    1  LIG1        0.0574
     41 C          -9.3380   -5.7804    0.0061 C.ar    1  LIG1        0.0189
     42 N          -8.2146   -4.9846    0.0048 N.ar    1  LIG1       -0.3574
     43 H          -8.2131   -3.9906    0.0040 H       1  LIG1        0.1654
     44 H         -10.5331   -5.2690    0.0075 H       1  LIG1        0.0820
     45 C          -6.7310   -8.1274    0.0038 C.1     1  LIG1       -0.1080
     46 C          -6.0187   -9.0946    0.0034 C.2     1  LIG1       -0.0112
     47 H          -5.3842   -9.9562    0.0032 H       1  LIG1        0.0712
     48 C          -9.7081   -8.1227    0.0087 C.1     1  LIG1       -0.0669
     49 C         -10.4234   -9.0877    0.0106 C.1     1  LIG1       -0.1138
     50 H         -11.0606   -9.9472    0.0122 H       1  LIG1        0.1232
@<TRIPOS>BOND
     1     2     8    1
     2     2     1   ar
     3     2     3   ar
     4    19    18    1
     5    15    20    2
     6    15    14   ar
     7    15    16   ar
     8     4    14    2
     9     4     5   ar
    10     4     3   ar
    11     6     5    1
    12     8     9    3
    13    20    21    2
    14    21    22    1
    15    21    12    1
    16     9    10    1
    17    14    18   ar
    18     5     1   ar
    19    18    17   ar
    20     1     7    1
    21     3    11    2
    22    34    33    1
    23    17    16   ar
    24    17    26    1
    25    33    32    3
    26    32    27    1
    27    11    12    2
    28    27    26   ar
    29    27    28   ar
    30    16    23    1
    31    26    30   ar
    32    31    30    1
    33    12    13    1
    34    30    29   ar
    35    23    24    3
    36    29    28   ar
    37    29    38    2
    38    47    46    1
    39    28    35    2
    40    46    45    2
    41    46    36    1
    42    24    25    1
    43    45    39    2
    44    38    39   ar
    45    38    42   ar
    46    43    42    1
    47    39    40   ar
    48    42    41   ar
    49    35    36    2
    50    41    40   ar
    51    41    44    1
    52    36    37    1
    53    40    48    1
    54    48    49    3
    55    49    50    1
