@<TRIPOS>MOLECULE
mol_data/noopt/geoms/mol2/13ee6li(160)12dd(190)13ee(30).out
 51 50 0 0 0
SMALL
GASTEIGER

@<TRIPOS>ATOM
      1 C           1.1215   -0.3259    0.0002 C.2     1  LIG1       -0.0028
      2 C           0.7176    0.9721   -0.0005 C.3     1  LIG1        0.1100
      3 C          -0.7144    0.9744    0.0003 C.3     2  LIG2        0.0000
      4 C          -1.1226   -0.3223   -0.0003 C.3     1  LIG1        0.1279
      5 N          -0.0018   -1.1217    0.0001 N.2     1  LIG1       -0.3782
      6 H          -0.0034   -2.1157   -0.0003 H       1  LIG1        0.1599
      7 H           2.3167   -0.8373    0.0007 H       1  LIG1        0.0773
      8 C           1.4918    2.0164   -0.0003 C.1     1  LIG1       -0.0894
      9 C           2.2072    2.9814   -0.0001 C.1     1  LIG1       -0.1181
     10 H           2.8444    3.8409    0.0000 H       1  LIG1        0.1228
     11 C          -1.4853    2.0212    0.0010 C.3     2  LIG2       -0.0309
     12 C          -2.1976    2.9884    0.0016 C.3     2  LIG2       -0.0309
     13 H          -2.8321    3.8500    0.0022 H       2  LIG2        0.0309
     14 C          -3.4196   -0.0574   -0.4150 C.2     1  LIG1        0.2657
     15 C          -2.3194   -0.8299   -0.0001 C.2     1  LIG1        0.0439
     16 C          -2.5448   -2.1457    0.4083 C.2     1  LIG1       -0.0607
     17 C          -3.8497   -2.6411    0.3890 C.3     1  LIG1        0.0444
     18 C          -4.8845   -1.7910   -0.0424 C.2     1  LIG1        0.0886
     19 N          -4.6849   -0.5192   -0.4400 N.am    1  LIG1       -0.1767
     20 H          -1.7101   -2.7793    0.7401 H       1  LIG1        0.0587
     21 O          -3.2602    1.1728   -0.8043 O.2     1  LIG1       -0.2683
     22 C          -1.8648    1.4511   -0.9472 C.3     3  LIG3       -0.0531
     23 H          -1.7341    2.4636   -1.2677 H       3  LIG3        0.0265
     24 H          -1.3745    1.3086   -0.0069 H       2  LIG2        0.0309
     25 H          -1.4418    0.7895   -1.6739 H       3  LIG3        0.0265
     26 C          -4.1117   -3.8596    0.7599 C.3     1  LIG1       -0.0495
     27 H          -3.2993   -4.2368    1.3451 H       1  LIG1        0.0242
     28 H          -4.2440   -4.4751   -0.1054 H       1  LIG1        0.0242
     29 H          -5.0075   -3.8695    1.3450 H       1  LIG1        0.0242
     30 C          -6.1158   -2.2064   -0.0782 C.ar    1  LIG1        0.1670
     31 C          -6.7377   -3.4253   -0.2528 C.ar    1  LIG1        0.1164
     32 C          -8.1627   -3.1779   -0.1812 C.ar    1  LIG1        0.1169
     33 C          -8.3171   -1.8236    0.0326 C.ar    1  LIG1        0.1716
     34 O          -7.0692   -1.2030    0.1000 O.2     1  LIG1       -0.4496
     35 N          -5.6864   -5.6045   -0.6157 N.1     1  LIG1       -0.1907
     36 C          -6.1791   -4.5832   -0.4457 C.1     1  LIG1        0.1043
     37 N          -9.9164   -4.8694   -0.4029 N.1     1  LIG1       -0.1907
     38 C          -9.0945   -4.0767   -0.2990 C.1     1  LIG1        0.1043
     39 C          -9.3269   -1.0185    0.1811 C.ar    1  LIG1        0.1002
     40 C          -9.3991    0.2076    0.7636 C.ar    1  LIG1        0.0683
     41 C         -10.7552    0.6542    0.6537 C.ar    1  LIG1        0.0580
     42 C         -11.4518   -0.3180    0.0073 C.ar    1  LIG1        0.0189
     43 N         -10.5812   -1.3441   -0.2834 N.ar    1  LIG1       -0.3561
     44 H         -10.8203   -2.1861   -0.7545 H       1  LIG1        0.1655
     45 H         -12.7069   -0.3765   -0.3262 H       1  LIG1        0.0820
     46 C          -8.4160    0.8523    1.3186 C.1     1  LIG1       -0.0662
     47 C          -7.5077    1.4480    1.8315 C.1     1  LIG1       -0.1138
     48 H          -6.6986    1.9786    2.2883 H       1  LIG1        0.1232
     49 C         -11.2354    1.7808    1.0898 C.1     1  LIG1       -0.0669
     50 C         -11.6790    2.8218    1.4928 C.1     1  LIG1       -0.1138
     51 H         -12.0742    3.7491    1.8517 H       1  LIG1        0.1232
@<TRIPOS>BOND
     1    25    22    1
     2    23    22    1
     3    21    14    2
     4    44    43    1
     5    35    36    3
     6    36    31    1
     7    19    14    1
     8    19    18    2
     9    14    15    1
    10    37    38    3
    11    45    42    1
    12    38    32    1
    13    43    42   ar
    14    43    39   ar
    15    31    32   ar
    16    31    30   ar
    17    32    33   ar
    18    28    26    1
    19    30    18    1
    20    30    34   ar
    21    18    17    1
    22    24    11    1
    23     2     8    1
    24     2     1    1
    25     8     9    3
    26     6     5    1
    27     4    15    1
    28     4     5    1
    29     9    10    1
    30    15    16    2
    31     5     1    2
    32     1     7    1
    33    11    12    1
    34    12    13    1
    35    42    41   ar
    36    33    34   ar
    37    33    39    1
    38    39    40   ar
    39    17    16    1
    40    17    26    1
    41    16    20    1
    42    41    40   ar
    43    41    49    1
    44    26    29    1
    45    26    27    1
    46    40    46    1
    47    49    50    3
    48    46    47    3
    49    50    51    1
    50    47    48    1
