@<TRIPOS>MOLECULE
mol_data/noopt/geoms/mol2/13ee4ad-4ea-12he-.out
 48 51 0 0 0
SMALL
GASTEIGER

@<TRIPOS>ATOM
      1 C           1.1215   -0.3259    0.0002 C.ar    1  LIG1        0.0188
      2 C           0.7176    0.9721   -0.0005 C.ar    1  LIG1        0.0579
      3 C          -0.7144    0.9744    0.0003 C.ar    1  LIG1        0.0652
      4 C          -1.1226   -0.3223   -0.0003 C.ar    1  LIG1        0.0633
      5 N          -0.0018   -1.1217    0.0001 N.ar    1  LIG1       -0.3585
      6 H          -0.0034   -2.1157   -0.0003 H       1  LIG1        0.1654
      7 H           2.3167   -0.8373    0.0007 H       1  LIG1        0.0820
      8 C           1.4918    2.0164   -0.0003 C.1     1  LIG1       -0.0669
      9 C           2.2072    2.9814   -0.0001 C.1     1  LIG1       -0.1138
     10 H           2.8444    3.8409    0.0000 H       1  LIG1        0.1232
     11 C          -1.4853    2.0212    0.0010 C.1     1  LIG1       -0.0663
     12 C          -2.1976    2.9884    0.0016 C.1     1  LIG1       -0.1138
     13 H          -2.8321    3.8500    0.0022 H       1  LIG1        0.1232
     14 C          -3.4433    0.0211    0.0221 C.ar    1  LIG1       -0.0519
     15 C          -4.7179   -0.5778    0.0229 C.ar    1  LIG1       -0.0521
     16 C          -2.3194   -0.8299   -0.0001 C.ar    1  LIG1        0.0008
     17 C          -4.8691   -1.9625    0.0019 C.ar    1  LIG1        0.0007
     18 H          -5.5986    0.0603    0.0400 H       1  LIG1        0.0624
     19 C          -2.4698   -2.2123   -0.0211 C.ar    1  LIG1       -0.0346
     20 C          -3.7445   -2.7882   -0.0203 C.ar    1  LIG1        0.0601
     21 H          -1.5876   -2.8471   -0.0379 H       1  LIG1        0.0637
     22 H          -3.3660    1.3186    0.0420 H       1  LIG1        0.0624
     23 N          -3.9975   -5.2214   -0.0570 N.1     1  LIG1       -0.1908
     24 C          -3.8789   -4.0811   -0.0398 C.1     1  LIG1        0.0998
     25 C          -7.1930   -1.6417    0.0260 C.ar    1  LIG1        0.0331
     26 C          -8.4618   -2.2529    0.0279 C.ar    1  LIG1       -0.0350
     27 C          -6.0609   -2.4817    0.0032 C.ar    1  LIG1       -0.0012
     28 C          -8.5996   -3.6390    0.0075 C.ar    1  LIG1        0.0203
     29 H          -9.3487   -1.6234    0.0456 H       1  LIG1        0.0637
     30 C          -6.1979   -3.8655   -0.0172 C.ar    1  LIG1       -0.0522
     31 C          -7.4670   -4.4537   -0.0153 C.ar    1  LIG1       -0.0504
     32 H          -5.3096   -4.4917   -0.0345 H       1  LIG1        0.0624
     33 C          -7.1283   -0.3434    0.0454 C.1     1  LIG1       -0.0690
     34 C          -7.0685    0.8561    0.0634 C.1     1  LIG1       -0.1139
     35 H          -7.0152    1.9247    0.0794 H       1  LIG1        0.1232
     36 H          -7.5889   -5.7479   -0.0342 H       1  LIG1        0.0625
     37 C          -9.7863   -4.1697    0.0099 C.ar    1  LIG1        0.1566
     38 C         -11.0790   -3.6881    0.0117 C.ar    1  LIG1        0.0865
     39 C         -11.9521   -4.8433    0.0140 C.ar    1  LIG1        0.0836
     40 C         -11.1346   -5.9548    0.0133 C.ar    1  LIG1        0.1098
     41 O          -9.7948   -5.5653    0.0107 O.2     1  LIG1       -0.4598
     42 H         -11.3207   -7.2414    0.0146 H       1  LIG1        0.1043
     43 N         -11.4656   -2.4469    0.0115 N.pl3   1  LIG1       -0.3541
     44 H         -10.7852   -1.8859   -0.4600 H       1  LIG1        0.1425
     45 H         -12.3442   -2.3715   -0.4600 H       1  LIG1        0.1425
     46 C         -13.2517   -4.8108    0.0161 C.1     1  LIG1       -0.0646
     47 C         -14.4525   -4.7807    0.0181 C.1     1  LIG1       -0.1138
     48 H         -15.5222   -4.7540    0.0198 H       1  LIG1        0.1232
@<TRIPOS>BOND
     1    45    43    1
     2    44    43    1
     3    23    24    3
     4    24    20    1
     5    21    19    1
     6    32    30    1
     7    36    31    1
     8    19    20   ar
     9    19    16   ar
    10    20    17   ar
    11    30    31   ar
    12    30    27   ar
    13    31    28   ar
    14     2     8    1
    15     2     1   ar
    16     2     3   ar
    17     8     9    3
    18     4    16    1
    19     4     5   ar
    20     4     3   ar
    21     6     5    1
    22     9    10    1
    23    16    14   ar
    24     5     1   ar
    25     1     7    1
    26     3    11    1
    27    11    12    3
    28    12    13    1
    29    17    27    1
    30    17    15   ar
    31    27    25   ar
    32    28    37    1
    33    28    26   ar
    34    37    41   ar
    35    37    38   ar
    36    41    40   ar
    37    43    38    1
    38    38    39   ar
    39    40    39   ar
    40    40    42    1
    41    39    46    1
    42    46    47    3
    43    47    48    1
    44    14    15   ar
    45    14    22    1
    46    15    18    1
    47    25    26   ar
    48    25    33    1
    49    26    29    1
    50    33    34    3
    51    34    35    1
