@<TRIPOS>MOLECULE
mol_data/noopt/geoms/mol2/13ee13ee13ee.out
 38 42 0 0 0
SMALL
GASTEIGER

@<TRIPOS>ATOM
      1 C           1.1215   -0.3259    0.0002 C.ar    1  LIG1        0.0189
      2 C           0.7176    0.9721   -0.0005 C.ar    1  LIG1        0.0574
      3 C          -0.7144    0.9744    0.0003 C.ar    1  LIG1        0.0591
      4 C          -1.1226   -0.3223   -0.0003 C.ar    1  LIG1        0.0803
      5 N          -0.0018   -1.1217    0.0001 N.ar    1  LIG1       -0.3574
      6 H          -0.0034   -2.1157   -0.0003 H       1  LIG1        0.1654
      7 H           2.3167   -0.8373    0.0007 H       1  LIG1        0.0820
      8 C           1.4918    2.0164   -0.0003 C.1     1  LIG1       -0.0669
      9 C           2.2072    2.9814   -0.0001 C.1     1  LIG1       -0.1138
     10 H           2.8444    3.8409    0.0000 H       1  LIG1        0.1232
     11 C          -1.4853    2.0212    0.0010 C.1     1  LIG1       -0.1080
     12 C          -2.1976    2.9884    0.0016 C.2     1  LIG1       -0.0112
     13 H          -2.8321    3.8500    0.0022 H       1  LIG1        0.0712
     14 C          -2.3194   -0.8299   -0.0001 C.ar    1  LIG1        0.0807
     15 C          -3.5353   -0.2219   -0.0003 C.ar    1  LIG1        0.0592
     16 C          -4.5290   -1.2530    0.0012 C.ar    1  LIG1        0.0592
     17 C          -3.8767   -2.4457    0.0005 C.ar    1  LIG1        0.0807
     18 N          -2.5238   -2.1913    0.0002 N.ar    1  LIG1       -0.3499
     19 H          -1.8081   -2.8811   -0.0004 H       1  LIG1        0.1661
     20 C          -3.7520    1.0599   -0.0003 C.1     1  LIG1       -0.1080
     21 C          -3.9522    2.2443   -0.0003 C.2     1  LIG1       -0.0112
     22 H          -4.1306    3.2993   -0.0002 H       1  LIG1        0.0712
     23 C          -5.8179   -1.0837    0.0025 C.1     1  LIG1       -0.1080
     24 C          -7.0089   -0.9273    0.0037 C.2     1  LIG1       -0.0112
     25 H          -8.0698   -0.7879    0.0048 H       1  LIG1        0.0712
     26 C          -4.3398   -3.6604    0.0012 C.ar    1  LIG1        0.0803
     27 C          -5.6206   -4.1160    0.0013 C.ar    1  LIG1        0.0591
     28 C          -5.5655   -5.5470    0.0033 C.ar    1  LIG1        0.0574
     29 C          -4.2535   -5.9029    0.0026 C.ar    1  LIG1        0.0189
     30 N          -3.4996   -4.7510    0.0018 N.ar    1  LIG1       -0.3574
     31 H          -2.5064   -4.7127    0.0010 H       1  LIG1        0.1654
     32 H          -3.6983   -7.0784    0.0036 H       1  LIG1        0.0820
     33 C          -6.6951   -3.3843    0.0012 C.1     1  LIG1       -0.1080
     34 C          -7.6879   -2.7082    0.0012 C.2     1  LIG1       -0.0112
     35 H          -8.5723   -2.1059    0.0011 H       1  LIG1        0.0712
     36 C          -6.5805   -6.3592    0.0050 C.1     1  LIG1       -0.0669
     37 C          -7.5184   -7.1097    0.0066 C.1     1  LIG1       -0.1138
     38 H          -8.3539   -7.7782    0.0080 H       1  LIG1        0.1232
@<TRIPOS>BOND
     1     2     8    1
     2     2     1   ar
     3     2     3   ar
     4    19    18    1
     5    15    20    2
     6    15    14   ar
     7    15    16   ar
     8     4    14    2
     9     4     5   ar
    10     4     3   ar
    11     6     5    1
    12     8     9    3
    13    20    21    2
    14    21    22    1
    15    21    12    1
    16     9    10    1
    17    14    18   ar
    18     5     1   ar
    19    18    17   ar
    20     1     7    1
    21     3    11    2
    22    17    16   ar
    23    17    26    2
    24    31    30    1
    25    11    12    2
    26    35    34    1
    27    34    33    2
    28    34    24    1
    29    16    23    2
    30    26    27   ar
    31    26    30   ar
    32    33    27    2
    33    27    28   ar
    34    12    13    1
    35    30    29   ar
    36    23    24    2
    37    29    28   ar
    38    29    32    1
    39    28    36    1
    40    24    25    1
    41    36    37    3
    42    37    38    1
