@<TRIPOS>MOLECULE
mol_data/noopt/geoms/mol2/13ee6ld(290)6ah(330)4il(160).out
 56 59 0 0 0
SMALL
GASTEIGER

@<TRIPOS>ATOM
      1 C           1.1215   -0.3259    0.0002 C.ar    1  LIG1        0.0188
      2 C           0.7176    0.9721   -0.0005 C.ar    1  LIG1        0.0579
      3 C          -0.7144    0.9744    0.0003 C.ar    1  LIG1        0.0654
      4 C          -1.1226   -0.3223   -0.0003 C.ar    1  LIG1        0.0684
      5 N          -0.0018   -1.1217    0.0001 N.ar    1  LIG1       -0.3584
      6 H          -0.0034   -2.1157   -0.0003 H       1  LIG1        0.1654
      7 H           2.3167   -0.8373    0.0007 H       1  LIG1        0.0820
      8 C           1.4918    2.0164   -0.0003 C.1     1  LIG1       -0.0669
      9 C           2.2072    2.9814   -0.0001 C.1     1  LIG1       -0.1138
     10 H           2.8444    3.8409    0.0000 H       1  LIG1        0.1232
     11 C          -1.4853    2.0212    0.0010 C.1     1  LIG1       -0.0663
     12 C          -2.1976    2.9884    0.0016 C.1     1  LIG1       -0.1138
     13 H          -2.8321    3.8500    0.0022 H       1  LIG1        0.1232
     14 C          -2.8117   -1.4899    1.1407 C.ar    1  LIG1        0.2245
     15 C          -2.3194   -0.8299   -0.0001 C.ar    1  LIG1        0.0623
     16 C          -3.1435   -0.7348   -1.1230 C.ar    1  LIG1       -0.0280
     17 C          -4.4200   -1.2973   -1.0693 C.ar    1  LIG1        0.0786
     18 C          -4.8223   -1.9375    0.1172 C.ar    1  LIG1        0.0936
     19 N          -4.0403   -2.0381    1.2098 N.ar    1  LIG1       -0.2110
     20 H          -2.7929   -0.2274   -2.0329 H       1  LIG1        0.0639
     21 O          -2.0820   -1.6039    2.2106 O.3     1  LIG1       -0.4792
     22 C          -2.0221   -2.9776    2.6033 C.3     1  LIG1        0.0804
     23 H          -1.4213   -3.0709    3.4838 H       1  LIG1        0.0660
     24 H          -3.0104   -3.3339    2.8065 H       1  LIG1        0.0660
     25 H          -1.5898   -3.5558    1.8136 H       1  LIG1        0.0660
     26 N          -5.9350   -1.1811   -2.9868 N.1     1  LIG1       -0.1908
     27 C          -5.2250   -1.2355   -2.0881 C.1     1  LIG1        0.1013
     28 C          -6.1673   -3.7082    0.8748 C.ar    1  LIG1        0.0376
     29 C          -6.0013   -2.4762    0.2159 C.ar    1  LIG1        0.0216
     30 C          -7.1271   -1.8523   -0.3247 C.ar    1  LIG1       -0.0283
     31 C          -8.3696   -2.4742   -0.1904 C.ar    1  LIG1        0.0515
     32 C          -8.4342   -3.7063    0.4857 C.ar    1  LIG1        0.0919
     33 N          -7.3583   -4.3222    1.0135 N.ar    1  LIG1       -0.2525
     34 H          -7.0363   -0.8896   -0.8474 H       1  LIG1        0.0644
     35 H          -5.1493   -4.3275    1.3945 H       1  LIG1        0.0836
     36 N          -9.4476   -1.9340   -0.6763 N.pl3   1  LIG1       -0.3563
     37 H          -9.2006   -1.1444   -1.2382 H       1  LIG1        0.1424
     38 H          -9.9322   -2.6043   -1.2382 H       1  LIG1        0.1424
     39 C          -9.5885   -5.6437    1.1324 C.ar    1  LIG1       -0.0410
     40 C         -10.8418   -6.2698    1.2759 C.ar    1  LIG1       -0.0548
     41 C          -9.5680   -4.3241    0.6364 C.ar    1  LIG1        0.0085
     42 C         -12.0238   -5.6127    0.9415 C.ar    1  LIG1       -0.0197
     43 H         -10.8804   -7.2879    1.6567 H       1  LIG1        0.0622
     44 C         -10.7477   -3.6676    0.3025 C.ar    1  LIG1       -0.0105
     45 C         -11.9830   -4.3064    0.4525 C.ar    1  LIG1        0.1207
     46 H         -10.7056   -2.6503   -0.0781 H       1  LIG1        0.0661
     47 H         -13.1636   -6.2207    1.0867 H       1  LIG1        0.0654
     48 C          -8.5202   -6.3080    1.4614 C.3     1  LIG1       -0.0391
     49 H          -7.8742   -5.6809    2.0397 H       1  LIG1        0.0278
     50 H          -8.0103   -6.6250    0.5756 H       1  LIG1        0.0278
     51 H          -8.7969   -7.1648    2.0396 H       1  LIG1        0.0278
     52 O         -13.0825   -3.6878    0.1385 O.3     1  LIG1       -0.4951
     53 C         -12.8251   -2.2859    0.0232 C.3     1  LIG1        0.0788
     54 H         -13.7303   -1.7771   -0.2354 H       1  LIG1        0.0660
     55 H         -12.4603   -1.9121    0.9571 H       1  LIG1        0.0660
     56 H         -12.0923   -2.1192   -0.7384 H       1  LIG1        0.0660
@<TRIPOS>BOND
     1    26    27    3
     2    27    17    1
     3    20    16    1
     4    38    36    1
     5    37    36    1
     6    16    17   ar
     7    16    15   ar
     8    17    18   ar
     9    34    30    1
    10    56    53    1
    11    36    31    1
    12    30    31   ar
    13    30    29   ar
    14    54    53    1
    15    31    32   ar
    16    46    44    1
    17     2     8    1
    18     2     1   ar
    19     2     3   ar
    20     4    15    1
    21     4     5   ar
    22     4     3   ar
    23     8     9    3
    24     6     5    1
    25     9    10    1
    26    15    14   ar
    27     5     1   ar
    28     1     7    1
    29     3    11    1
    30    11    12    3
    31    12    13    1
    32    53    52    1
    33    53    55    1
    34    18    29    1
    35    18    19   ar
    36    52    45    1
    37    29    28   ar
    38    44    45   ar
    39    44    41   ar
    40    45    42   ar
    41    32    41    1
    42    32    33   ar
    43    50    48    1
    44    41    39   ar
    45    28    33   ar
    46    28    35    1
    47    42    47    1
    48    42    40   ar
    49    39    40   ar
    50    39    48    1
    51    14    19   ar
    52    14    21    1
    53    40    43    1
    54    48    51    1
    55    48    49    1
    56    25    22    1
    57    21    22    1
    58    22    24    1
    59    22    23    1
