@<TRIPOS>MOLECULE
mol_data/noopt/geoms/mol2/13ee13ee-.out
 26 27 0 0 0
SMALL
GASTEIGER

@<TRIPOS>ATOM
      1 C           1.1215   -0.3259    0.0002 C.ar    1  LIG1        0.0189
      2 C           0.7176    0.9721   -0.0005 C.ar    1  LIG1        0.0580
      3 C          -0.7144    0.9744    0.0003 C.ar    1  LIG1        0.0667
      4 C          -1.1226   -0.3223   -0.0003 C.ar    1  LIG1        0.0809
      5 N          -0.0018   -1.1217    0.0001 N.ar    1  LIG1       -0.3574
      6 H          -0.0034   -2.1157   -0.0003 H       1  LIG1        0.1654
      7 H           2.3167   -0.8373    0.0007 H       1  LIG1        0.0820
      8 C           1.4918    2.0164   -0.0003 C.1     1  LIG1       -0.0669
      9 C           2.2072    2.9814   -0.0001 C.1     1  LIG1       -0.1138
     10 H           2.8444    3.8409    0.0000 H       1  LIG1        0.1232
     11 C          -1.4853    2.0212    0.0010 C.1     1  LIG1       -0.0663
     12 C          -2.1976    2.9884    0.0016 C.1     1  LIG1       -0.1138
     13 H          -2.8321    3.8500    0.0022 H       1  LIG1        0.1232
     14 C          -2.3194   -0.8299   -0.0001 C.ar    1  LIG1        0.0809
     15 C          -2.7274   -2.1266   -0.0005 C.ar    1  LIG1        0.0667
     16 C          -4.1594   -2.1244    0.0011 C.ar    1  LIG1        0.0580
     17 C          -4.5635   -0.8264    0.0006 C.ar    1  LIG1        0.0189
     18 N          -3.4402   -0.0305    0.0003 N.ar    1  LIG1       -0.3574
     19 H          -3.4386    0.9635   -0.0001 H       1  LIG1        0.1654
     20 H          -5.7587   -0.3150    0.0014 H       1  LIG1        0.0820
     21 C          -1.9565   -3.1734   -0.0006 C.1     1  LIG1       -0.0663
     22 C          -1.2442   -4.1406   -0.0007 C.1     1  LIG1       -0.1138
     23 H          -0.6097   -5.0022   -0.0008 H       1  LIG1        0.1232
     24 C          -4.9336   -3.1687    0.0023 C.1     1  LIG1       -0.0669
     25 C          -5.6490   -4.1337    0.0035 C.1     1  LIG1       -0.1138
     26 H          -6.2862   -4.9932    0.0045 H       1  LIG1        0.1232
@<TRIPOS>BOND
     1    23    22    1
     2    22    21    3
     3    21    15    1
     4     2     8    1
     5     2     1   ar
     6     2     3   ar
     7    15    14   ar
     8    15    16   ar
     9     4    14    1
    10     4     5   ar
    11     4     3   ar
    12     6     5    1
    13     8     9    3
    14    19    18    1
    15     9    10    1
    16    14    18   ar
    17     5     1   ar
    18     1     7    1
    19     3    11    1
    20    18    17   ar
    21    17    16   ar
    22    17    20    1
    23    11    12    3
    24    16    24    1
    25    12    13    1
    26    24    25    3
    27    25    26    1
