@<TRIPOS>MOLECULE
mol_data/noopt/geoms/mol2/13ee13ee-13ee-13ee.out
 50 54 0 0 0
SMALL
GASTEIGER

@<TRIPOS>ATOM
      1 C           1.1215   -0.3259    0.0002 C.ar    1  LIG1        0.0189
      2 C           0.7176    0.9721   -0.0005 C.ar    1  LIG1        0.0580
      3 C          -0.7144    0.9744    0.0003 C.ar    1  LIG1        0.0667
      4 C          -1.1226   -0.3223   -0.0003 C.ar    1  LIG1        0.0809
      5 N          -0.0018   -1.1217    0.0001 N.ar    1  LIG1       -0.3574
      6 H          -0.0034   -2.1157   -0.0003 H       1  LIG1        0.1654
      7 H           2.3167   -0.8373    0.0007 H       1  LIG1        0.0820
      8 C           1.4918    2.0164   -0.0003 C.1     1  LIG1       -0.0669
      9 C           2.2072    2.9814   -0.0001 C.1     1  LIG1       -0.1138
     10 H           2.8444    3.8409    0.0000 H       1  LIG1        0.1232
     11 C          -1.4853    2.0212    0.0010 C.1     1  LIG1       -0.0663
     12 C          -2.1976    2.9884    0.0016 C.1     1  LIG1       -0.1138
     13 H          -2.8321    3.8500    0.0022 H       1  LIG1        0.1232
     14 C          -2.3194   -0.8299   -0.0001 C.ar    1  LIG1        0.0814
     15 C          -2.7274   -2.1266   -0.0005 C.ar    1  LIG1        0.0668
     16 C          -4.1594   -2.1244    0.0011 C.ar    1  LIG1        0.0598
     17 C          -4.5635   -0.8264    0.0006 C.ar    1  LIG1        0.0808
     18 N          -3.4402   -0.0305    0.0003 N.ar    1  LIG1       -0.3499
     19 H          -3.4386    0.9635   -0.0001 H       1  LIG1        0.1661
     20 C          -1.9565   -3.1734   -0.0006 C.1     1  LIG1       -0.0663
     21 C          -1.2442   -4.1406   -0.0007 C.1     1  LIG1       -0.1138
     22 H          -0.6097   -5.0022   -0.0008 H       1  LIG1        0.1232
     23 C          -4.9336   -3.1687    0.0023 C.1     1  LIG1       -0.1080
     24 C          -5.6490   -4.1337    0.0035 C.2     1  LIG1       -0.0112
     25 H          -6.2862   -4.9932    0.0045 H       1  LIG1        0.0712
     26 C          -5.7587   -0.3150    0.0014 C.ar    1  LIG1        0.0808
     27 C          -6.9765   -0.9191    0.0015 C.ar    1  LIG1        0.0598
     28 C          -7.9670    0.1151    0.0037 C.ar    1  LIG1        0.0668
     29 C          -7.3109    1.3057    0.0031 C.ar    1  LIG1        0.0814
     30 N          -5.9587    1.0470    0.0022 N.ar    1  LIG1       -0.3499
     31 H          -5.2408    1.7345    0.0016 H       1  LIG1        0.1661
     32 C          -7.1973   -2.2002    0.0012 C.1     1  LIG1       -0.1080
     33 C          -7.4013   -3.3840    0.0010 C.2     1  LIG1       -0.0112
     34 H          -7.5830   -4.4384    0.0007 H       1  LIG1        0.0712
     35 C          -9.2564   -0.0501    0.0054 C.1     1  LIG1       -0.0663
     36 C         -10.4479   -0.2027    0.0070 C.1     1  LIG1       -0.1138
     37 H         -11.5092   -0.3387    0.0085 H       1  LIG1        0.1232
     38 C          -7.7701    2.5219    0.0044 C.ar    1  LIG1        0.0809
     39 C          -7.1139    3.7125    0.0049 C.ar    1  LIG1        0.0667
     40 C          -8.1043    4.7467    0.0074 C.ar    1  LIG1        0.0580
     41 C          -9.3222    4.1427    0.0066 C.ar    1  LIG1        0.0189
     42 N          -9.1222    2.7807    0.0052 N.ar    1  LIG1       -0.3574
     43 H          -9.8401    2.0932    0.0043 H       1  LIG1        0.1654
     44 H         -10.5174    4.6541    0.0080 H       1  LIG1        0.0820
     45 C          -5.8244    3.8776    0.0047 C.1     1  LIG1       -0.0663
     46 C          -4.6330    4.0303    0.0045 C.1     1  LIG1       -0.1138
     47 H          -3.5716    4.1662    0.0043 H       1  LIG1        0.1232
     48 C          -7.8835    6.0278    0.0096 C.1     1  LIG1       -0.0669
     49 C          -7.6795    7.2116    0.0116 C.1     1  LIG1       -0.1138
     50 H          -7.4977    8.2660    0.0134 H       1  LIG1        0.1232
@<TRIPOS>BOND
     1    22    21    1
     2    21    20    3
     3    20    15    1
     4     2     8    1
     5     2     1   ar
     6     2     3   ar
     7    15    14   ar
     8    15    16   ar
     9     4    14    1
    10     4     5   ar
    11     4     3   ar
    12     6     5    1
    13     8     9    3
    14    19    18    1
    15     9    10    1
    16    14    18   ar
    17     5     1   ar
    18     1     7    1
    19     3    11    1
    20    18    17   ar
    21    17    16   ar
    22    17    26    2
    23    34    33    1
    24    33    32    2
    25    33    24    1
    26    11    12    3
    27    16    23    2
    28    32    27    2
    29    26    27   ar
    30    26    30   ar
    31    27    28   ar
    32    31    30    1
    33    12    13    1
    34    30    29   ar
    35    23    24    2
    36    29    28   ar
    37    29    38    1
    38    24    25    1
    39    28    35    1
    40    47    46    1
    41    43    42    1
    42    38    39   ar
    43    38    42   ar
    44    46    45    3
    45    45    39    1
    46    39    40   ar
    47    42    41   ar
    48    35    36    3
    49    41    40   ar
    50    41    44    1
    51    36    37    1
    52    40    48    1
    53    48    49    3
    54    49    50    1
