@<TRIPOS>MOLECULE
mol_data/noopt/geoms/mol2/13ee6ee-13he12lf-12hf-6hf-13da6al-.out
 95 101 0 0 0
SMALL
GASTEIGER

@<TRIPOS>ATOM
      1 C           1.1215   -0.3259    0.0002 C.ar    1  LIG1        0.0188
      2 C           0.7176    0.9721   -0.0005 C.ar    1  LIG1        0.0579
      3 C          -0.7144    0.9744    0.0003 C.ar    1  LIG1        0.0653
      4 C          -1.1226   -0.3223   -0.0003 C.ar    1  LIG1        0.0660
      5 N          -0.0018   -1.1217    0.0001 N.ar    1  LIG1       -0.3585
      6 H          -0.0034   -2.1157   -0.0003 H       1  LIG1        0.1654
      7 H           2.3167   -0.8373    0.0007 H       1  LIG1        0.0820
      8 C           1.4918    2.0164   -0.0003 C.1     1  LIG1       -0.0669
      9 C           2.2072    2.9814   -0.0001 C.1     1  LIG1       -0.1138
     10 H           2.8444    3.8409    0.0000 H       1  LIG1        0.1232
     11 C          -1.4853    2.0212    0.0010 C.1     1  LIG1       -0.0663
     12 C          -2.1976    2.9884    0.0016 C.1     1  LIG1       -0.1138
     13 H          -2.8321    3.8500    0.0022 H       1  LIG1        0.1232
     14 C          -2.5002   -2.2250   -0.0210 C.ar    1  LIG1        0.1231
     15 C          -2.3194   -0.8299   -0.0001 C.ar    1  LIG1        0.0345
     16 C          -3.4501   -0.0114    0.0210 C.ar    1  LIG1       -0.0324
     17 C          -4.7120   -0.6083    0.0204 C.ar    1  LIG1        0.0526
     18 C          -4.7903   -2.0130   -0.0016 C.ar    1  LIG1        0.1032
     19 N          -3.7099   -2.8177   -0.0220 N.ar    1  LIG1       -0.2352
     20 H          -3.3484    1.0830    0.0367 H       1  LIG1        0.0638
     21 C          -1.4783   -3.0283   -0.0410 C.1     1  LIG1       -0.0491
     22 C          -0.5341   -3.7706   -0.0595 C.1     1  LIG1       -0.1124
     23 H           0.3070   -4.4318   -0.0759 H       1  LIG1        0.1232
     24 C          -5.7953    0.1100    0.0393 C.1     1  LIG1       -0.0675
     25 C          -6.7963    0.7737    0.0569 C.1     1  LIG1       -0.1138
     26 H          -7.6880    1.3650    0.0725 H       1  LIG1        0.1232
     27 C          -5.9424   -2.6153   -0.0030 C.2     1  LIG1        0.0770
     28 C          -7.2032   -2.1073    0.0122 C.2     1  LIG1        0.0614
     29 C          -8.1107   -3.2151    0.0031 C.2     1  LIG1        0.0502
     30 C          -7.3645   -4.3512   -0.0191 C.3     1  LIG1        0.1620
     31 N          -6.0364   -3.9886   -0.0225 N.pl3   1  LIG1       -0.3221
     32 H          -5.2675   -4.6184   -0.0373 H       1  LIG1        0.1475
     33 N          -7.5224   -0.8473    0.0330 N.pl3   1  LIG1       -0.3557
     34 H          -6.8146   -0.3164   -0.4331 H       1  LIG1        0.1424
     35 H          -8.3975   -0.7174   -0.4331 H       1  LIG1        0.1424
     36 C          -9.4090   -3.1502    0.0136 C.1     1  LIG1       -0.1195
     37 C         -10.6087   -3.0903    0.0233 C.2     1  LIG1       -0.0558
     38 H         -11.6773   -3.0370    0.0319 H       1  LIG1        0.0622
     39 C          -7.7283   -5.5991   -0.0346 C.ar    1  LIG1        0.1873
     40 C          -8.9322   -6.2726   -0.0316 C.ar    1  LIG1        0.2641
     41 C          -8.6171   -7.6857   -0.0574 C.ar    1  LIG1        0.2140
     42 C          -7.2408   -7.7821   -0.0746 C.ar    1  LIG1        0.2173
     43 O          -6.6703   -6.5088   -0.0611 O.2     1  LIG1       -0.4461
     44 O         -10.1284   -5.7640   -0.0099 O.3     1  LIG1       -0.2802
     45 C         -10.0401   -4.3367   -0.0020 C.3     2  LIG2       -0.0531
     46 H         -11.0248   -3.9185    0.0157 H       1  LIG1        0.0622
     47 H          -9.5014   -4.0175    0.8657 H       1  LIG1        0.0265
     48 H          -9.5279   -4.0062   -0.8814 H       1  LIG1        0.0265
     49 O          -9.4832   -8.6552   -0.0628 O.3     1  LIG1       -0.5006
     50 H          -9.0218   -9.4971   -0.0641 H       1  LIG1        0.2924
     51 C          -6.3808   -8.7566   -0.0997 C.ar    1  LIG1        0.1986
     52 C          -6.4555  -10.1339   -0.1186 C.ar    1  LIG1        0.1170
     53 C          -5.0928  -10.6230   -0.1431 C.ar    1  LIG1        0.1847
     54 C          -4.2753   -9.5116   -0.1376 C.ar    1  LIG1        0.1823
     55 O          -5.0461   -8.3488   -0.1110 O.2     1  LIG1       -0.4458
     56 N          -7.5252  -10.8728   -0.1156 N.pl3   1  LIG1       -0.3521
     57 H          -8.2644  -10.3911   -0.5862 H       1  LIG1        0.1425
     58 H          -7.3363  -11.7347   -0.5862 H       1  LIG1        0.1425
     59 O          -4.7368  -11.8732   -0.1657 O.3     1  LIG1       -0.5020
     60 H          -3.7787  -11.9334   -0.1713 H       1  LIG1        0.2924
     61 C          -2.4820   -7.9947   -0.1793 C.ar    1  LIG1        0.1280
     62 C          -2.9918   -9.3057   -0.1510 C.ar    1  LIG1        0.0639
     63 C          -2.0901  -10.3715   -0.1374 C.ar    1  LIG1       -0.0039
     64 C          -0.7220  -10.0945   -0.1527 C.ar    1  LIG1        0.1450
     65 C          -0.3094   -8.7497   -0.1811 C.ar    1  LIG1        0.1317
     66 N          -1.1655   -7.7094   -0.1944 N.ar    1  LIG1       -0.2265
     67 H          -2.4511  -11.4095   -0.1163 H       1  LIG1        0.0663
     68 N          -3.2817   -6.9698   -0.1927 N.pl3   1  LIG1       -0.3426
     69 H          -2.8400   -6.2086   -0.6676 H       1  LIG1        0.1437
     70 H          -4.1274   -7.2131   -0.6676 H       1  LIG1        0.1437
     71 O           0.1577  -11.0516   -0.1412 O.3     1  LIG1       -0.5045
     72 H           1.0408  -10.6752   -0.1384 H       1  LIG1        0.2922
     73 C           0.9533   -8.4411   -0.1961 C.ar    1  LIG1        0.0866
     74 C           2.0556   -9.2367   -0.2067 C.ar    1  LIG1        0.0792
     75 C           3.2021   -8.3789   -0.2206 C.ar    1  LIG1       -0.0183
     76 C           2.7501   -7.0968   -0.2197 C.ar    1  LIG1        0.0498
     77 N           1.3739   -7.1303   -0.2043 N.ar    1  LIG1       -0.3518
     78 H           0.7784   -6.3344   -0.2003 H       1  LIG1        0.1660
     79 N           2.0703  -11.6833   -0.2000 N.1     1  LIG1       -0.1908
     80 C           2.0634  -10.5367   -0.2031 C.1     1  LIG1        0.1014
     81 H           4.4470   -8.7532   -0.2324 H       1  LIG1        0.0652
     82 C           2.7093   -4.7483   -0.2559 C.ar    1  LIG1        0.0369
     83 C           3.4024   -5.9723   -0.2295 C.ar    1  LIG1        0.0199
     84 C           4.7982   -5.9479   -0.2140 C.ar    1  LIG1       -0.0079
     85 C           5.4488   -4.7130   -0.2254 C.ar    1  LIG1        0.1387
     86 C           4.6681   -3.5428   -0.2522 C.ar    1  LIG1        0.0692
     87 N           3.3208   -3.5480   -0.2672 N.ar    1  LIG1       -0.2590
     88 H           5.3739   -6.8841   -0.1943 H       1  LIG1        0.0662
     89 H           5.2277   -2.3695   -0.2636 H       1  LIG1        0.0867
     90 H           1.4097   -4.7195   -0.2710 H       1  LIG1        0.0836
     91 O           6.7466   -4.6369   -0.2119 O.3     1  LIG1       -0.4936
     92 C           7.3019   -5.9547   -0.2071 C.3     1  LIG1        0.0789
     93 H           8.3699   -5.8916   -0.1962 H       1  LIG1        0.0660
     94 H           6.9667   -6.4798    0.6630 H       1  LIG1        0.0660
     95 H           6.9845   -6.4788   -1.0843 H       1  LIG1        0.0660
@<TRIPOS>BOND
     1    95    92    1
     2    48    45    1
     3    70    68    1
     4    69    68    1
     5    58    56    1
     6    57    56    1
     7    35    33    1
     8    34    33    1
     9    90    82    1
    10    87    82   ar
    11    87    86   ar
    12    89    86    1
    13    82    83   ar
    14    86    85   ar
    15    81    75    1
    16    83    76    1
    17    83    84   ar
    18    85    84   ar
    19    85    91    1
    20    75    76   ar
    21    75    74   ar
    22    76    77   ar
    23    84    88    1
    24    91    92    1
    25    92    93    1
    26    92    94    1
    27    74    80    1
    28    74    73   ar
    29    77    78    1
    30    77    73   ar
    31    80    79    3
    32    73    65    1
    33    66    65   ar
    34    66    61   ar
    35    68    61    1
    36    65    64   ar
    37    61    62   ar
    38    60    59    1
    39    59    53    1
    40    64    71    1
    41    64    63   ar
    42    62    54    1
    43    62    63   ar
    44    53    54   ar
    45    53    52   ar
    46    71    72    1
    47    54    55   ar
    48    63    67    1
    49    52    56    1
    50    52    51   ar
    51    55    51   ar
    52    51    42    1
    53    23    22    1
    54    42    43   ar
    55    42    41   ar
    56    50    49    1
    57    49    41    1
    58    43    39   ar
    59    22    21    3
    60    41    40   ar
    61    21    14    1
    62    32    31    1
    63    39    40   ar
    64    39    30    1
    65    40    44    1
    66    31    30    1
    67    31    27    1
    68    19    14   ar
    69    19    18   ar
    70    14    15   ar
    71    30    29    1
    72    27    18    1
    73    27    28    2
    74    45    47    1
    75    18    17   ar
    76     2     8    1
    77     2     1   ar
    78     2     3   ar
    79     4    15    1
    80     4     5   ar
    81     4     3   ar
    82     6     5    1
    83     8     9    3
    84     9    10    1
    85    15    16   ar
    86     5     1   ar
    87     1     7    1
    88     3    11    1
    89    11    12    3
    90    12    13    1
    91    29    28    1
    92    29    36    2
    93    28    33    1
    94    36    37    2
    95    46    37    1
    96    17    16   ar
    97    17    24    1
    98    16    20    1
    99    37    38    1
   100    24    25    3
   101    25    26    1
