@<TRIPOS>MOLECULE
mol_data/noopt/geoms/mol2/13ee13ee-13ee13ee-.out
 50 53 0 0 0
SMALL
GASTEIGER

@<TRIPOS>ATOM
      1 C           1.1215   -0.3259    0.0002 C.ar    1  LIG1        0.0189
      2 C           0.7176    0.9721   -0.0005 C.ar    1  LIG1        0.0580
      3 C          -0.7144    0.9744    0.0003 C.ar    1  LIG1        0.0667
      4 C          -1.1226   -0.3223   -0.0003 C.ar    1  LIG1        0.0809
      5 N          -0.0018   -1.1217    0.0001 N.ar    1  LIG1       -0.3574
      6 H          -0.0034   -2.1157   -0.0003 H       1  LIG1        0.1654
      7 H           2.3167   -0.8373    0.0007 H       1  LIG1        0.0820
      8 C           1.4918    2.0164   -0.0003 C.1     1  LIG1       -0.0669
      9 C           2.2072    2.9814   -0.0001 C.1     1  LIG1       -0.1138
     10 H           2.8444    3.8409    0.0000 H       1  LIG1        0.1232
     11 C          -1.4853    2.0212    0.0010 C.1     1  LIG1       -0.0663
     12 C          -2.1976    2.9884    0.0016 C.1     1  LIG1       -0.1138
     13 H          -2.8321    3.8500    0.0022 H       1  LIG1        0.1232
     14 C          -2.3194   -0.8299   -0.0001 C.ar    1  LIG1        0.0814
     15 C          -2.7274   -2.1266   -0.0005 C.ar    1  LIG1        0.0674
     16 C          -4.1594   -2.1244    0.0011 C.ar    1  LIG1        0.0674
     17 C          -4.5635   -0.8264    0.0006 C.ar    1  LIG1        0.0814
     18 N          -3.4402   -0.0305    0.0003 N.ar    1  LIG1       -0.3499
     19 H          -3.4386    0.9635   -0.0001 H       1  LIG1        0.1661
     20 C          -1.9565   -3.1734   -0.0006 C.1     1  LIG1       -0.0662
     21 C          -1.2442   -4.1406   -0.0007 C.1     1  LIG1       -0.1138
     22 H          -0.6097   -5.0022   -0.0008 H       1  LIG1        0.1232
     23 C          -4.9336   -3.1687    0.0023 C.1     1  LIG1       -0.0662
     24 C          -5.6490   -4.1337    0.0035 C.1     1  LIG1       -0.1138
     25 H          -6.2862   -4.9932    0.0045 H       1  LIG1        0.1232
     26 C          -5.7587   -0.3150    0.0014 C.ar    1  LIG1        0.0814
     27 C          -6.1626    0.9830    0.0016 C.ar    1  LIG1        0.0674
     28 C          -7.5946    0.9853    0.0038 C.ar    1  LIG1        0.0674
     29 C          -8.0028   -0.3114    0.0030 C.ar    1  LIG1        0.0814
     30 N          -6.8820   -1.1108    0.0021 N.ar    1  LIG1       -0.3499
     31 H          -6.8836   -2.1048    0.0013 H       1  LIG1        0.1661
     32 C          -5.3884    2.0273    0.0015 C.1     1  LIG1       -0.0662
     33 C          -4.6730    2.9923    0.0014 C.1     1  LIG1       -0.1138
     34 H          -4.0358    3.8518    0.0013 H       1  LIG1        0.1232
     35 C          -8.3655    2.0321    0.0056 C.1     1  LIG1       -0.0662
     36 C          -9.0778    2.9993    0.0073 C.1     1  LIG1       -0.1138
     37 H          -9.7123    3.8609    0.0088 H       1  LIG1        0.1232
     38 C          -9.1996   -0.8190    0.0041 C.ar    1  LIG1        0.0809
     39 C          -9.6076   -2.1157    0.0044 C.ar    1  LIG1        0.0667
     40 C         -11.0396   -2.1135    0.0069 C.ar    1  LIG1        0.0580
     41 C         -11.4437   -0.8155    0.0063 C.ar    1  LIG1        0.0189
     42 N         -10.3204   -0.0196    0.0051 N.ar    1  LIG1       -0.3574
     43 H         -10.3188    0.9744    0.0043 H       1  LIG1        0.1654
     44 H         -12.6389   -0.3041    0.0077 H       1  LIG1        0.0820
     45 C          -8.8367   -3.1625    0.0040 C.1     1  LIG1       -0.0663
     46 C          -8.1244   -4.1297    0.0037 C.1     1  LIG1       -0.1138
     47 H          -7.4899   -4.9913    0.0034 H       1  LIG1        0.1232
     48 C         -11.8138   -3.1578    0.0089 C.1     1  LIG1       -0.0669
     49 C         -12.5292   -4.1227    0.0107 C.1     1  LIG1       -0.1138
     50 H         -13.1664   -4.9823    0.0124 H       1  LIG1        0.1232
@<TRIPOS>BOND
     1    22    21    1
     2    21    20    3
     3    20    15    1
     4     2     8    1
     5     2     1   ar
     6     2     3   ar
     7    15    14   ar
     8    15    16   ar
     9     4    14    1
    10     4     5   ar
    11     4     3   ar
    12     6     5    1
    13     8     9    3
    14    19    18    1
    15     9    10    1
    16    14    18   ar
    17     5     1   ar
    18     1     7    1
    19     3    11    1
    20    18    17   ar
    21    17    16   ar
    22    17    26    1
    23    11    12    3
    24    16    23    1
    25    31    30    1
    26    34    33    1
    27    33    32    3
    28    26    27   ar
    29    26    30   ar
    30    32    27    1
    31    27    28   ar
    32    12    13    1
    33    30    29   ar
    34    23    24    3
    35    29    28   ar
    36    29    38    1
    37    47    46    1
    38    24    25    1
    39    46    45    3
    40    28    35    1
    41    45    39    1
    42    38    39   ar
    43    38    42   ar
    44    43    42    1
    45    39    40   ar
    46    42    41   ar
    47    35    36    3
    48    41    40   ar
    49    41    44    1
    50    40    48    1
    51    36    37    1
    52    48    49    3
    53    49    50    1
