@<TRIPOS>MOLECULE
mol_data/noopt/geoms/mol2/13ee4ei(260)13la(270)12ee.out
 52 55 0 0 0
SMALL
GASTEIGER

@<TRIPOS>ATOM
      1 C           1.1215   -0.3259    0.0002 C.ar    1  LIG1        0.0188
      2 C           0.7176    0.9721   -0.0005 C.ar    1  LIG1        0.0579
      3 C          -0.7144    0.9744    0.0003 C.ar    1  LIG1        0.0653
      4 C          -1.1226   -0.3223   -0.0003 C.ar    1  LIG1        0.0644
      5 N          -0.0018   -1.1217    0.0001 N.ar    1  LIG1       -0.3585
      6 H          -0.0034   -2.1157   -0.0003 H       1  LIG1        0.1654
      7 H           2.3167   -0.8373    0.0007 H       1  LIG1        0.0820
      8 C           1.4918    2.0164   -0.0003 C.1     1  LIG1       -0.0669
      9 C           2.2072    2.9814   -0.0001 C.1     1  LIG1       -0.1138
     10 H           2.8444    3.8409    0.0000 H       1  LIG1        0.1232
     11 C          -1.4853    2.0212    0.0010 C.1     1  LIG1       -0.0663
     12 C          -2.1976    2.9884    0.0016 C.1     1  LIG1       -0.1138
     13 H          -2.8321    3.8500    0.0022 H       1  LIG1        0.1232
     14 C          -2.8836   -1.2990   -1.2040 C.ar    1  LIG1        0.0344
     15 C          -4.1834   -1.8385   -1.1512 C.ar    1  LIG1       -0.0362
     16 C          -2.3194   -0.8299   -0.0001 C.ar    1  LIG1        0.0152
     17 C          -4.8916   -1.9094    0.0463 C.ar    1  LIG1        0.0060
     18 H          -4.6378   -2.2061   -2.0686 H       1  LIG1        0.0637
     19 C          -3.0260   -0.9004    1.1956 C.ar    1  LIG1       -0.0479
     20 C          -4.3160   -1.4402    1.2276 C.ar    1  LIG1       -0.0405
     21 H          -2.5692   -0.5319    2.1106 H       1  LIG1        0.0627
     22 C          -2.2727   -1.2599   -2.3508 C.1     1  LIG1       -0.0690
     23 C          -1.7083   -1.2238   -3.4106 C.1     1  LIG1       -0.1139
     24 H          -1.2055   -1.1917   -4.3545 H       1  LIG1        0.1232
     25 C          -4.9719   -1.5034    2.3486 C.3     1  LIG1       -0.0391
     26 H          -4.6353   -2.3487    2.9117 H       1  LIG1        0.0278
     27 H          -6.0176   -1.6042    2.1448 H       1  LIG1        0.0278
     28 H          -4.8029   -0.6094    2.9116 H       1  LIG1        0.0278
     29 C          -6.0898   -2.4138    0.0586 C.ar    1  LIG1        0.0895
     30 C          -6.9115   -2.7603   -0.9674 C.ar    1  LIG1        0.1459
     31 C          -8.1213   -3.2681   -0.3936 C.ar    1  LIG1        0.0091
     32 C          -7.9850   -3.2112    0.9578 C.ar    1  LIG1        0.0874
     33 N          -6.7429   -2.6884    1.2390 N.ar    1  LIG1       -0.3488
     34 H          -6.3757   -2.5342    2.1497 H       1  LIG1        0.1661
     35 O          -6.6451   -2.6483   -2.2349 O.3     1  LIG1       -0.4930
     36 C          -6.0249   -3.8498   -2.7003 C.3     1  LIG1        0.0789
     37 H          -5.8060   -3.7573   -3.7435 H       1  LIG1        0.0660
     38 H          -5.1170   -4.0155   -2.1587 H       1  LIG1        0.0660
     39 H          -6.6875   -4.6758   -2.5467 H       1  LIG1        0.0660
     40 H          -9.1601   -3.7043   -1.0420 H       1  LIG1        0.0677
     41 C          -8.8070   -3.5565    1.9038 C.ar    1  LIG1        0.1675
     42 C          -9.8036   -2.9258    2.6194 C.ar    1  LIG1        0.0872
     43 C         -10.3355   -3.9064    3.5426 C.ar    1  LIG1        0.0784
     44 C          -9.6284   -5.0719    3.3297 C.ar    1  LIG1        0.1092
     45 O          -8.6803   -4.8813    2.3239 O.2     1  LIG1       -0.4589
     46 H          -9.6425   -6.2693    3.8356 H       1  LIG1        0.1042
     47 C         -10.2062   -1.6947    2.5075 C.1     1  LIG1       -0.0646
     48 C         -10.5782   -0.5573    2.4042 C.1     1  LIG1       -0.1138
     49 H         -10.9095    0.4559    2.3121 H       1  LIG1        0.1232
     50 C         -11.2943   -3.7014    4.3963 C.1     1  LIG1       -0.0653
     51 C         -12.1802   -3.5120    5.1850 C.1     1  LIG1       -0.1138
     52 H         -12.9693   -3.3433    5.8877 H       1  LIG1        0.1232
@<TRIPOS>BOND
     1    24    23    1
     2    37    36    1
     3    23    22    3
     4    36    39    1
     5    36    35    1
     6    36    38    1
     7    22    14    1
     8    35    30    1
     9    18    15    1
    10    14    15   ar
    11    14    16   ar
    12    15    17   ar
    13    40    31    1
    14    30    31   ar
    15    30    29   ar
    16    31    32   ar
    17     2     8    1
    18     2     1   ar
    19     2     3   ar
    20     8     9    3
    21     6     5    1
    22     4    16    1
    23     4     5   ar
    24     4     3   ar
    25     9    10    1
    26    16    19   ar
    27     5     1   ar
    28     1     7    1
    29     3    11    1
    30    11    12    3
    31    12    13    1
    32    17    29    1
    33    17    20   ar
    34    29    33   ar
    35    32    33   ar
    36    32    41    1
    37    19    20   ar
    38    19    21    1
    39    20    25    1
    40    33    34    1
    41    41    45   ar
    42    41    42   ar
    43    27    25    1
    44    49    48    1
    45    45    44   ar
    46    25    28    1
    47    25    26    1
    48    48    47    3
    49    47    42    1
    50    42    43   ar
    51    44    43   ar
    52    44    46    1
    53    43    50    1
    54    50    51    3
    55    51    52    1
