@<TRIPOS>MOLECULE
mol_data/noopt/geoms/mol2/13ee13ee13ee13ee-.out
 50 55 0 0 0
SMALL
GASTEIGER

@<TRIPOS>ATOM
      1 C           1.1215   -0.3259    0.0002 C.ar    1  LIG1        0.0189
      2 C           0.7176    0.9721   -0.0005 C.ar    1  LIG1        0.0574
      3 C          -0.7144    0.9744    0.0003 C.ar    1  LIG1        0.0591
      4 C          -1.1226   -0.3223   -0.0003 C.ar    1  LIG1        0.0803
      5 N          -0.0018   -1.1217    0.0001 N.ar    1  LIG1       -0.3574
      6 H          -0.0034   -2.1157   -0.0003 H       1  LIG1        0.1654
      7 H           2.3167   -0.8373    0.0007 H       1  LIG1        0.0820
      8 C           1.4918    2.0164   -0.0003 C.1     1  LIG1       -0.0669
      9 C           2.2072    2.9814   -0.0001 C.1     1  LIG1       -0.1138
     10 H           2.8444    3.8409    0.0000 H       1  LIG1        0.1232
     11 C          -1.4853    2.0212    0.0010 C.1     1  LIG1       -0.1080
     12 C          -2.1976    2.9884    0.0016 C.2     1  LIG1       -0.0112
     13 H          -2.8321    3.8500    0.0022 H       1  LIG1        0.0712
     14 C          -2.3194   -0.8299   -0.0001 C.ar    1  LIG1        0.0807
     15 C          -3.5353   -0.2219   -0.0003 C.ar    1  LIG1        0.0592
     16 C          -4.5290   -1.2530    0.0012 C.ar    1  LIG1        0.0592
     17 C          -3.8767   -2.4457    0.0005 C.ar    1  LIG1        0.0808
     18 N          -2.5238   -2.1913    0.0002 N.ar    1  LIG1       -0.3499
     19 H          -1.8081   -2.8811   -0.0004 H       1  LIG1        0.1661
     20 C          -3.7520    1.0599   -0.0003 C.1     1  LIG1       -0.1080
     21 C          -3.9522    2.2443   -0.0003 C.2     1  LIG1       -0.0112
     22 H          -4.1306    3.2993   -0.0002 H       1  LIG1        0.0712
     23 C          -5.8179   -1.0837    0.0025 C.1     1  LIG1       -0.1080
     24 C          -7.0089   -0.9273    0.0037 C.2     1  LIG1       -0.0112
     25 H          -8.0698   -0.7879    0.0048 H       1  LIG1        0.0712
     26 C          -4.3398   -3.6604    0.0012 C.ar    1  LIG1        0.0808
     27 C          -5.6206   -4.1160    0.0013 C.ar    1  LIG1        0.0598
     28 C          -5.5655   -5.5470    0.0033 C.ar    1  LIG1        0.0668
     29 C          -4.2535   -5.9029    0.0026 C.ar    1  LIG1        0.0814
     30 N          -3.4996   -4.7510    0.0018 N.ar    1  LIG1       -0.3499
     31 H          -2.5064   -4.7127    0.0010 H       1  LIG1        0.1661
     32 C          -6.6951   -3.3843    0.0012 C.1     1  LIG1       -0.1080
     33 C          -7.6879   -2.7082    0.0012 C.2     1  LIG1       -0.0112
     34 H          -8.5723   -2.1059    0.0011 H       1  LIG1        0.0712
     35 C          -6.5805   -6.3592    0.0050 C.1     1  LIG1       -0.0663
     36 C          -7.5184   -7.1097    0.0066 C.1     1  LIG1       -0.1138
     37 H          -8.3539   -7.7782    0.0080 H       1  LIG1        0.1232
     38 C          -3.6983   -7.0784    0.0036 C.ar    1  LIG1        0.0809
     39 C          -2.3863   -7.4341    0.0038 C.ar    1  LIG1        0.0667
     40 C          -2.3311   -8.8651    0.0062 C.ar    1  LIG1        0.0580
     41 C          -3.6119   -9.3208    0.0056 C.ar    1  LIG1        0.0189
     42 N          -4.4521   -8.2303    0.0045 N.ar    1  LIG1       -0.3574
     43 H          -5.4454   -8.2686    0.0038 H       1  LIG1        0.1654
     44 H          -4.0750  -10.5356    0.0070 H       1  LIG1        0.0820
     45 C          -1.3713   -6.6219    0.0035 C.1     1  LIG1       -0.0663
     46 C          -0.4334   -5.8714    0.0032 C.1     1  LIG1       -0.1138
     47 H           0.4021   -5.2029    0.0029 H       1  LIG1        0.1232
     48 C          -1.2566   -9.5968    0.0081 C.1     1  LIG1       -0.0669
     49 C          -0.2638  -10.2729    0.0099 C.1     1  LIG1       -0.1138
     50 H           0.6206  -10.8752    0.0115 H       1  LIG1        0.1232
@<TRIPOS>BOND
     1     2     8    1
     2     2     1   ar
     3     2     3   ar
     4    19    18    1
     5    15    20    2
     6    15    14   ar
     7    15    16   ar
     8     4    14    2
     9     4     5   ar
    10     4     3   ar
    11     6     5    1
    12     8     9    3
    13    20    21    2
    14    21    22    1
    15    21    12    1
    16     9    10    1
    17    14    18   ar
    18     5     1   ar
    19    18    17   ar
    20     1     7    1
    21     3    11    2
    22    17    16   ar
    23    17    26    2
    24    31    30    1
    25    11    12    2
    26    34    33    1
    27    33    32    2
    28    33    24    1
    29    16    23    2
    30    26    27   ar
    31    26    30   ar
    32    32    27    2
    33    27    28   ar
    34    12    13    1
    35    30    29   ar
    36    23    24    2
    37    29    28   ar
    38    29    38    1
    39    47    46    1
    40    46    45    3
    41    28    35    1
    42    45    39    1
    43    38    39   ar
    44    38    42   ar
    45    24    25    1
    46    43    42    1
    47    39    40   ar
    48    42    41   ar
    49    35    36    3
    50    41    40   ar
    51    41    44    1
    52    40    48    1
    53    36    37    1
    54    48    49    3
    55    49    50    1
