@<TRIPOS>MOLECULE
mol_data/noopt/geoms/mol2/13ef13ef-4ef13ef.out
 48 51 0 0 0
SMALL
GASTEIGER

@<TRIPOS>ATOM
      1 C           1.1215   -0.3259    0.0002 C.ar    1  LIG1        0.0213
      2 C           0.7176    0.9721   -0.0005 C.ar    1  LIG1        0.0840
      3 C          -0.7144    0.9744    0.0003 C.ar    1  LIG1        0.1589
      4 C          -1.1226   -0.3223   -0.0003 C.ar    1  LIG1        0.1074
      5 N          -0.0018   -1.1217    0.0001 N.ar    1  LIG1       -0.3554
      6 H          -0.0034   -2.1157   -0.0003 H       1  LIG1        0.1655
      7 H           2.3167   -0.8373    0.0007 H       1  LIG1        0.0820
      8 C           1.4918    2.0164   -0.0003 C.1     1  LIG1       -0.0645
      9 C           2.2072    2.9814   -0.0001 C.1     1  LIG1       -0.1137
     10 H           2.8444    3.8409    0.0000 H       1  LIG1        0.1232
     11 O          -1.4853    2.0212    0.0010 O.3     1  LIG1       -0.5035
     12 H          -2.4040    1.7426    0.0012 H       1  LIG1        0.2923
     13 C          -2.3194   -0.8299   -0.0001 C.ar    1  LIG1        0.0862
     14 C          -2.7274   -2.1266   -0.0005 C.ar    1  LIG1        0.0934
     15 C          -4.1594   -2.1244    0.0011 C.ar    1  LIG1        0.1581
     16 C          -4.5635   -0.8264    0.0006 C.ar    1  LIG1        0.0915
     17 N          -3.4402   -0.0305    0.0003 N.ar    1  LIG1       -0.3490
     18 H          -3.4386    0.9635   -0.0001 H       1  LIG1        0.1661
     19 C          -1.9565   -3.1734   -0.0006 C.1     1  LIG1       -0.0638
     20 C          -1.2442   -4.1406   -0.0007 C.1     1  LIG1       -0.1137
     21 H          -0.6097   -5.0022   -0.0008 H       1  LIG1        0.1232
     22 O          -4.9337   -3.1687    0.0023 O.3     1  LIG1       -0.5035
     23 H          -4.3975   -3.9651    0.0026 H       1  LIG1        0.2923
     24 C          -5.9236    1.0852    0.0026 C.ar    1  LIG1        0.0347
     25 C          -7.2385    1.5895    0.0050 C.ar    1  LIG1       -0.0330
     26 C          -5.7587   -0.3150    0.0014 C.ar    1  LIG1        0.0208
     27 C          -8.3419    0.7391    0.0056 C.ar    1  LIG1        0.0422
     28 H          -7.3885    2.6668    0.0062 H       1  LIG1        0.0638
     29 C          -6.8598   -1.1644    0.0020 C.ar    1  LIG1       -0.0091
     30 C          -8.1582   -0.6442    0.0040 C.ar    1  LIG1        0.1267
     31 H          -6.7065   -2.2406    0.0011 H       1  LIG1        0.0661
     32 C          -4.9343    1.9285    0.0020 C.1     1  LIG1       -0.0690
     33 C          -4.0201    2.7078    0.0013 C.1     1  LIG1       -0.1139
     34 H          -3.2058    3.4019    0.0008 H       1  LIG1        0.1232
     35 O          -9.1838   -1.4431    0.0046 O.3     1  LIG1       -0.5061
     36 H          -8.8805   -2.3539    0.0048 H       1  LIG1        0.2922
     37 C          -9.5420    1.2389    0.0077 C.ar    1  LIG1        0.0692
     38 C          -9.9585    2.5329    0.0088 C.ar    1  LIG1        0.0913
     39 C         -11.3904    2.5213    0.0122 C.ar    1  LIG1        0.1500
     40 C         -11.7860    1.2207    0.0113 C.ar    1  LIG1        0.0454
     41 N         -10.6575    0.4322    0.0090 N.ar    1  LIG1       -0.3565
     42 H         -10.6495   -0.5617    0.0079 H       1  LIG1        0.1655
     43 H         -12.9778    0.7015    0.0134 H       1  LIG1        0.0845
     44 C          -9.1944    3.5847    0.0084 C.1     1  LIG1       -0.0639
     45 C          -8.4884    4.5565    0.0080 C.1     1  LIG1       -0.1137
     46 H          -7.8596    5.4222    0.0077 H       1  LIG1        0.1232
     47 O         -12.1714    3.5606    0.0152 O.3     1  LIG1       -0.5040
     48 H         -13.0874    3.2731    0.0159 H       1  LIG1        0.2923
@<TRIPOS>BOND
     1    21    20    1
     2    20    19    3
     3    19    14    1
     4     2     8    1
     5     2     1   ar
     6     2     3   ar
     7    14    13   ar
     8    14    15   ar
     9     4    13    1
    10     4     5   ar
    11     4     3   ar
    12     6     5    1
    13     8     9    3
    14    18    17    1
    15     9    10    1
    16    13    17   ar
    17     5     1   ar
    18     1     7    1
    19     3    11    1
    20    17    16   ar
    21    16    15   ar
    22    16    26    1
    23    34    33    1
    24    11    12    1
    25    15    22    1
    26    31    29    1
    27    33    32    3
    28    26    29   ar
    29    26    24   ar
    30    32    24    1
    31    29    30   ar
    32    22    23    1
    33    24    25   ar
    34    30    35    1
    35    30    27   ar
    36    35    36    1
    37    25    27   ar
    38    25    28    1
    39    27    37    1
    40    46    45    1
    41    37    38   ar
    42    37    41   ar
    43    42    41    1
    44    45    44    3
    45    44    38    1
    46    38    39   ar
    47    41    40   ar
    48    40    39   ar
    49    40    43    1
    50    39    47    1
    51    47    48    1
