@<TRIPOS>MOLECULE
mol_data/noopt/geoms/mol2/13ef13ef-13ef13ef-.out
 46 49 0 0 0
SMALL
GASTEIGER

@<TRIPOS>ATOM
      1 C           1.1215   -0.3259    0.0002 C.ar    1  LIG1        0.0213
      2 C           0.7176    0.9721   -0.0005 C.ar    1  LIG1        0.0840
      3 C          -0.7144    0.9744    0.0003 C.ar    1  LIG1        0.1589
      4 C          -1.1226   -0.3223   -0.0003 C.ar    1  LIG1        0.1074
      5 N          -0.0018   -1.1217    0.0001 N.ar    1  LIG1       -0.3554
      6 H          -0.0034   -2.1157   -0.0003 H       1  LIG1        0.1655
      7 H           2.3167   -0.8373    0.0007 H       1  LIG1        0.0820
      8 C           1.4918    2.0164   -0.0003 C.1     1  LIG1       -0.0645
      9 C           2.2072    2.9814   -0.0001 C.1     1  LIG1       -0.1137
     10 H           2.8444    3.8409    0.0000 H       1  LIG1        0.1232
     11 O          -1.4853    2.0212    0.0010 O.3     1  LIG1       -0.5035
     12 H          -2.4040    1.7426    0.0012 H       1  LIG1        0.2923
     13 C          -2.3194   -0.8299   -0.0001 C.ar    1  LIG1        0.0862
     14 C          -2.7274   -2.1266   -0.0005 C.ar    1  LIG1        0.0935
     15 C          -4.1594   -2.1244    0.0011 C.ar    1  LIG1        0.1596
     16 C          -4.5635   -0.8264    0.0006 C.ar    1  LIG1        0.1079
     17 N          -3.4402   -0.0305    0.0003 N.ar    1  LIG1       -0.3478
     18 H          -3.4386    0.9635   -0.0001 H       1  LIG1        0.1661
     19 C          -1.9565   -3.1734   -0.0006 C.1     1  LIG1       -0.0638
     20 C          -1.2442   -4.1406   -0.0007 C.1     1  LIG1       -0.1137
     21 H          -0.6097   -5.0022   -0.0008 H       1  LIG1        0.1232
     22 O          -4.9337   -3.1687    0.0023 O.3     1  LIG1       -0.5034
     23 H          -4.3975   -3.9651    0.0026 H       1  LIG1        0.2923
     24 C          -5.7587   -0.3150    0.0014 C.ar    1  LIG1        0.0862
     25 C          -6.1626    0.9830    0.0016 C.ar    1  LIG1        0.0935
     26 C          -7.5946    0.9853    0.0038 C.ar    1  LIG1        0.1596
     27 C          -8.0028   -0.3114    0.0030 C.ar    1  LIG1        0.1079
     28 N          -6.8820   -1.1108    0.0021 N.ar    1  LIG1       -0.3478
     29 H          -6.8836   -2.1048    0.0013 H       1  LIG1        0.1661
     30 C          -5.3884    2.0273    0.0015 C.1     1  LIG1       -0.0638
     31 C          -4.6730    2.9923    0.0014 C.1     1  LIG1       -0.1137
     32 H          -4.0358    3.8518    0.0013 H       1  LIG1        0.1232
     33 O          -8.3655    2.0321    0.0056 O.3     1  LIG1       -0.5034
     34 H          -9.2842    1.7535    0.0060 H       1  LIG1        0.2923
     35 C          -9.1996   -0.8190    0.0041 C.ar    1  LIG1        0.0857
     36 C          -9.6076   -2.1157    0.0044 C.ar    1  LIG1        0.0928
     37 C         -11.0396   -2.1135    0.0069 C.ar    1  LIG1        0.1501
     38 C         -11.4437   -0.8155    0.0063 C.ar    1  LIG1        0.0454
     39 N         -10.3204   -0.0196    0.0051 N.ar    1  LIG1       -0.3554
     40 H         -10.3188    0.9744    0.0043 H       1  LIG1        0.1655
     41 H         -12.6389   -0.3041    0.0077 H       1  LIG1        0.0845
     42 C          -8.8367   -3.1625    0.0040 C.1     1  LIG1       -0.0638
     43 C          -8.1244   -4.1297    0.0037 C.1     1  LIG1       -0.1137
     44 H          -7.4899   -4.9913    0.0034 H       1  LIG1        0.1232
     45 O         -11.8139   -3.1578    0.0089 O.3     1  LIG1       -0.5040
     46 H         -11.2777   -3.9542    0.0094 H       1  LIG1        0.2923
@<TRIPOS>BOND
     1    21    20    1
     2    20    19    3
     3    19    14    1
     4     2     8    1
     5     2     1   ar
     6     2     3   ar
     7    14    13   ar
     8    14    15   ar
     9     4    13    1
    10     4     5   ar
    11     4     3   ar
    12     6     5    1
    13     8     9    3
    14    18    17    1
    15     9    10    1
    16    13    17   ar
    17     5     1   ar
    18     1     7    1
    19     3    11    1
    20    17    16   ar
    21    16    15   ar
    22    16    24    1
    23    11    12    1
    24    15    22    1
    25    29    28    1
    26    32    31    1
    27    31    30    3
    28    24    25   ar
    29    24    28   ar
    30    30    25    1
    31    25    26   ar
    32    28    27   ar
    33    22    23    1
    34    27    26   ar
    35    27    35    1
    36    44    43    1
    37    43    42    3
    38    26    33    1
    39    42    36    1
    40    35    36   ar
    41    35    39   ar
    42    40    39    1
    43    36    37   ar
    44    39    38   ar
    45    33    34    1
    46    38    37   ar
    47    38    41    1
    48    37    45    1
    49    45    46    1
