@<TRIPOS>MOLECULE
mol_data/noopt/geoms/mol2/13ef13ef.out
 24 25 0 0 0
SMALL
GASTEIGER

@<TRIPOS>ATOM
      1 C           1.1215   -0.3259    0.0002 C.ar    1  LIG1        0.0213
      2 C           0.7176    0.9721   -0.0005 C.ar    1  LIG1        0.0840
      3 C          -0.7144    0.9744    0.0003 C.ar    1  LIG1        0.1589
      4 C          -1.1226   -0.3223   -0.0003 C.ar    1  LIG1        0.1074
      5 N          -0.0018   -1.1217    0.0001 N.ar    1  LIG1       -0.3554
      6 H          -0.0034   -2.1157   -0.0003 H       1  LIG1        0.1655
      7 H           2.3167   -0.8373    0.0007 H       1  LIG1        0.0820
      8 C           1.4918    2.0164   -0.0003 C.1     1  LIG1       -0.0645
      9 C           2.2072    2.9814   -0.0001 C.1     1  LIG1       -0.1137
     10 H           2.8444    3.8409    0.0000 H       1  LIG1        0.1232
     11 O          -1.4853    2.0212    0.0010 O.3     1  LIG1       -0.5035
     12 H          -2.4040    1.7426    0.0012 H       1  LIG1        0.2923
     13 C          -2.3194   -0.8299   -0.0001 C.ar    1  LIG1        0.0857
     14 C          -3.5353   -0.2219   -0.0003 C.ar    1  LIG1        0.0928
     15 C          -4.5290   -1.2530    0.0012 C.ar    1  LIG1        0.1501
     16 C          -3.8767   -2.4457    0.0005 C.ar    1  LIG1        0.0454
     17 N          -2.5238   -2.1913    0.0002 N.ar    1  LIG1       -0.3554
     18 H          -1.8081   -2.8811   -0.0004 H       1  LIG1        0.1655
     19 H          -4.3398   -3.6604    0.0012 H       1  LIG1        0.0845
     20 C          -3.7520    1.0599   -0.0003 C.1     1  LIG1       -0.0638
     21 C          -3.9522    2.2443   -0.0003 C.1     1  LIG1       -0.1137
     22 H          -4.1306    3.2993   -0.0002 H       1  LIG1        0.1232
     23 O          -5.8180   -1.0837    0.0025 O.3     1  LIG1       -0.5040
     24 H          -6.2535   -1.9392    0.0028 H       1  LIG1        0.2923
@<TRIPOS>BOND
     1     2     8    1
     2     2     1   ar
     3     2     3   ar
     4    18    17    1
     5    14    20    1
     6    14    13   ar
     7    14    15   ar
     8     4    13    1
     9     4     5   ar
    10     4     3   ar
    11     6     5    1
    12     8     9    3
    13    20    21    3
    14    21    22    1
    15     9    10    1
    16    13    17   ar
    17     5     1   ar
    18    17    16   ar
    19     1     7    1
    20     3    11    1
    21    16    15   ar
    22    16    19    1
    23    11    12    1
    24    15    23    1
    25    23    24    1
