@<TRIPOS>MOLECULE
mol_data/noopt/geoms/mol2/13ef13ef13ef.out
 35 37 0 0 0
SMALL
GASTEIGER

@<TRIPOS>ATOM
      1 C           1.1215   -0.3259    0.0002 C.ar    1  LIG1        0.0213
      2 C           0.7176    0.9721   -0.0005 C.ar    1  LIG1        0.0840
      3 C          -0.7144    0.9744    0.0003 C.ar    1  LIG1        0.1589
      4 C          -1.1226   -0.3223   -0.0003 C.ar    1  LIG1        0.1074
      5 N          -0.0018   -1.1217    0.0001 N.ar    1  LIG1       -0.3554
      6 H          -0.0034   -2.1157   -0.0003 H       1  LIG1        0.1655
      7 H           2.3167   -0.8373    0.0007 H       1  LIG1        0.0820
      8 C           1.4918    2.0164   -0.0003 C.1     1  LIG1       -0.0645
      9 C           2.2072    2.9814   -0.0001 C.1     1  LIG1       -0.1137
     10 H           2.8444    3.8409    0.0000 H       1  LIG1        0.1232
     11 O          -1.4853    2.0212    0.0010 O.3     1  LIG1       -0.5035
     12 H          -2.4040    1.7426    0.0012 H       1  LIG1        0.2923
     13 C          -2.3194   -0.8299   -0.0001 C.ar    1  LIG1        0.0862
     14 C          -3.5353   -0.2219   -0.0003 C.ar    1  LIG1        0.0935
     15 C          -4.5290   -1.2530    0.0012 C.ar    1  LIG1        0.1596
     16 C          -3.8767   -2.4457    0.0005 C.ar    1  LIG1        0.1079
     17 N          -2.5238   -2.1913    0.0002 N.ar    1  LIG1       -0.3478
     18 H          -1.8081   -2.8811   -0.0004 H       1  LIG1        0.1661
     19 C          -3.7520    1.0599   -0.0003 C.1     1  LIG1       -0.0638
     20 C          -3.9522    2.2443   -0.0003 C.1     1  LIG1       -0.1137
     21 H          -4.1306    3.2993   -0.0002 H       1  LIG1        0.1232
     22 O          -5.8180   -1.0837    0.0025 O.3     1  LIG1       -0.5034
     23 H          -6.2535   -1.9392    0.0028 H       1  LIG1        0.2923
     24 C          -4.3398   -3.6604    0.0012 C.ar    1  LIG1        0.0857
     25 C          -5.6206   -4.1160    0.0013 C.ar    1  LIG1        0.0928
     26 C          -5.5655   -5.5470    0.0033 C.ar    1  LIG1        0.1501
     27 C          -4.2535   -5.9029    0.0026 C.ar    1  LIG1        0.0454
     28 N          -3.4996   -4.7510    0.0018 N.ar    1  LIG1       -0.3554
     29 H          -2.5064   -4.7127    0.0010 H       1  LIG1        0.1655
     30 H          -3.6983   -7.0784    0.0036 H       1  LIG1        0.0845
     31 C          -6.6951   -3.3843    0.0012 C.1     1  LIG1       -0.0638
     32 C          -7.6879   -2.7082    0.0012 C.1     1  LIG1       -0.1137
     33 H          -8.5723   -2.1059    0.0011 H       1  LIG1        0.1232
     34 O          -6.5806   -6.3592    0.0050 O.3     1  LIG1       -0.5040
     35 H          -6.2653   -7.2660    0.0054 H       1  LIG1        0.2923
@<TRIPOS>BOND
     1     2     8    1
     2     2     1   ar
     3     2     3   ar
     4    18    17    1
     5    14    19    1
     6    14    13   ar
     7    14    15   ar
     8     4    13    1
     9     4     5   ar
    10     4     3   ar
    11     6     5    1
    12     8     9    3
    13    19    20    3
    14    20    21    1
    15     9    10    1
    16    13    17   ar
    17     5     1   ar
    18    17    16   ar
    19     1     7    1
    20     3    11    1
    21    16    15   ar
    22    16    24    1
    23    29    28    1
    24    11    12    1
    25    33    32    1
    26    32    31    3
    27    15    22    1
    28    24    25   ar
    29    24    28   ar
    30    31    25    1
    31    25    26   ar
    32    28    27   ar
    33    22    23    1
    34    27    26   ar
    35    27    30    1
    36    26    34    1
    37    34    35    1
