@<TRIPOS>MOLECULE
mol_data/noopt/geoms/mol2/13ef4df(290)12ii(140)6ea(90).out
 49 52 0 0 0
SMALL
GASTEIGER

@<TRIPOS>ATOM
      1 C           1.1215   -0.3259    0.0002 C.ar    1  LIG1        0.0213
      2 C           0.7176    0.9721   -0.0005 C.ar    1  LIG1        0.0839
      3 C          -0.7144    0.9744    0.0003 C.ar    1  LIG1        0.1574
      4 C          -1.1226   -0.3223   -0.0003 C.ar    1  LIG1        0.0911
      5 N          -0.0018   -1.1217    0.0001 N.ar    1  LIG1       -0.3566
      6 H          -0.0034   -2.1157   -0.0003 H       1  LIG1        0.1655
      7 H           2.3167   -0.8373    0.0007 H       1  LIG1        0.0820
      8 C           1.4918    2.0164   -0.0003 C.1     1  LIG1       -0.0645
      9 C           2.2072    2.9814   -0.0001 C.1     1  LIG1       -0.1137
     10 H           2.8444    3.8409    0.0000 H       1  LIG1        0.1232
     11 O          -1.4853    2.0212    0.0010 O.3     1  LIG1       -0.5035
     12 H          -2.4040    1.7426    0.0012 H       1  LIG1        0.2923
     13 C          -3.1297   -0.7187   -1.1484 C.ar    1  LIG1        0.0619
     14 C          -4.4187   -1.2837   -1.0973 C.ar    1  LIG1       -0.0295
     15 C          -2.3194   -0.8299   -0.0001 C.ar    1  LIG1        0.0227
     16 C          -4.8821   -1.9319    0.0454 C.ar    1  LIG1        0.0602
     17 H          -5.0606   -1.2091   -1.9723 H       1  LIG1        0.0639
     18 C          -2.7815   -1.4768    1.1409 C.ar    1  LIG1       -0.0090
     19 C          -4.0650   -2.0321    1.1720 C.ar    1  LIG1        0.1282
     20 H          -2.1376   -1.5494    2.0137 H       1  LIG1        0.0661
     21 N          -2.4214    0.3954   -3.2083 N.1     1  LIG1       -0.1908
     22 C          -2.7534   -0.1267   -2.2429 C.1     1  LIG1        0.0998
     23 O          -4.4916   -2.6356    2.2416 O.3     1  LIG1       -0.5060
     24 H          -3.8579   -3.3068    2.5052 H       1  LIG1        0.2922
     25 C          -6.0777   -2.4423    0.0579 C.ar    1  LIG1        0.1424
     26 C          -6.6709   -3.5431    0.6403 C.ar    1  LIG1       -0.0011
     27 C          -8.0621   -3.5255    0.2390 C.ar    1  LIG1       -0.0011
     28 C          -8.2269   -2.4145   -0.5623 C.ar    1  LIG1        0.1415
     29 O          -7.0174   -1.7303   -0.6889 O.2     1  LIG1       -0.4541
     30 C          -6.1141   -4.4367    1.4034 C.3     1  LIG1       -0.0358
     31 H          -5.3765   -3.9686    2.0212 H       1  LIG1        0.0279
     32 H          -5.6482   -5.1843    0.7959 H       1  LIG1        0.0279
     33 H          -6.8595   -4.8926    2.0211 H       1  LIG1        0.0279
     34 C          -8.9610   -4.4002    0.5822 C.3     1  LIG1       -0.0358
     35 H          -8.5028   -5.1734    1.1629 H       1  LIG1        0.0279
     36 H          -9.3983   -4.8259   -0.2967 H       1  LIG1        0.0279
     37 H          -9.7214   -3.9212    1.1628 H       1  LIG1        0.0279
     38 C          -9.2340   -1.8681   -2.6130 C.ar    1  LIG1        0.1237
     39 C          -9.2194   -1.8758   -1.2062 C.ar    1  LIG1        0.0513
     40 C         -10.2907   -1.2946   -0.5252 C.ar    1  LIG1       -0.0470
     41 C         -11.3309   -0.7303   -1.2655 C.ar    1  LIG1       -0.0428
     42 C         -11.2549   -0.7714   -2.6698 C.ar    1  LIG1        0.0290
     43 N         -10.2292   -1.3281   -3.3430 N.ar    1  LIG1       -0.2460
     44 H         -10.3137   -1.2808    0.5737 H       1  LIG1        0.0626
     45 H         -12.1988   -0.2594   -3.4026 H       1  LIG1        0.0830
     46 C          -8.2594   -2.3970   -3.2916 C.1     1  LIG1       -0.0491
     47 C          -7.3589   -2.8856   -3.9187 C.1     1  LIG1       -0.1124
     48 H          -6.5568   -3.3209   -4.4772 H       1  LIG1        0.1232
     49 H         -12.3503   -0.1770   -0.6784 H       1  LIG1        0.0633
@<TRIPOS>BOND
     1    48    47    1
     2    47    46    3
     3    45    42    1
     4    43    42   ar
     5    43    38   ar
     6    46    38    1
     7    21    22    3
     8    42    41   ar
     9    38    39   ar
    10    22    13    1
    11    17    14    1
    12    41    49    1
    13    41    40   ar
    14    39    28    1
    15    39    40   ar
    16    13    14   ar
    17    13    15   ar
    18    14    16   ar
    19    29    28   ar
    20    29    25   ar
    21    28    27   ar
    22    40    44    1
    23    36    34    1
    24     2     8    1
    25     2     1   ar
    26     2     3   ar
    27     8     9    3
    28     6     5    1
    29     4    15    1
    30     4     5   ar
    31     4     3   ar
    32     9    10    1
    33    15    18   ar
    34     5     1   ar
    35     1     7    1
    36     3    11    1
    37    11    12    1
    38    16    25    1
    39    16    19   ar
    40    25    26   ar
    41    27    34    1
    42    27    26   ar
    43    34    37    1
    44    34    35    1
    45    26    30    1
    46    32    30    1
    47    18    19   ar
    48    18    20    1
    49    19    23    1
    50    30    33    1
    51    30    31    1
    52    23    24    1
