@<TRIPOS>MOLECULE
mol_data/noopt/geoms/mol2/13ef12df(230)12la(140)12ie(60).out
 45 48 0 0 0
SMALL
GASTEIGER

@<TRIPOS>ATOM
      1 C           1.1215   -0.3259    0.0002 C.ar    1  LIG1        0.0214
      2 C           0.7176    0.9721   -0.0005 C.ar    1  LIG1        0.0840
      3 C          -0.7144    0.9744    0.0003 C.ar    1  LIG1        0.1605
      4 C          -1.1226   -0.3223   -0.0003 C.ar    1  LIG1        0.1267
      5 N          -0.0018   -1.1217    0.0001 N.ar    1  LIG1       -0.3541
      6 H          -0.0034   -2.1157   -0.0003 H       1  LIG1        0.1656
      7 H           2.3167   -0.8373    0.0007 H       1  LIG1        0.0820
      8 C           1.4918    2.0164   -0.0003 C.1     1  LIG1       -0.0645
      9 C           2.2072    2.9814   -0.0001 C.1     1  LIG1       -0.1137
     10 H           2.8444    3.8409    0.0000 H       1  LIG1        0.1232
     11 O          -1.4853    2.0212    0.0010 O.3     1  LIG1       -0.5034
     12 H          -2.4040    1.7426    0.0012 H       1  LIG1        0.2923
     13 C          -2.3194   -0.8299   -0.0001 C.ar    1  LIG1        0.1765
     14 C          -2.9635   -1.8300   -0.6986 C.ar    1  LIG1        0.1411
     15 C          -4.3200   -1.8808   -0.1943 C.ar    1  LIG1        0.1844
     16 C          -4.4148   -0.9079    0.7795 C.ar    1  LIG1        0.2167
     17 O          -3.1941   -0.2464    0.9176 O.2     1  LIG1       -0.4448
     18 N          -2.0411   -3.2641   -2.4531 N.1     1  LIG1       -0.1906
     19 C          -2.4734   -2.5920   -1.6309 C.1     1  LIG1        0.1067
     20 O          -5.2487   -2.6957   -0.5987 O.3     1  LIG1       -0.5023
     21 H          -4.8807   -3.5768   -0.6984 H       1  LIG1        0.2923
     22 C          -5.3513   -0.4797    1.5729 C.ar    1  LIG1        0.2157
     23 C          -6.0659   -1.0101    2.6269 C.ar    1  LIG1        0.1695
     24 C          -6.9755    0.0243    3.0737 C.ar    1  LIG1        0.0299
     25 C          -6.7562    1.1187    2.2627 C.ar    1  LIG1        0.1746
     26 O          -5.7592    0.8325    1.3294 O.2     1  LIG1       -0.4447
     27 O          -5.9633   -2.2008    3.1387 O.3     1  LIG1       -0.4912
     28 C          -7.2686   -2.7537    3.3265 C.3     1  LIG1        0.0790
     29 H          -7.1838   -3.7337    3.7475 H       1  LIG1        0.0660
     30 H          -7.8290   -2.1280    3.9895 H       1  LIG1        0.0660
     31 H          -7.7700   -2.8130    2.3831 H       1  LIG1        0.0660
     32 H          -7.8241   -0.0841    4.0525 H       1  LIG1        0.0693
     33 C          -7.2501    2.3178    2.1715 C.ar    1  LIG1        0.1739
     34 C          -7.1529    3.4799    2.9084 C.ar    1  LIG1        0.0137
     35 C          -7.9746    4.4660    2.2379 C.ar    1  LIG1        0.0659
     36 C          -8.5194    3.8407    1.1353 C.ar    1  LIG1        0.1083
     37 O          -8.0875    2.5155    1.0727 O.2     1  LIG1       -0.4583
     38 H          -9.3180    4.1922    0.1716 H       1  LIG1        0.1042
     39 C          -6.4664    3.6785    3.9946 C.3     1  LIG1       -0.0348
     40 H          -6.9256    4.4551    4.5699 H       1  LIG1        0.0279
     41 H          -5.4684    3.9672    3.7381 H       1  LIG1        0.0279
     42 H          -6.4401    2.7766    4.5698 H       1  LIG1        0.0279
     43 C          -8.1476    5.6958    2.6224 C.1     1  LIG1       -0.0662
     44 C          -8.3075    6.8321    2.9775 C.1     1  LIG1       -0.1138
     45 H          -8.4499    7.8443    3.2939 H       1  LIG1        0.1232
@<TRIPOS>BOND
     1    18    19    3
     2    19    14    1
     3    14    15   ar
     4    14    13   ar
     5    21    20    1
     6    20    15    1
     7    15    16   ar
     8     2     8    1
     9     2     1   ar
    10     2     3   ar
    11     4    13    1
    12     4     5   ar
    13     4     3   ar
    14     6     5    1
    15     8     9    3
    16     9    10    1
    17    13    17   ar
    18     5     1   ar
    19     1     7    1
    20     3    11    1
    21    11    12    1
    22    38    36    1
    23    16    17   ar
    24    16    22    1
    25    37    36   ar
    26    37    33   ar
    27    36    35   ar
    28    26    22   ar
    29    26    25   ar
    30    22    23   ar
    31    33    25    1
    32    33    34   ar
    33    35    43    1
    34    35    34   ar
    35    25    24   ar
    36    31    28    1
    37    43    44    3
    38    23    24   ar
    39    23    27    1
    40    34    39    1
    41    44    45    1
    42    24    32    1
    43    27    28    1
    44    28    29    1
    45    28    30    1
    46    41    39    1
    47    39    42    1
    48    39    40    1
