@<TRIPOS>MOLECULE
mol_data/noopt/geoms/mol2/13ef4ed-6if-6di.out
 52 55 0 0 0
SMALL
GASTEIGER

@<TRIPOS>ATOM
      1 C           1.1215   -0.3259    0.0002 C.ar    1  LIG1        0.0213
      2 C           0.7176    0.9721   -0.0005 C.ar    1  LIG1        0.0839
      3 C          -0.7144    0.9744    0.0003 C.ar    1  LIG1        0.1574
      4 C          -1.1226   -0.3223   -0.0003 C.ar    1  LIG1        0.0909
      5 N          -0.0018   -1.1217    0.0001 N.ar    1  LIG1       -0.3566
      6 H          -0.0034   -2.1157   -0.0003 H       1  LIG1        0.1655
      7 H           2.3167   -0.8373    0.0007 H       1  LIG1        0.0820
      8 C           1.4918    2.0164   -0.0003 C.1     1  LIG1       -0.0645
      9 C           2.2072    2.9814   -0.0001 C.1     1  LIG1       -0.1137
     10 H           2.8444    3.8409    0.0000 H       1  LIG1        0.1232
     11 O          -1.4853    2.0212    0.0010 O.3     1  LIG1       -0.5035
     12 H          -2.4040    1.7426    0.0012 H       1  LIG1        0.2923
     13 C          -3.4433    0.0211    0.0221 C.ar    1  LIG1        0.0345
     14 C          -4.7179   -0.5778    0.0229 C.ar    1  LIG1       -0.0373
     15 C          -2.3194   -0.8299   -0.0001 C.ar    1  LIG1        0.0179
     16 C          -4.8691   -1.9625    0.0019 C.ar    1  LIG1       -0.0062
     17 H          -5.5986    0.0603    0.0400 H       1  LIG1        0.0636
     18 C          -2.4698   -2.2123   -0.0211 C.ar    1  LIG1       -0.0421
     19 C          -3.7445   -2.7882   -0.0203 C.ar    1  LIG1        0.0032
     20 H          -1.5876   -2.8471   -0.0379 H       1  LIG1        0.0631
     21 C          -3.3660    1.3186    0.0420 C.1     1  LIG1       -0.0690
     22 C          -3.2945    2.5175    0.0604 C.1     1  LIG1       -0.1139
     23 H          -3.2309    3.5855    0.0768 H       1  LIG1        0.1232
     24 N          -3.9975   -5.2214   -0.0570 N.2     1  LIG1       -0.1571
     25 C          -3.8789   -4.0811   -0.0398 C.2     1  LIG1        0.0576
     26 C          -6.2282   -3.8785   -0.0171 C.ar    1  LIG1        0.0503
     27 C          -6.0610   -2.4817    0.0032 C.ar    1  LIG1        0.0076
     28 C          -7.1996   -1.6742    0.0249 C.ar    1  LIG1       -0.0086
     29 C          -8.4556   -2.2834    0.0254 C.ar    1  LIG1        0.1434
     30 C          -8.5203   -3.6887    0.0039 C.ar    1  LIG1        0.1153
     31 N          -7.4321   -4.4829   -0.0170 N.ar    1  LIG1       -0.2472
     32 H          -7.1085   -0.5788    0.0402 H       1  LIG1        0.0661
     33 C          -5.1983   -4.6720   -0.0376 C.3     1  LIG1       -0.0044
     34 H          -4.3763   -4.2025    0.4611 H       1  LIG1        0.0854
     35 H          -4.9284   -4.8799   -1.0520 H       1  LIG1        0.0332
     36 H          -5.4428   -5.5866    0.4610 H       1  LIG1        0.0332
     37 O          -9.5458   -1.5756    0.0450 O.3     1  LIG1       -0.5046
     38 H         -10.3073   -2.1601    0.0498 H       1  LIG1        0.2922
     39 C          -9.7204   -5.7081    0.0036 C.ar    1  LIG1        0.1493
     40 C          -9.6664   -4.3022    0.0036 C.ar    1  LIG1        0.0400
     41 C         -10.8665   -3.5888    0.0036 C.ar    1  LIG1       -0.0454
     42 C         -12.0693   -4.2972    0.0033 C.ar    1  LIG1       -0.0316
     43 C         -12.0205   -5.7034    0.0031 C.ar    1  LIG1        0.0320
     44 N         -10.8718   -6.4075    0.0033 N.ar    1  LIG1       -0.2437
     45 H         -10.8639   -2.4896    0.0026 H       1  LIG1        0.0628
     46 H         -13.1134   -6.4072    0.0029 H       1  LIG1        0.0832
     47 N          -7.6685   -7.0405    0.0038 N.1     1  LIG1       -0.1893
     48 C          -8.6302   -6.4161    0.0037 C.1     1  LIG1        0.1198
     49 C         -13.2134   -3.6793    0.0031 C.3     1  LIG1       -0.0383
     50 H         -13.9425   -4.2784    0.5074 H       1  LIG1        0.0278
     51 H         -13.5271   -3.5099   -1.0058 H       1  LIG1        0.0278
     52 H         -13.1120   -2.7410    0.5074 H       1  LIG1        0.0278
@<TRIPOS>BOND
     1    35    33    1
     2    51    49    1
     3    24    25    2
     4    25    19    1
     5    25    34    1
     6    20    18    1
     7    33    26    1
     8    33    36    1
     9    18    19   ar
    10    18    15   ar
    11    19    16   ar
    12    26    31   ar
    13    26    27   ar
    14    31    30   ar
    15     2     8    1
    16     2     1   ar
    17     2     3   ar
    18     4    15    1
    19     4     5   ar
    20     4     3   ar
    21     6     5    1
    22     8     9    3
    23     9    10    1
    24    15    13   ar
    25     5     1   ar
    26     1     7    1
    27     3    11    1
    28    11    12    1
    29    16    27    1
    30    16    14   ar
    31    45    41    1
    32    46    43    1
    33    49    42    1
    34    49    52    1
    35    49    50    1
    36    43    42   ar
    37    43    44   ar
    38    27    28   ar
    39    42    41   ar
    40    44    39   ar
    41    41    40   ar
    42    39    40   ar
    43    39    48    1
    44    40    30    1
    45    48    47    3
    46    30    29   ar
    47    13    14   ar
    48    13    21    1
    49    14    17    1
    50    28    29   ar
    51    28    32    1
    52    29    37    1
    53    21    22    3
    54    37    38    1
    55    22    23    1
