@<TRIPOS>MOLECULE
mol_data/noopt/geoms/mol2/13eg13eg13eg-13eg-.out
 46 49 0 0 0
SMALL
GASTEIGER

@<TRIPOS>ATOM
      1 C           1.1215   -0.3259    0.0002 C.2     1  LIG1        0.0069
      2 C           0.7176    0.9721   -0.0005 C.2     1  LIG1        0.0508
      3 C          -0.7144    0.9744    0.0003 C.2     1  LIG1        0.0448
      4 C          -1.1226   -0.3223   -0.0003 C.3     1  LIG1        0.1345
      5 N          -0.0018   -1.1217    0.0001 N.pl3   1  LIG1       -0.3318
      6 H          -0.0034   -2.1157   -0.0003 H       1  LIG1        0.1469
      7 H           2.3167   -0.8373    0.0007 H       1  LIG1        0.0791
      8 C           1.4918    2.0164   -0.0003 C.1     1  LIG1       -0.0675
      9 C           2.2072    2.9814   -0.0001 C.1     1  LIG1       -0.1138
     10 H           2.8444    3.8409    0.0000 H       1  LIG1        0.1232
     11 S          -1.4853    2.0211    0.0010 S.2     1  LIG1       -0.0527
     12 H          -2.7389    1.6410    0.0012 H       1  LIG1        0.0358
     13 C          -2.3194   -0.8299   -0.0001 C.2     1  LIG1        0.0409
     14 C          -3.5352   -0.2220    0.0163 C.2     1  LIG1       -0.0114
     15 C          -4.5290   -1.2531    0.0088 C.2     1  LIG1        0.0332
     16 C          -3.8768   -2.4456   -0.0136 C.3     1  LIG1        0.1338
     17 N          -2.5238   -2.1911   -0.0187 N.pl3   1  LIG1       -0.3279
     18 H          -1.8082   -2.8808   -0.0339 H       1  LIG1        0.1472
     19 C          -3.7519    1.0596    0.0366 C.3     1  LIG1       -0.0030
     20 C          -3.9521    2.2439    0.0554 C.3     1  LIG1       -0.0262
     21 H          -4.1304    3.2988    0.0722 H       1  LIG1        0.0313
     22 S          -5.8178   -1.0839    0.0207 S.2     1  LIG1       -0.0536
     23 H          -6.4121   -2.2513    0.0247 H       1  LIG1        0.0358
     24 C          -4.3399   -3.6602   -0.0280 C.2     1  LIG1        0.0409
     25 C          -5.6206   -4.1159   -0.0215 C.2     1  LIG1       -0.0114
     26 C          -5.5656   -5.5467   -0.0437 C.2     1  LIG1        0.0334
     27 C          -4.2537   -5.9024   -0.0646 C.3     1  LIG1        0.1363
     28 N          -3.4998   -4.7505   -0.0546 N.pl3   1  LIG1       -0.3277
     29 H          -2.5066   -4.7122   -0.0655 H       1  LIG1        0.1472
     30 C          -6.6950   -3.3844    0.0022 C.3     1  LIG1       -0.0030
     31 C          -7.6877   -2.7085    0.0242 C.3     1  LIG1       -0.0262
     32 H          -8.5721   -2.1064    0.0437 H       1  LIG1        0.0313
     33 S          -6.5806   -6.3589   -0.0444 S.2     1  LIG1       -0.0536
     34 H          -6.1504   -7.5963   -0.0446 H       1  LIG1        0.0359
     35 C          -3.6986   -7.0777   -0.0891 C.ar    1  LIG1        0.0522
     36 C          -4.2575   -8.3168   -0.1060 C.ar    1  LIG1       -0.0072
     37 C          -3.1875   -9.2682   -0.1295 C.ar    1  LIG1        0.0259
     38 C          -2.0219   -8.5687   -0.1276 C.ar    1  LIG1        0.0155
     39 N          -2.3302   -7.2272   -0.1024 N.ar    1  LIG1       -0.3611
     40 H          -1.6696   -6.4845   -0.0957 H       1  LIG1        0.1651
     41 H          -0.7896   -8.9826   -0.1440 H       1  LIG1        0.0818
     42 C          -5.5295   -8.5848   -0.1003 C.3     1  LIG1       -0.0025
     43 C          -6.7049   -8.8324   -0.0950 C.3     1  LIG1       -0.0262
     44 H          -7.7520   -9.0529   -0.0902 H       1  LIG1        0.0313
     45 S          -3.3051  -10.5627   -0.1495 S.3     1  LIG1       -0.1409
     46 H          -2.1148  -11.1098   -0.1562 H       1  LIG1        0.1072
@<TRIPOS>BOND
     1    46    45    1
     2    45    37    1
     3    41    38    1
     4    37    38   ar
     5    37    36   ar
     6    38    39   ar
     7    36    42    1
     8    36    35   ar
     9    39    40    1
    10    39    35   ar
    11    42    43    1
    12    42    34    1
    13    43    44    1
    14    35    27    1
    15    29    28    1
    16    27    28    1
    17    27    26    1
    18    28    24    1
    19    33    26    2
    20    26    25    1
    21    18    17    1
    22    24    25    2
    23    24    16    1
    24    25    30    1
    25    17    16    1
    26    17    13    1
    27    16    15    1
    28     2     8    1
    29     2     1    2
    30     2     3    1
    31     4    13    1
    32     4     5    1
    33     4     3    1
    34     6     5    1
    35     8     9    3
    36     9    10    1
    37    13    14    2
    38     5     1    1
    39     1     7    1
    40     3    11    2
    41    12    19    1
    42    30    31    1
    43    30    23    1
    44    15    14    1
    45    15    22    2
    46    14    19    1
    47    31    32    1
    48    19    20    1
    49    20    21    1
