@<TRIPOS>MOLECULE
mol_data/noopt/geoms/mol2/13eg13eg-13eg13eg.out
 46 49 0 0 0
SMALL
GASTEIGER

@<TRIPOS>ATOM
      1 C           1.1215   -0.3259    0.0002 C.2     1  LIG1        0.0104
      2 C           0.7176    0.9721   -0.0005 C.2     1  LIG1        0.0545
      3 C          -0.7144    0.9744    0.0003 C.2     1  LIG1        0.0584
      4 C          -1.1226   -0.3223   -0.0003 C.2     1  LIG1        0.0683
      5 N          -0.0018   -1.1217    0.0001 N.pl3   1  LIG1       -0.3170
      6 H          -0.0034   -2.1157   -0.0003 H       1  LIG1        0.1517
      7 H           2.3167   -0.8373    0.0007 H       1  LIG1        0.0794
      8 C           1.4918    2.0164   -0.0003 C.1     1  LIG1       -0.0672
      9 C           2.2072    2.9814   -0.0001 C.1     1  LIG1       -0.1138
     10 H           2.8444    3.8409    0.0000 H       1  LIG1        0.1232
     11 S          -1.4853    2.0211    0.0010 S.2     1  LIG1       -0.0487
     12 H          -2.7389    1.6410    0.0012 H       1  LIG1        0.0582
     13 C          -2.3194   -0.8299   -0.0001 C.2     1  LIG1        0.0585
     14 C          -3.5353   -0.2219   -0.0003 C.2     1  LIG1        0.0068
     15 C          -4.5290   -1.2530    0.0012 C.2     1  LIG1        0.0369
     16 C          -3.8767   -2.4457    0.0005 C.3     1  LIG1        0.1343
     17 N          -2.5238   -2.1913    0.0002 N.pl3   1  LIG1       -0.3249
     18 H          -1.8081   -2.8811   -0.0004 H       1  LIG1        0.1474
     19 C          -3.7520    1.0599   -0.0003 C.2     1  LIG1       -0.0699
     20 C          -3.9522    2.2443   -0.0003 C.3     1  LIG1       -0.0083
     21 H          -4.1306    3.2993   -0.0002 H       1  LIG1        0.0355
     22 S          -5.8179   -1.0837    0.0025 S.2     1  LIG1       -0.0533
     23 H          -6.4122   -2.2511    0.0029 H       1  LIG1        0.0358
     24 C          -4.3398   -3.6604    0.0012 C.2     1  LIG1        0.0409
     25 C          -5.6206   -4.1160    0.0013 C.2     1  LIG1       -0.0114
     26 C          -5.5655   -5.5470    0.0033 C.2     1  LIG1        0.0334
     27 C          -4.2535   -5.9029    0.0026 C.3     1  LIG1        0.1363
     28 N          -3.4996   -4.7510    0.0018 N.pl3   1  LIG1       -0.3277
     29 H          -2.5064   -4.7127    0.0010 H       1  LIG1        0.1472
     30 C          -6.6951   -3.3843    0.0012 C.3     1  LIG1       -0.0030
     31 C          -7.6879   -2.7082    0.0012 C.3     1  LIG1       -0.0262
     32 H          -8.5723   -2.1059    0.0011 H       1  LIG1        0.0313
     33 S          -6.5805   -6.3592    0.0050 S.2     1  LIG1       -0.0536
     34 H          -6.1504   -7.5965    0.0056 H       1  LIG1        0.0359
     35 C          -3.6983   -7.0784    0.0036 C.ar    1  LIG1        0.0522
     36 C          -4.2570   -8.3176    0.0205 C.ar    1  LIG1       -0.0072
     37 C          -3.1869   -9.2692    0.0139 C.ar    1  LIG1        0.0259
     38 C          -2.0215   -8.5697   -0.0086 C.ar    1  LIG1        0.0155
     39 N          -2.3300   -7.2281   -0.0145 N.ar    1  LIG1       -0.3611
     40 H          -1.6695   -6.4854   -0.0300 H       1  LIG1        0.1651
     41 H          -0.7893   -8.9838   -0.0224 H       1  LIG1        0.0818
     42 C          -5.5289   -8.5854    0.0407 C.3     1  LIG1       -0.0025
     43 C          -6.7042   -8.8329    0.0593 C.3     1  LIG1       -0.0262
     44 H          -7.7511   -9.0533    0.0759 H       1  LIG1        0.0313
     45 S          -3.3044  -10.5638    0.0265 S.3     1  LIG1       -0.1409
     46 H          -2.1140  -11.1108    0.0307 H       1  LIG1        0.1072
@<TRIPOS>BOND
     1    40    39    1
     2    41    38    1
     3    39    38   ar
     4    39    35   ar
     5    38    37   ar
     6     2     8    1
     7     2     1    2
     8     2     3    1
     9    18    17    1
    10    14    19    2
    11    14    13    1
    12    14    15    1
    13     4    13    2
    14     4     5    1
    15     4     3    1
    16     6     5    1
    17     8     9    3
    18    19    20    1
    19    19    12    1
    20    20    21    1
    21     9    10    1
    22    13    17    1
    23     5     1    1
    24    17    16    1
    25     1     7    1
    26     3    11    2
    27    16    15    1
    28    16    24    1
    29    29    28    1
    30    32    31    1
    31    31    30    1
    32    15    22    2
    33    24    25    2
    34    24    28    1
    35    30    25    1
    36    30    23    1
    37    25    26    1
    38    28    27    1
    39    27    26    1
    40    27    35    1
    41    26    33    2
    42    35    36   ar
    43    34    42    1
    44    37    36   ar
    45    37    45    1
    46    36    42    1
    47    45    46    1
    48    42    43    1
    49    43    44    1
