@<TRIPOS>MOLECULE
mol_data/noopt/geoms/mol2/13eg13eg13eg13eg.out
 46 49 0 0 0
SMALL
GASTEIGER

@<TRIPOS>ATOM
      1 C           1.1215   -0.3259    0.0002 C.2     1  LIG1        0.0069
      2 C           0.7176    0.9721   -0.0005 C.2     1  LIG1        0.0508
      3 C          -0.7144    0.9744    0.0003 C.2     1  LIG1        0.0448
      4 C          -1.1226   -0.3223   -0.0003 C.3     1  LIG1        0.1345
      5 N          -0.0018   -1.1217    0.0001 N.pl3   1  LIG1       -0.3318
      6 H          -0.0034   -2.1157   -0.0003 H       1  LIG1        0.1469
      7 H           2.3167   -0.8373    0.0007 H       1  LIG1        0.0791
      8 C           1.4918    2.0164   -0.0003 C.1     1  LIG1       -0.0675
      9 C           2.2072    2.9814   -0.0001 C.1     1  LIG1       -0.1138
     10 H           2.8444    3.8409    0.0000 H       1  LIG1        0.1232
     11 S          -1.4853    2.0211    0.0010 S.2     1  LIG1       -0.0527
     12 H          -2.7389    1.6410    0.0012 H       1  LIG1        0.0358
     13 C          -2.3194   -0.8299   -0.0001 C.2     1  LIG1        0.0409
     14 C          -3.5352   -0.2220    0.0163 C.2     1  LIG1       -0.0114
     15 C          -4.5290   -1.2531    0.0088 C.2     1  LIG1        0.0332
     16 C          -3.8768   -2.4456   -0.0136 C.3     1  LIG1        0.1338
     17 N          -2.5238   -2.1911   -0.0187 N.pl3   1  LIG1       -0.3279
     18 H          -1.8082   -2.8808   -0.0339 H       1  LIG1        0.1472
     19 C          -3.7519    1.0596    0.0366 C.3     1  LIG1       -0.0030
     20 C          -3.9521    2.2439    0.0554 C.3     1  LIG1       -0.0262
     21 H          -4.1304    3.2988    0.0722 H       1  LIG1        0.0313
     22 S          -5.8178   -1.0839    0.0207 S.2     1  LIG1       -0.0536
     23 H          -6.4121   -2.2513    0.0247 H       1  LIG1        0.0358
     24 C          -4.3399   -3.6602   -0.0280 C.2     1  LIG1        0.0409
     25 C          -5.6207   -4.1157   -0.0381 C.2     1  LIG1       -0.0114
     26 C          -5.5656   -5.5466   -0.0513 C.2     1  LIG1        0.0334
     27 C          -4.2537   -5.9026   -0.0505 C.3     1  LIG1        0.1363
     28 N          -3.4998   -4.7508   -0.0358 N.pl3   1  LIG1       -0.3277
     29 H          -2.5065   -4.7126   -0.0320 H       1  LIG1        0.1472
     30 C          -6.6951   -3.3839   -0.0347 C.3     1  LIG1       -0.0030
     31 C          -7.6879   -2.7077   -0.0315 C.3     1  LIG1       -0.0262
     32 H          -8.5723   -2.1054   -0.0287 H       1  LIG1        0.0313
     33 S          -6.5807   -6.3587   -0.0626 S.2     1  LIG1       -0.0536
     34 H          -6.1507   -7.5961   -0.0664 H       1  LIG1        0.0359
     35 C          -3.6985   -7.0781   -0.0599 C.ar    1  LIG1        0.0522
     36 C          -4.2572   -8.3173   -0.0500 C.ar    1  LIG1       -0.0072
     37 C          -3.1873   -9.2689   -0.0673 C.ar    1  LIG1        0.0259
     38 C          -2.0218   -8.5693   -0.0887 C.ar    1  LIG1        0.0155
     39 N          -2.3303   -7.2277   -0.0838 N.ar    1  LIG1       -0.3611
     40 H          -1.6699   -6.4849   -0.0962 H       1  LIG1        0.1651
     41 H          -0.7897   -8.9833   -0.1097 H       1  LIG1        0.0818
     42 C          -5.5291   -8.5853   -0.0275 C.3     1  LIG1       -0.0025
     43 C          -6.7043   -8.8329   -0.0066 C.3     1  LIG1       -0.0262
     44 H          -7.7512   -9.0534    0.0120 H       1  LIG1        0.0313
     45 S          -3.3047  -10.5636   -0.0637 S.3     1  LIG1       -0.1409
     46 H          -2.1143  -11.1106   -0.0625 H       1  LIG1        0.1072
@<TRIPOS>BOND
     1    41    38    1
     2    40    39    1
     3    38    39   ar
     4    38    37   ar
     5    39    35   ar
     6    37    45    1
     7    37    36   ar
     8    34    42    1
     9    45    46    1
    10    33    26    2
    11    35    27    1
    12    35    36   ar
    13    26    27    1
    14    26    25    1
    15    27    28    1
    16    36    42    1
    17    25    30    1
    18    25    24    2
    19    28    29    1
    20    28    24    1
    21    30    31    1
    22    30    23    1
    23    18    17    1
    24    31    32    1
    25    24    16    1
    26    42    43    1
    27    17    16    1
    28    17    13    1
    29    16    15    1
    30    43    44    1
    31     2     8    1
    32     2     1    2
    33     2     3    1
    34     4    13    1
    35     4     5    1
    36     4     3    1
    37     6     5    1
    38     8     9    3
    39     9    10    1
    40    13    14    2
    41     5     1    1
    42     1     7    1
    43     3    11    2
    44    12    19    1
    45    15    14    1
    46    15    22    2
    47    14    19    1
    48    19    20    1
    49    20    21    1
