@<TRIPOS>MOLECULE
mol_data/noopt/geoms/mol2/13eg13eg-13eg-13eg-.out
 46 49 0 0 0
SMALL
GASTEIGER

@<TRIPOS>ATOM
      1 C           1.1215   -0.3259    0.0002 C.2     1  LIG1        0.0104
      2 C           0.7176    0.9721   -0.0005 C.2     1  LIG1        0.0545
      3 C          -0.7144    0.9744    0.0003 C.2     1  LIG1        0.0584
      4 C          -1.1226   -0.3223   -0.0003 C.2     1  LIG1        0.0683
      5 N          -0.0018   -1.1217    0.0001 N.pl3   1  LIG1       -0.3170
      6 H          -0.0034   -2.1157   -0.0003 H       1  LIG1        0.1517
      7 H           2.3167   -0.8373    0.0007 H       1  LIG1        0.0794
      8 C           1.4918    2.0164   -0.0003 C.1     1  LIG1       -0.0672
      9 C           2.2072    2.9814   -0.0001 C.1     1  LIG1       -0.1138
     10 H           2.8444    3.8409    0.0000 H       1  LIG1        0.1232
     11 S          -1.4853    2.0211    0.0010 S.2     1  LIG1       -0.0487
     12 H          -2.7389    1.6410    0.0012 H       1  LIG1        0.0582
     13 C          -2.3194   -0.8299   -0.0001 C.2     1  LIG1        0.0585
     14 C          -3.5353   -0.2219   -0.0003 C.2     1  LIG1        0.0068
     15 C          -4.5290   -1.2530    0.0012 C.2     1  LIG1        0.0369
     16 C          -3.8767   -2.4457    0.0005 C.3     1  LIG1        0.1343
     17 N          -2.5238   -2.1913    0.0002 N.pl3   1  LIG1       -0.3249
     18 H          -1.8081   -2.8811   -0.0004 H       1  LIG1        0.1474
     19 C          -3.7520    1.0599   -0.0003 C.2     1  LIG1       -0.0699
     20 C          -3.9522    2.2443   -0.0003 C.3     1  LIG1       -0.0083
     21 H          -4.1306    3.2993   -0.0002 H       1  LIG1        0.0355
     22 S          -5.8179   -1.0837    0.0025 S.2     1  LIG1       -0.0533
     23 H          -6.4122   -2.2511    0.0029 H       1  LIG1        0.0358
     24 C          -4.3398   -3.6604    0.0012 C.2     1  LIG1        0.0409
     25 C          -5.6205   -4.1161    0.0179 C.2     1  LIG1       -0.0114
     26 C          -5.5654   -5.5470    0.0109 C.2     1  LIG1        0.0334
     27 C          -4.2536   -5.9029   -0.0115 C.3     1  LIG1        0.1363
     28 N          -3.4998   -4.7509   -0.0171 N.pl3   1  LIG1       -0.3277
     29 H          -2.5066   -4.7126   -0.0325 H       1  LIG1        0.1472
     30 C          -6.6948   -3.3844    0.0381 C.3     1  LIG1       -0.0030
     31 C          -7.6875   -2.7083    0.0568 C.3     1  LIG1       -0.0262
     32 H          -8.5718   -2.1061    0.0735 H       1  LIG1        0.0313
     33 S          -6.5803   -6.3592    0.0232 S.2     1  LIG1       -0.0536
     34 H          -6.1501   -7.5966    0.0273 H       1  LIG1        0.0359
     35 C          -3.6985   -7.0783   -0.0256 C.ar    1  LIG1        0.0522
     36 C          -4.2574   -8.3175   -0.0355 C.ar    1  LIG1       -0.0072
     37 C          -3.1874   -9.2691   -0.0484 C.ar    1  LIG1        0.0259
     38 C          -2.0218   -8.5696   -0.0476 C.ar    1  LIG1        0.0155
     39 N          -2.3301   -7.2280   -0.0332 N.ar    1  LIG1       -0.3611
     40 H          -1.6695   -6.4853   -0.0295 H       1  LIG1        0.1651
     41 H          -0.7895   -8.9837   -0.0567 H       1  LIG1        0.0818
     42 C          -5.5295   -8.5853   -0.0321 C.3     1  LIG1       -0.0025
     43 C          -6.7049   -8.8328   -0.0290 C.3     1  LIG1       -0.0262
     44 H          -7.7520   -9.0533   -0.0263 H       1  LIG1        0.0313
     45 S          -3.3050  -10.5637   -0.0593 S.3     1  LIG1       -0.1409
     46 H          -2.1148  -11.1109   -0.0630 H       1  LIG1        0.1072
@<TRIPOS>BOND
     1    46    45    1
     2    45    37    1
     3    41    38    1
     4    37    38   ar
     5    37    36   ar
     6    38    39   ar
     7    36    42    1
     8    36    35   ar
     9    39    40    1
    10    39    35   ar
    11    29    28    1
    12    42    43    1
    13    42    34    1
    14    43    44    1
    15    35    27    1
    16    28    27    1
    17    28    24    1
    18    27    26    1
    19     2     8    1
    20     2     1    2
    21     2     3    1
    22    18    17    1
    23    14    19    2
    24    14    13    1
    25    14    15    1
    26     8     9    3
    27     6     5    1
    28     4    13    2
    29     4     5    1
    30     4     3    1
    31    19    20    1
    32    19    12    1
    33    20    21    1
    34     9    10    1
    35    13    17    1
    36     5     1    1
    37    17    16    1
    38     1     7    1
    39     3    11    2
    40    16    15    1
    41    16    24    1
    42    15    22    2
    43    24    25    2
    44    23    30    1
    45    26    25    1
    46    26    33    2
    47    25    30    1
    48    30    31    1
    49    31    32    1
