@<TRIPOS>MOLECULE
mol_data/noopt/geoms/mol2/13eg.out
 13 13 0 0 0
SMALL
GASTEIGER

@<TRIPOS>ATOM
      1 C           1.1215   -0.3259    0.0002 C.ar    1  LIG1        0.0183
      2 C           0.7176    0.9721   -0.0005 C.ar    1  LIG1        0.0551
      3 C          -0.7144    0.9744    0.0003 C.ar    1  LIG1        0.0375
      4 C          -1.1226   -0.3223   -0.0003 C.ar    1  LIG1        0.0161
      5 N          -0.0018   -1.1217    0.0001 N.ar    1  LIG1       -0.3650
      6 H          -0.0034   -2.1157   -0.0003 H       1  LIG1        0.1648
      7 H          -2.3194   -0.8299   -0.0001 H       1  LIG1        0.0818
      8 H           2.3167   -0.8373    0.0007 H       1  LIG1        0.0819
      9 C           1.4918    2.0164   -0.0003 C.1     1  LIG1       -0.0671
     10 C           2.2072    2.9814   -0.0001 C.1     1  LIG1       -0.1138
     11 H           2.8444    3.8409    0.0000 H       1  LIG1        0.1232
     12 S          -1.4853    2.0211    0.0010 S.3     1  LIG1       -0.1400
     13 H          -2.7389    1.6410    0.0012 H       1  LIG1        0.1072
@<TRIPOS>BOND
     1     2     9    1
     2     2     1   ar
     3     2     3   ar
     4     4     7    1
     5     4     5   ar
     6     4     3   ar
     7     6     5    1
     8     9    10    3
     9    10    11    1
    10     5     1   ar
    11     1     8    1
    12     3    12    1
    13    12    13    1
