@<TRIPOS>MOLECULE
mol_data/noopt/geoms/mol2/13eg13eg-13eg.out
 35 37 0 0 0
SMALL
GASTEIGER

@<TRIPOS>ATOM
      1 C           1.1215   -0.3259    0.0002 C.2     1  LIG1        0.0104
      2 C           0.7176    0.9721   -0.0005 C.2     1  LIG1        0.0545
      3 C          -0.7144    0.9744    0.0003 C.2     1  LIG1        0.0584
      4 C          -1.1226   -0.3223   -0.0003 C.2     1  LIG1        0.0683
      5 N          -0.0018   -1.1217    0.0001 N.pl3   1  LIG1       -0.3170
      6 H          -0.0034   -2.1157   -0.0003 H       1  LIG1        0.1517
      7 H           2.3167   -0.8373    0.0007 H       1  LIG1        0.0794
      8 C           1.4918    2.0164   -0.0003 C.1     1  LIG1       -0.0672
      9 C           2.2072    2.9814   -0.0001 C.1     1  LIG1       -0.1138
     10 H           2.8444    3.8409    0.0000 H       1  LIG1        0.1232
     11 S          -1.4853    2.0211    0.0010 S.2     1  LIG1       -0.0487
     12 H          -2.7389    1.6410    0.0012 H       1  LIG1        0.0582
     13 C          -2.3194   -0.8299   -0.0001 C.2     1  LIG1        0.0585
     14 C          -3.5353   -0.2219   -0.0003 C.2     1  LIG1        0.0068
     15 C          -4.5290   -1.2530    0.0012 C.2     1  LIG1        0.0371
     16 C          -3.8767   -2.4457    0.0005 C.3     1  LIG1        0.1368
     17 N          -2.5238   -2.1913    0.0002 N.pl3   1  LIG1       -0.3248
     18 H          -1.8081   -2.8811   -0.0004 H       1  LIG1        0.1474
     19 C          -3.7520    1.0599   -0.0003 C.2     1  LIG1       -0.0699
     20 C          -3.9522    2.2443   -0.0003 C.3     1  LIG1       -0.0083
     21 H          -4.1306    3.2993   -0.0002 H       1  LIG1        0.0355
     22 S          -5.8179   -1.0837    0.0025 S.2     1  LIG1       -0.0533
     23 H          -6.4122   -2.2511    0.0029 H       1  LIG1        0.0359
     24 C          -4.3398   -3.6604    0.0012 C.ar    1  LIG1        0.0522
     25 C          -5.6206   -4.1160    0.0013 C.ar    1  LIG1       -0.0072
     26 C          -5.5655   -5.5470    0.0033 C.ar    1  LIG1        0.0259
     27 C          -4.2535   -5.9029    0.0026 C.ar    1  LIG1        0.0155
     28 N          -3.4996   -4.7510    0.0018 N.ar    1  LIG1       -0.3611
     29 H          -2.5064   -4.7127    0.0010 H       1  LIG1        0.1651
     30 H          -3.6983   -7.0784    0.0036 H       1  LIG1        0.0818
     31 C          -6.6951   -3.3843    0.0012 C.3     1  LIG1       -0.0025
     32 C          -7.6879   -2.7082    0.0012 C.3     1  LIG1       -0.0262
     33 H          -8.5723   -2.1059    0.0011 H       1  LIG1        0.0313
     34 S          -6.5805   -6.3592    0.0050 S.3     1  LIG1       -0.1409
     35 H          -6.1504   -7.5965    0.0056 H       1  LIG1        0.1072
@<TRIPOS>BOND
     1     2     8    1
     2     2     1    2
     3     2     3    1
     4    18    17    1
     5    14    19    2
     6    14    13    1
     7    14    15    1
     8     4    13    2
     9     4     5    1
    10     4     3    1
    11     6     5    1
    12     8     9    3
    13    19    20    1
    14    19    12    1
    15    20    21    1
    16     9    10    1
    17    13    17    1
    18     5     1    1
    19    17    16    1
    20     1     7    1
    21     3    11    2
    22    16    15    1
    23    16    24    1
    24    29    28    1
    25    33    32    1
    26    32    31    1
    27    15    22    2
    28    24    25   ar
    29    24    28   ar
    30    31    25    1
    31    31    23    1
    32    25    26   ar
    33    28    27   ar
    34    27    26   ar
    35    27    30    1
    36    26    34    1
    37    34    35    1
