@<TRIPOS>MOLECULE
mol_data/noopt/geoms/mol2/13eg13eg-.out
 24 25 0 0 0
SMALL
GASTEIGER

@<TRIPOS>ATOM
      1 C           1.1215   -0.3259    0.0002 C.2     1  LIG1        0.0069
      2 C           0.7176    0.9721   -0.0005 C.2     1  LIG1        0.0509
      3 C          -0.7144    0.9744    0.0003 C.2     1  LIG1        0.0450
      4 C          -1.1226   -0.3223   -0.0003 C.3     1  LIG1        0.1370
      5 N          -0.0018   -1.1217    0.0001 N.pl3   1  LIG1       -0.3316
      6 H          -0.0034   -2.1157   -0.0003 H       1  LIG1        0.1469
      7 H           2.3167   -0.8373    0.0007 H       1  LIG1        0.0791
      8 C           1.4918    2.0164   -0.0003 C.1     1  LIG1       -0.0675
      9 C           2.2072    2.9814   -0.0001 C.1     1  LIG1       -0.1138
     10 H           2.8444    3.8409    0.0000 H       1  LIG1        0.1232
     11 S          -1.4853    2.0211    0.0010 S.2     1  LIG1       -0.0527
     12 H          -2.7389    1.6410    0.0012 H       1  LIG1        0.0359
     13 C          -2.3194   -0.8299   -0.0001 C.ar    1  LIG1        0.0522
     14 C          -3.5353   -0.2219   -0.0003 C.ar    1  LIG1       -0.0072
     15 C          -4.5290   -1.2530    0.0012 C.ar    1  LIG1        0.0259
     16 C          -3.8767   -2.4457    0.0005 C.ar    1  LIG1        0.0155
     17 N          -2.5238   -2.1913    0.0002 N.ar    1  LIG1       -0.3611
     18 H          -1.8081   -2.8811   -0.0004 H       1  LIG1        0.1651
     19 H          -4.3398   -3.6604    0.0012 H       1  LIG1        0.0818
     20 C          -3.7520    1.0599   -0.0003 C.3     1  LIG1       -0.0025
     21 C          -3.9522    2.2443   -0.0003 C.3     1  LIG1       -0.0262
     22 H          -4.1306    3.2993   -0.0002 H       1  LIG1        0.0313
     23 S          -5.8179   -1.0837    0.0025 S.3     1  LIG1       -0.1409
     24 H          -6.4122   -2.2511    0.0029 H       1  LIG1        0.1072
@<TRIPOS>BOND
     1     2     8    1
     2     2     1    2
     3     2     3    1
     4    18    17    1
     5    14    20    1
     6    14    13   ar
     7    14    15   ar
     8     4    13    1
     9     4     5    1
    10     4     3    1
    11     6     5    1
    12     8     9    3
    13    20    21    1
    14    20    12    1
    15    21    22    1
    16     9    10    1
    17    13    17   ar
    18     5     1    1
    19    17    16   ar
    20     1     7    1
    21     3    11    2
    22    16    15   ar
    23    16    19    1
    24    15    23    1
    25    23    24    1
