@<TRIPOS>MOLECULE
mol_data/noopt/geoms/mol2/13eg13eg13eg.out
 35 37 0 0 0
SMALL
GASTEIGER

@<TRIPOS>ATOM
      1 C           1.1215   -0.3259    0.0002 C.2     1  LIG1        0.0069
      2 C           0.7176    0.9721   -0.0005 C.2     1  LIG1        0.0508
      3 C          -0.7144    0.9744    0.0003 C.2     1  LIG1        0.0448
      4 C          -1.1226   -0.3223   -0.0003 C.3     1  LIG1        0.1345
      5 N          -0.0018   -1.1217    0.0001 N.pl3   1  LIG1       -0.3318
      6 H          -0.0034   -2.1157   -0.0003 H       1  LIG1        0.1469
      7 H           2.3167   -0.8373    0.0007 H       1  LIG1        0.0791
      8 C           1.4918    2.0164   -0.0003 C.1     1  LIG1       -0.0675
      9 C           2.2072    2.9814   -0.0001 C.1     1  LIG1       -0.1138
     10 H           2.8444    3.8409    0.0000 H       1  LIG1        0.1232
     11 S          -1.4853    2.0211    0.0010 S.2     1  LIG1       -0.0527
     12 H          -2.7389    1.6410    0.0012 H       1  LIG1        0.0358
     13 C          -2.3194   -0.8299   -0.0001 C.2     1  LIG1        0.0409
     14 C          -3.5352   -0.2220    0.0163 C.2     1  LIG1       -0.0114
     15 C          -4.5290   -1.2531    0.0088 C.2     1  LIG1        0.0334
     16 C          -3.8768   -2.4456   -0.0136 C.3     1  LIG1        0.1363
     17 N          -2.5238   -2.1911   -0.0187 N.pl3   1  LIG1       -0.3277
     18 H          -1.8082   -2.8808   -0.0339 H       1  LIG1        0.1472
     19 C          -3.7519    1.0596    0.0366 C.3     1  LIG1       -0.0030
     20 C          -3.9521    2.2439    0.0554 C.3     1  LIG1       -0.0262
     21 H          -4.1304    3.2988    0.0722 H       1  LIG1        0.0313
     22 S          -5.8178   -1.0839    0.0207 S.2     1  LIG1       -0.0536
     23 H          -6.4121   -2.2513    0.0247 H       1  LIG1        0.0359
     24 C          -4.3399   -3.6602   -0.0280 C.ar    1  LIG1        0.0522
     25 C          -5.6207   -4.1157   -0.0381 C.ar    1  LIG1       -0.0072
     26 C          -5.5656   -5.5466   -0.0513 C.ar    1  LIG1        0.0259
     27 C          -4.2537   -5.9026   -0.0505 C.ar    1  LIG1        0.0155
     28 N          -3.4998   -4.7508   -0.0358 N.ar    1  LIG1       -0.3611
     29 H          -2.5065   -4.7126   -0.0320 H       1  LIG1        0.1651
     30 H          -3.6986   -7.0781   -0.0599 H       1  LIG1        0.0818
     31 C          -6.6951   -3.3839   -0.0347 C.3     1  LIG1       -0.0025
     32 C          -7.6879   -2.7077   -0.0315 C.3     1  LIG1       -0.0262
     33 H          -8.5723   -2.1054   -0.0287 H       1  LIG1        0.0313
     34 S          -6.5807   -6.3587   -0.0626 S.3     1  LIG1       -0.1409
     35 H          -6.1507   -7.5961   -0.0664 H       1  LIG1        0.1072
@<TRIPOS>BOND
     1    35    34    1
     2    34    26    1
     3    30    27    1
     4    26    27   ar
     5    26    25   ar
     6    27    28   ar
     7    25    31    1
     8    25    24   ar
     9    28    29    1
    10    28    24   ar
    11    31    32    1
    12    31    23    1
    13    18    17    1
    14    32    33    1
    15    24    16    1
    16    17    16    1
    17    17    13    1
    18    16    15    1
    19     2     8    1
    20     2     1    2
    21     2     3    1
    22     4    13    1
    23     4     5    1
    24     4     3    1
    25     6     5    1
    26     8     9    3
    27     9    10    1
    28    13    14    2
    29     5     1    1
    30     1     7    1
    31     3    11    2
    32    12    19    1
    33    15    14    1
    34    15    22    2
    35    14    19    1
    36    19    20    1
    37    20    21    1
