@<TRIPOS>MOLECULE
mol_data/noopt/geoms/mol2/13eh13eh-13eh13eh-.out
 50 53 0 0 0
SMALL
GASTEIGER

@<TRIPOS>ATOM
      1 C           1.1215   -0.3259    0.0002 C.ar    1  LIG1        0.0195
      2 C           0.7176    0.9721   -0.0005 C.ar    1  LIG1        0.0632
      3 C          -0.7144    0.9744    0.0003 C.ar    1  LIG1        0.0672
      4 C          -1.1226   -0.3223   -0.0003 C.ar    1  LIG1        0.0863
      5 N          -0.0018   -1.1217    0.0001 N.ar    1  LIG1       -0.3569
      6 H          -0.0034   -2.1157   -0.0003 H       1  LIG1        0.1655
      7 H           2.3167   -0.8373    0.0007 H       1  LIG1        0.0820
      8 C           1.4918    2.0164   -0.0003 C.1     1  LIG1       -0.0663
      9 C           2.2072    2.9814   -0.0001 C.1     1  LIG1       -0.1138
     10 H           2.8444    3.8409    0.0000 H       1  LIG1        0.1232
     11 N          -1.4853    2.0212    0.0010 N.pl3   1  LIG1       -0.3553
     12 H          -1.0256    2.7740   -0.4702 H       1  LIG1        0.1424
     13 H          -2.3405    1.8056   -0.4703 H       1  LIG1        0.1424
     14 C          -2.3194   -0.8299   -0.0001 C.ar    1  LIG1        0.0826
     15 C          -2.7274   -2.1266   -0.0005 C.ar    1  LIG1        0.0727
     16 C          -4.1594   -2.1244    0.0011 C.ar    1  LIG1        0.0679
     17 C          -4.5635   -0.8264    0.0006 C.ar    1  LIG1        0.0868
     18 N          -3.4402   -0.0305    0.0003 N.ar    1  LIG1       -0.3493
     19 H          -3.4386    0.9635   -0.0001 H       1  LIG1        0.1661
     20 C          -1.9565   -3.1734   -0.0006 C.1     1  LIG1       -0.0656
     21 C          -1.2442   -4.1406   -0.0007 C.1     1  LIG1       -0.1138
     22 H          -0.6097   -5.0022   -0.0008 H       1  LIG1        0.1232
     23 N          -4.9336   -3.1687    0.0023 N.pl3   1  LIG1       -0.3553
     24 H          -5.7883   -2.9506   -0.4688 H       1  LIG1        0.1424
     25 H          -4.4765   -3.9231   -0.4688 H       1  LIG1        0.1424
     26 C          -5.7587   -0.3150    0.0014 C.ar    1  LIG1        0.0826
     27 C          -6.1626    0.9830    0.0016 C.ar    1  LIG1        0.0727
     28 C          -7.5946    0.9853    0.0038 C.ar    1  LIG1        0.0679
     29 C          -8.0028   -0.3114    0.0030 C.ar    1  LIG1        0.0868
     30 N          -6.8820   -1.1108    0.0021 N.ar    1  LIG1       -0.3493
     31 H          -6.8836   -2.1048    0.0013 H       1  LIG1        0.1661
     32 C          -5.3884    2.0273    0.0015 C.1     1  LIG1       -0.0656
     33 C          -4.6730    2.9923    0.0014 C.1     1  LIG1       -0.1138
     34 H          -4.0358    3.8518    0.0013 H       1  LIG1        0.1232
     35 N          -8.3655    2.0321    0.0056 N.pl3   1  LIG1       -0.3553
     36 H          -7.9061    2.7852   -0.4653 H       1  LIG1        0.1424
     37 H          -9.2210    1.8169   -0.4654 H       1  LIG1        0.1424
     38 C          -9.1996   -0.8190    0.0041 C.ar    1  LIG1        0.0821
     39 C          -9.6076   -2.1157    0.0044 C.ar    1  LIG1        0.0720
     40 C         -11.0396   -2.1135    0.0069 C.ar    1  LIG1        0.0584
     41 C         -11.4437   -0.8155    0.0063 C.ar    1  LIG1        0.0243
     42 N         -10.3204   -0.0196    0.0051 N.ar    1  LIG1       -0.3569
     43 H         -10.3188    0.9744    0.0043 H       1  LIG1        0.1655
     44 H         -12.6389   -0.3041    0.0077 H       1  LIG1        0.0826
     45 C          -8.8367   -3.1625    0.0040 C.1     1  LIG1       -0.0656
     46 C          -8.1244   -4.1297    0.0037 C.1     1  LIG1       -0.1138
     47 H          -7.4899   -4.9913    0.0034 H       1  LIG1        0.1232
     48 N         -11.8139   -3.1578    0.0089 N.pl3   1  LIG1       -0.3559
     49 H         -12.6687   -2.9399   -0.4620 H       1  LIG1        0.1424
     50 H         -11.3569   -3.9124   -0.4620 H       1  LIG1        0.1424
@<TRIPOS>BOND
     1    13    11    1
     2    12    11    1
     3    25    23    1
     4    24    23    1
     5    37    35    1
     6    36    35    1
     7    50    48    1
     8    49    48    1
     9    22    21    1
    10    21    20    3
    11    20    15    1
    12     2     8    1
    13     2     1   ar
    14     2     3   ar
    15    15    14   ar
    16    15    16   ar
    17     8     9    3
    18     6     5    1
    19     4    14    1
    20     4     5   ar
    21     4     3   ar
    22    19    18    1
    23     9    10    1
    24    14    18   ar
    25     5     1   ar
    26     1     7    1
    27     3    11    1
    28    18    17   ar
    29    17    16   ar
    30    17    26    1
    31    16    23    1
    32    31    30    1
    33    34    33    1
    34    33    32    3
    35    26    27   ar
    36    26    30   ar
    37    32    27    1
    38    27    28   ar
    39    30    29   ar
    40    29    28   ar
    41    29    38    1
    42    47    46    1
    43    46    45    3
    44    28    35    1
    45    45    39    1
    46    38    39   ar
    47    38    42   ar
    48    43    42    1
    49    39    40   ar
    50    42    41   ar
    51    41    40   ar
    52    41    44    1
    53    40    48    1
