@<TRIPOS>MOLECULE
mol_data/noopt/geoms/mol2/13eh12ha13id-12hf-6il6ie-12ha-13he-.out
 96 103 0 0 0
SMALL
GASTEIGER

@<TRIPOS>ATOM
      1 C           1.1215   -0.3259    0.0002 C.ar    1  LIG1        0.0195
      2 C           0.7176    0.9721   -0.0005 C.ar    1  LIG1        0.0633
      3 C          -0.7144    0.9744    0.0003 C.ar    1  LIG1        0.0689
      4 C          -1.1226   -0.3223   -0.0003 C.ar    1  LIG1        0.1061
      5 N          -0.0018   -1.1217    0.0001 N.ar    1  LIG1       -0.3556
      6 H          -0.0034   -2.1157   -0.0003 H       1  LIG1        0.1655
      7 H           2.3167   -0.8373    0.0007 H       1  LIG1        0.0820
      8 C           1.4918    2.0164   -0.0003 C.1     1  LIG1       -0.0663
      9 C           2.2072    2.9814   -0.0001 C.1     1  LIG1       -0.1138
     10 H           2.8444    3.8409    0.0000 H       1  LIG1        0.1232
     11 N          -1.4853    2.0212    0.0010 N.pl3   1  LIG1       -0.3553
     12 H          -1.0256    2.7740   -0.4702 H       1  LIG1        0.1424
     13 H          -2.3405    1.8056   -0.4703 H       1  LIG1        0.1424
     14 C          -2.3194   -0.8299   -0.0001 C.ar    1  LIG1        0.1741
     15 C          -3.6024   -0.3233    0.0148 C.ar    1  LIG1        0.0731
     16 C          -4.4979   -1.4613    0.0044 C.ar    1  LIG1        0.0071
     17 C          -3.7022   -2.5883   -0.0164 C.ar    1  LIG1        0.1540
     18 O          -2.3551   -2.2249   -0.0196 O.2     1  LIG1       -0.4499
     19 N          -3.9648    0.9250    0.0347 N.pl3   1  LIG1       -0.3550
     20 H          -3.2756    1.4796   -0.4316 H       1  LIG1        0.1424
     21 H          -4.8438    1.0244   -0.4317 H       1  LIG1        0.1424
     22 H          -5.7965   -1.4036    0.0131 H       1  LIG1        0.0675
     23 C          -3.9133   -3.8710   -0.0331 C.ar    1  LIG1        0.0869
     24 C          -5.0771   -4.5734   -0.0282 C.ar    1  LIG1       -0.0041
     25 C          -4.7373   -5.9643   -0.0528 C.ar    1  LIG1        0.0836
     26 C          -3.3807   -6.0506   -0.0734 C.ar    1  LIG1        0.1024
     27 N          -2.8723   -4.7713   -0.0610 N.ar    1  LIG1       -0.3481
     28 H          -1.9068   -4.5352   -0.0712 H       1  LIG1        0.1661
     29 C          -6.2763   -4.0713   -0.0039 C.3     1  LIG1       -0.0364
     30 H          -6.9340   -4.7430    0.5071 H       1  LIG1        0.0279
     31 H          -6.6226   -3.9263   -1.0059 H       1  LIG1        0.0279
     32 H          -6.2591   -3.1313    0.5070 H       1  LIG1        0.0279
     33 N          -6.3035   -7.8438   -0.0578 N.1     1  LIG1       -0.1908
     34 C          -5.5695   -6.9630   -0.0554 C.1     1  LIG1        0.1017
     35 C          -2.6020   -7.0912   -0.0995 C.ar    1  LIG1        0.1773
     36 C          -2.7875   -8.4580   -0.1192 C.ar    1  LIG1        0.1153
     37 C          -1.4686   -9.0553   -0.1446 C.ar    1  LIG1        0.1846
     38 C          -0.5642   -8.0134   -0.1389 C.ar    1  LIG1        0.1807
     39 O          -1.2389   -6.7923   -0.1113 O.2     1  LIG1       -0.4476
     40 N          -3.9132   -9.1084   -0.1160 N.pl3   1  LIG1       -0.3521
     41 H          -4.6112   -8.5687   -0.5866 H       1  LIG1        0.1425
     42 H          -3.7944   -9.9826   -0.5866 H       1  LIG1        0.1425
     43 O          -1.2145  -10.3301   -0.1682 O.3     1  LIG1       -0.5020
     44 H          -0.2644  -10.4673   -0.1740 H       1  LIG1        0.2924
     45 C           1.3456   -6.6457   -0.1603 C.ar    1  LIG1        0.0499
     46 C           0.7317   -7.9116   -0.1528 C.ar    1  LIG1        0.0455
     47 C           1.5444   -9.0467   -0.1604 C.ar    1  LIG1       -0.0053
     48 C           2.9303   -8.8808   -0.1752 C.ar    1  LIG1        0.1467
     49 C           3.4501   -7.5734   -0.1819 C.ar    1  LIG1        0.1145
     50 N           2.6808   -6.4673   -0.1746 N.ar    1  LIG1       -0.2474
     51 H           1.1008  -10.0524   -0.1559 H       1  LIG1        0.0662
     52 C           0.6311   -5.5593   -0.1536 C.3     1  LIG1       -0.0216
     53 H          -0.2934   -5.7435    0.3527 H       1  LIG1        0.0293
     54 H           0.4323   -5.2570   -1.1606 H       1  LIG1        0.0293
     55 H           1.1666   -4.7834    0.3526 H       1  LIG1        0.0293
     56 O           3.7299   -9.9059   -0.1829 O.3     1  LIG1       -0.4929
     57 C           2.9605  -11.1113   -0.1858 C.3     1  LIG1        0.0789
     58 H           3.6189  -11.9547   -0.1924 H       1  LIG1        0.0660
     59 H           2.3467  -11.1448    0.6900 H       1  LIG1        0.0660
     60 H           2.3401  -11.1364   -1.0573 H       1  LIG1        0.0660
     61 C           5.2434   -6.0566   -0.2241 C.ar    1  LIG1        0.0484
     62 C           4.7336   -7.3676   -0.1956 C.ar    1  LIG1        0.0261
     63 C           5.6353   -8.4334   -0.1822 C.ar    1  LIG1       -0.0331
     64 C           7.0034   -8.1563   -0.1978 C.ar    1  LIG1        0.0543
     65 C           7.4160   -6.8115   -0.2264 C.ar    1  LIG1        0.1234
     66 N           6.5599   -5.7712   -0.2394 N.ar    1  LIG1       -0.2468
     67 H           5.2743   -9.4714   -0.1610 H       1  LIG1        0.0638
     68 C           4.4436   -5.0315   -0.2374 C.3     1  LIG1       -0.0217
     69 H           3.5322   -5.2836    0.2633 H       1  LIG1        0.0293
     70 H           4.2304   -4.7584   -1.2498 H       1  LIG1        0.0293
     71 H           4.9098   -4.2088    0.2633 H       1  LIG1        0.0293
     72 C           7.8830   -9.1135   -0.1864 C.1     1  LIG1       -0.0674
     73 C           8.6959   -9.9978   -0.1760 C.1     1  LIG1       -0.1138
     74 H           9.4199  -10.7856   -0.1667 H       1  LIG1        0.1232
     75 C           8.6787   -6.5030   -0.2417 C.ar    1  LIG1        0.1756
     76 C           9.8637   -7.2093   -0.2384 C.ar    1  LIG1        0.0732
     77 C          10.9303   -6.2301   -0.2640 C.ar    1  LIG1        0.0071
     78 C          10.3260   -4.9899   -0.2813 C.ar    1  LIG1        0.1555
     79 O           8.9380   -5.1320   -0.2681 O.2     1  LIG1       -0.4498
     80 N          10.0209   -8.4996   -0.2168 N.pl3   1  LIG1       -0.3550
     81 H           9.2516   -8.9369   -0.6826 H       1  LIG1        0.1424
     82 H          10.8726   -8.7395   -0.6826 H       1  LIG1        0.1424
     83 H          12.2028   -6.4959   -0.2692 H       1  LIG1        0.0675
     84 C          10.7403   -3.7580   -0.3062 C.ar    1  LIG1        0.1043
     85 C          12.0019   -3.2519   -0.3235 C.ar    1  LIG1        0.0688
     86 C          11.8898   -1.8245   -0.3475 C.ar    1  LIG1        0.0633
     87 C          10.5647   -1.5211   -0.3456 C.ar    1  LIG1        0.0195
     88 N           9.8574   -2.7019   -0.3199 N.ar    1  LIG1       -0.3556
     89 H           8.8664   -2.7795   -0.3130 H       1  LIG1        0.1655
     90 H           9.9632   -0.3687   -0.3623 H       1  LIG1        0.0820
     91 N          13.1047   -3.9403   -0.3177 N.pl3   1  LIG1       -0.3553
     92 H          12.9569   -4.8106   -0.7876 H       1  LIG1        0.1424
     93 H          13.8216   -3.4253   -0.7876 H       1  LIG1        0.1424
     94 C          12.8717   -0.9727   -0.3679 C.1     1  LIG1       -0.0663
     95 C          13.7789   -0.1857   -0.3867 C.1     1  LIG1       -0.1138
     96 H          14.5871    0.5154   -0.4035 H       1  LIG1        0.1232
@<TRIPOS>BOND
     1    70    68    1
     2    54    52    1
     3    60    57    1
     4    31    29    1
     5    93    91    1
     6    92    91    1
     7    82    80    1
     8    81    80    1
     9    42    40    1
    10    41    40    1
    11    13    11    1
    12    12    11    1
    13    21    19    1
    14    20    19    1
    15    96    95    1
    16    95    94    3
    17    94    86    1
    18    90    87    1
    19    86    87   ar
    20    86    85   ar
    21    87    88   ar
    22    85    91    1
    23    85    84   ar
    24    88    89    1
    25    88    84   ar
    26    84    78    1
    27    78    79   ar
    28    78    77   ar
    29    83    77    1
    30    79    75   ar
    31    77    76   ar
    32    75    76   ar
    33    75    65    1
    34    66    65   ar
    35    66    61   ar
    36    76    80    1
    37    68    61    1
    38    68    71    1
    39    68    69    1
    40    65    64   ar
    41    61    62   ar
    42    64    72    1
    43    64    63   ar
    44    62    63   ar
    45    62    49    1
    46    58    57    1
    47    72    73    3
    48    57    56    1
    49    57    59    1
    50    56    48    1
    51    63    67    1
    52    49    48   ar
    53    49    50   ar
    54    73    74    1
    55    48    47   ar
    56    50    45   ar
    57    44    43    1
    58    43    37    1
    59    47    51    1
    60    47    46   ar
    61    45    52    1
    62    45    46   ar
    63    52    55    1
    64    52    53    1
    65    46    38    1
    66    37    38   ar
    67    37    36   ar
    68    38    39   ar
    69    36    40    1
    70    36    35   ar
    71    39    35   ar
    72    35    26    1
    73    26    27   ar
    74    26    25   ar
    75    28    27    1
    76    27    23   ar
    77    33    34    3
    78    34    25    1
    79    25    24   ar
    80    23    24   ar
    81    23    17    1
    82    24    29    1
    83    18    17   ar
    84    18    14   ar
    85    17    16   ar
    86    29    32    1
    87    29    30    1
    88     2     8    1
    89     2     1   ar
    90     2     3   ar
    91     4    14    1
    92     4     5   ar
    93     4     3   ar
    94     6     5    1
    95     8     9    3
    96     9    10    1
    97    14    15   ar
    98     5     1   ar
    99     1     7    1
   100     3    11    1
   101    16    22    1
   102    16    15   ar
   103    15    19    1
