@<TRIPOS>MOLECULE
mol_data/noopt/geoms/mol2/13eh13eh-13eh.out
 38 40 0 0 0
SMALL
GASTEIGER

@<TRIPOS>ATOM
      1 C           1.1215   -0.3259    0.0002 C.ar    1  LIG1        0.0195
      2 C           0.7176    0.9721   -0.0005 C.ar    1  LIG1        0.0632
      3 C          -0.7144    0.9744    0.0003 C.ar    1  LIG1        0.0672
      4 C          -1.1226   -0.3223   -0.0003 C.ar    1  LIG1        0.0863
      5 N          -0.0018   -1.1217    0.0001 N.ar    1  LIG1       -0.3569
      6 H          -0.0034   -2.1157   -0.0003 H       1  LIG1        0.1655
      7 H           2.3167   -0.8373    0.0007 H       1  LIG1        0.0820
      8 C           1.4918    2.0164   -0.0003 C.1     1  LIG1       -0.0663
      9 C           2.2072    2.9814   -0.0001 C.1     1  LIG1       -0.1138
     10 H           2.8444    3.8409    0.0000 H       1  LIG1        0.1232
     11 N          -1.4853    2.0212    0.0010 N.pl3   1  LIG1       -0.3553
     12 H          -1.0256    2.7740   -0.4702 H       1  LIG1        0.1424
     13 H          -2.3405    1.8056   -0.4703 H       1  LIG1        0.1424
     14 C          -2.3194   -0.8299   -0.0001 C.ar    1  LIG1        0.0826
     15 C          -2.7274   -2.1266   -0.0005 C.ar    1  LIG1        0.0727
     16 C          -4.1594   -2.1244    0.0011 C.ar    1  LIG1        0.0679
     17 C          -4.5635   -0.8264    0.0006 C.ar    1  LIG1        0.0868
     18 N          -3.4402   -0.0305    0.0003 N.ar    1  LIG1       -0.3493
     19 H          -3.4386    0.9635   -0.0001 H       1  LIG1        0.1661
     20 C          -1.9565   -3.1734   -0.0006 C.1     1  LIG1       -0.0656
     21 C          -1.2442   -4.1406   -0.0007 C.1     1  LIG1       -0.1138
     22 H          -0.6097   -5.0022   -0.0008 H       1  LIG1        0.1232
     23 N          -4.9336   -3.1687    0.0023 N.pl3   1  LIG1       -0.3553
     24 H          -5.7883   -2.9506   -0.4688 H       1  LIG1        0.1424
     25 H          -4.4765   -3.9231   -0.4688 H       1  LIG1        0.1424
     26 C          -5.7587   -0.3150    0.0014 C.ar    1  LIG1        0.0821
     27 C          -6.1626    0.9830    0.0016 C.ar    1  LIG1        0.0720
     28 C          -7.5946    0.9853    0.0038 C.ar    1  LIG1        0.0584
     29 C          -8.0028   -0.3114    0.0030 C.ar    1  LIG1        0.0243
     30 N          -6.8820   -1.1108    0.0021 N.ar    1  LIG1       -0.3569
     31 H          -6.8836   -2.1048    0.0013 H       1  LIG1        0.1655
     32 H          -9.1996   -0.8190    0.0041 H       1  LIG1        0.0826
     33 C          -5.3884    2.0273    0.0015 C.1     1  LIG1       -0.0656
     34 C          -4.6730    2.9923    0.0014 C.1     1  LIG1       -0.1138
     35 H          -4.0358    3.8518    0.0013 H       1  LIG1        0.1232
     36 N          -8.3655    2.0321    0.0056 N.pl3   1  LIG1       -0.3559
     37 H          -7.9061    2.7852   -0.4653 H       1  LIG1        0.1424
     38 H          -9.2210    1.8169   -0.4654 H       1  LIG1        0.1424
@<TRIPOS>BOND
     1    13    11    1
     2    12    11    1
     3    25    23    1
     4    24    23    1
     5    38    36    1
     6    37    36    1
     7    22    21    1
     8    21    20    3
     9    20    15    1
    10     2     8    1
    11     2     1   ar
    12     2     3   ar
    13    15    14   ar
    14    15    16   ar
    15     8     9    3
    16     4    14    1
    17     4     5   ar
    18     4     3   ar
    19     6     5    1
    20    19    18    1
    21     9    10    1
    22    14    18   ar
    23     5     1   ar
    24     1     7    1
    25     3    11    1
    26    18    17   ar
    27    17    16   ar
    28    17    26    1
    29    16    23    1
    30    31    30    1
    31    35    34    1
    32    34    33    3
    33    26    27   ar
    34    26    30   ar
    35    33    27    1
    36    27    28   ar
    37    30    29   ar
    38    29    28   ar
    39    29    32    1
    40    28    36    1
