@<TRIPOS>MOLECULE
mol_data/noopt/geoms/mol2/13eh13eh.out
 26 27 0 0 0
SMALL
GASTEIGER

@<TRIPOS>ATOM
      1 C           1.1215   -0.3259    0.0002 C.ar    1  LIG1        0.0195
      2 C           0.7176    0.9721   -0.0005 C.ar    1  LIG1        0.0632
      3 C          -0.7144    0.9744    0.0003 C.ar    1  LIG1        0.0672
      4 C          -1.1226   -0.3223   -0.0003 C.ar    1  LIG1        0.0863
      5 N          -0.0018   -1.1217    0.0001 N.ar    1  LIG1       -0.3569
      6 H          -0.0034   -2.1157   -0.0003 H       1  LIG1        0.1655
      7 H           2.3167   -0.8373    0.0007 H       1  LIG1        0.0820
      8 C           1.4918    2.0164   -0.0003 C.1     1  LIG1       -0.0663
      9 C           2.2072    2.9814   -0.0001 C.1     1  LIG1       -0.1138
     10 H           2.8444    3.8409    0.0000 H       1  LIG1        0.1232
     11 N          -1.4853    2.0212    0.0010 N.pl3   1  LIG1       -0.3553
     12 H          -1.0256    2.7740   -0.4702 H       1  LIG1        0.1424
     13 H          -2.3405    1.8056   -0.4703 H       1  LIG1        0.1424
     14 C          -2.3194   -0.8299   -0.0001 C.ar    1  LIG1        0.0821
     15 C          -3.5353   -0.2219   -0.0003 C.ar    1  LIG1        0.0720
     16 C          -4.5290   -1.2530    0.0012 C.ar    1  LIG1        0.0584
     17 C          -3.8767   -2.4457    0.0005 C.ar    1  LIG1        0.0243
     18 N          -2.5238   -2.1913    0.0002 N.ar    1  LIG1       -0.3569
     19 H          -1.8081   -2.8811   -0.0004 H       1  LIG1        0.1655
     20 H          -4.3398   -3.6604    0.0012 H       1  LIG1        0.0826
     21 C          -3.7520    1.0599   -0.0003 C.1     1  LIG1       -0.0656
     22 C          -3.9522    2.2443   -0.0003 C.1     1  LIG1       -0.1138
     23 H          -4.1306    3.2993   -0.0002 H       1  LIG1        0.1232
     24 N          -5.8180   -1.0837    0.0025 N.pl3   1  LIG1       -0.3559
     25 H          -6.0426   -0.2307   -0.4686 H       1  LIG1        0.1424
     26 H          -6.2552   -1.8497   -0.4686 H       1  LIG1        0.1424
@<TRIPOS>BOND
     1    13    11    1
     2    12    11    1
     3    26    24    1
     4    25    24    1
     5     2     8    1
     6     2     1   ar
     7     2     3   ar
     8    19    18    1
     9    15    21    1
    10    15    14   ar
    11    15    16   ar
    12     4    14    1
    13     4     5   ar
    14     4     3   ar
    15     6     5    1
    16     8     9    3
    17    21    22    3
    18    22    23    1
    19     9    10    1
    20    14    18   ar
    21     5     1   ar
    22    18    17   ar
    23     1     7    1
    24     3    11    1
    25    17    16   ar
    26    17    20    1
    27    16    24    1
