@<TRIPOS>MOLECULE
mol_data/noopt/geoms/mol2/13eh13eh13eh13eh.out
 50 53 0 0 0
SMALL
GASTEIGER

@<TRIPOS>ATOM
      1 C           1.1215   -0.3259    0.0002 C.ar    1  LIG1        0.0195
      2 C           0.7176    0.9721   -0.0005 C.ar    1  LIG1        0.0632
      3 C          -0.7144    0.9744    0.0003 C.ar    1  LIG1        0.0672
      4 C          -1.1226   -0.3223   -0.0003 C.ar    1  LIG1        0.0863
      5 N          -0.0018   -1.1217    0.0001 N.ar    1  LIG1       -0.3569
      6 H          -0.0034   -2.1157   -0.0003 H       1  LIG1        0.1655
      7 H           2.3167   -0.8373    0.0007 H       1  LIG1        0.0820
      8 C           1.4918    2.0164   -0.0003 C.1     1  LIG1       -0.0663
      9 C           2.2072    2.9814   -0.0001 C.1     1  LIG1       -0.1138
     10 H           2.8444    3.8409    0.0000 H       1  LIG1        0.1232
     11 N          -1.4853    2.0212    0.0010 N.pl3   1  LIG1       -0.3553
     12 H          -1.0256    2.7740   -0.4702 H       1  LIG1        0.1424
     13 H          -2.3405    1.8056   -0.4703 H       1  LIG1        0.1424
     14 C          -2.3194   -0.8299   -0.0001 C.ar    1  LIG1        0.0826
     15 C          -3.5353   -0.2219   -0.0003 C.ar    1  LIG1        0.0727
     16 C          -4.5290   -1.2530    0.0012 C.ar    1  LIG1        0.0679
     17 C          -3.8767   -2.4457    0.0005 C.ar    1  LIG1        0.0868
     18 N          -2.5238   -2.1913    0.0002 N.ar    1  LIG1       -0.3493
     19 H          -1.8081   -2.8811   -0.0004 H       1  LIG1        0.1661
     20 C          -3.7520    1.0599   -0.0003 C.1     1  LIG1       -0.0656
     21 C          -3.9522    2.2443   -0.0003 C.1     1  LIG1       -0.1138
     22 H          -4.1306    3.2993   -0.0002 H       1  LIG1        0.1232
     23 N          -5.8180   -1.0837    0.0025 N.pl3   1  LIG1       -0.3553
     24 H          -6.0426   -0.2307   -0.4686 H       1  LIG1        0.1424
     25 H          -6.2552   -1.8497   -0.4686 H       1  LIG1        0.1424
     26 C          -4.3398   -3.6604    0.0012 C.ar    1  LIG1        0.0826
     27 C          -5.6206   -4.1160    0.0013 C.ar    1  LIG1        0.0727
     28 C          -5.5655   -5.5470    0.0033 C.ar    1  LIG1        0.0679
     29 C          -4.2535   -5.9029    0.0026 C.ar    1  LIG1        0.0868
     30 N          -3.4996   -4.7510    0.0018 N.ar    1  LIG1       -0.3493
     31 H          -2.5064   -4.7127    0.0010 H       1  LIG1        0.1661
     32 C          -6.6951   -3.3843    0.0012 C.1     1  LIG1       -0.0656
     33 C          -7.6879   -2.7082    0.0012 C.1     1  LIG1       -0.1138
     34 H          -8.5723   -2.1059    0.0011 H       1  LIG1        0.1232
     35 N          -6.5805   -6.3592    0.0050 N.pl3   1  LIG1       -0.3553
     36 H          -7.3514   -5.9303   -0.4659 H       1  LIG1        0.1424
     37 H          -6.3312   -7.2053   -0.4660 H       1  LIG1        0.1424
     38 C          -3.6983   -7.0784    0.0036 C.ar    1  LIG1        0.0821
     39 C          -4.2571   -8.3176    0.0039 C.ar    1  LIG1        0.0720
     40 C          -3.1870   -9.2693    0.0063 C.ar    1  LIG1        0.0584
     41 C          -2.0214   -8.5697    0.0055 C.ar    1  LIG1        0.0243
     42 N          -2.3298   -7.2280    0.0043 N.ar    1  LIG1       -0.3569
     43 H          -1.6693   -6.4852    0.0035 H       1  LIG1        0.1655
     44 H          -0.7891   -8.9837    0.0068 H       1  LIG1        0.0826
     45 C          -5.5292   -8.5856    0.0038 C.1     1  LIG1       -0.0656
     46 C          -6.7046   -8.8331    0.0036 C.1     1  LIG1       -0.1138
     47 H          -7.7516   -9.0536    0.0035 H       1  LIG1        0.1232
     48 N          -3.3045  -10.5640    0.0083 N.pl3   1  LIG1       -0.3559
     49 H          -4.1479  -10.8228   -0.4626 H       1  LIG1        0.1424
     50 H          -2.5216  -10.9704   -0.4626 H       1  LIG1        0.1424
@<TRIPOS>BOND
     1    13    11    1
     2    12    11    1
     3    25    23    1
     4    24    23    1
     5    37    35    1
     6    36    35    1
     7    50    48    1
     8    49    48    1
     9     2     8    1
    10     2     1   ar
    11     2     3   ar
    12    19    18    1
    13    15    20    1
    14    15    14   ar
    15    15    16   ar
    16     6     5    1
    17     8     9    3
    18     4    14    1
    19     4     5   ar
    20     4     3   ar
    21    20    21    3
    22    21    22    1
    23     9    10    1
    24    14    18   ar
    25     5     1   ar
    26    18    17   ar
    27     1     7    1
    28     3    11    1
    29    17    16   ar
    30    17    26    1
    31    31    30    1
    32    34    33    1
    33    33    32    3
    34    16    23    1
    35    26    27   ar
    36    26    30   ar
    37    32    27    1
    38    27    28   ar
    39    30    29   ar
    40    29    28   ar
    41    29    38    1
    42    28    35    1
    43    43    42    1
    44    47    46    1
    45    38    39   ar
    46    38    42   ar
    47    46    45    3
    48    45    39    1
    49    39    40   ar
    50    42    41   ar
    51    41    40   ar
    52    41    44    1
    53    40    48    1
