@<TRIPOS>MOLECULE
mol_data/noopt/geoms/mol2/13eh13eh13eh-13eh-.out
 50 53 0 0 0
SMALL
GASTEIGER

@<TRIPOS>ATOM
      1 C           1.1215   -0.3259    0.0002 C.ar    1  LIG1        0.0195
      2 C           0.7176    0.9721   -0.0005 C.ar    1  LIG1        0.0632
      3 C          -0.7144    0.9744    0.0003 C.ar    1  LIG1        0.0672
      4 C          -1.1226   -0.3223   -0.0003 C.ar    1  LIG1        0.0863
      5 N          -0.0018   -1.1217    0.0001 N.ar    1  LIG1       -0.3569
      6 H          -0.0034   -2.1157   -0.0003 H       1  LIG1        0.1655
      7 H           2.3167   -0.8373    0.0007 H       1  LIG1        0.0820
      8 C           1.4918    2.0164   -0.0003 C.1     1  LIG1       -0.0663
      9 C           2.2072    2.9814   -0.0001 C.1     1  LIG1       -0.1138
     10 H           2.8444    3.8409    0.0000 H       1  LIG1        0.1232
     11 N          -1.4853    2.0212    0.0010 N.pl3   1  LIG1       -0.3553
     12 H          -1.0256    2.7740   -0.4702 H       1  LIG1        0.1424
     13 H          -2.3405    1.8056   -0.4703 H       1  LIG1        0.1424
     14 C          -2.3194   -0.8299   -0.0001 C.ar    1  LIG1        0.0826
     15 C          -3.5353   -0.2219   -0.0003 C.ar    1  LIG1        0.0727
     16 C          -4.5290   -1.2530    0.0012 C.ar    1  LIG1        0.0679
     17 C          -3.8767   -2.4457    0.0005 C.ar    1  LIG1        0.0868
     18 N          -2.5238   -2.1913    0.0002 N.ar    1  LIG1       -0.3493
     19 H          -1.8081   -2.8811   -0.0004 H       1  LIG1        0.1661
     20 C          -3.7520    1.0599   -0.0003 C.1     1  LIG1       -0.0656
     21 C          -3.9522    2.2443   -0.0003 C.1     1  LIG1       -0.1138
     22 H          -4.1306    3.2993   -0.0002 H       1  LIG1        0.1232
     23 N          -5.8180   -1.0837    0.0025 N.pl3   1  LIG1       -0.3553
     24 H          -6.0426   -0.2307   -0.4686 H       1  LIG1        0.1424
     25 H          -6.2552   -1.8497   -0.4686 H       1  LIG1        0.1424
     26 C          -4.3398   -3.6604    0.0012 C.ar    1  LIG1        0.0826
     27 C          -3.6874   -4.8530    0.0012 C.ar    1  LIG1        0.0727
     28 C          -4.6811   -5.8841    0.0032 C.ar    1  LIG1        0.0679
     29 C          -5.8970   -5.2763    0.0027 C.ar    1  LIG1        0.0868
     30 N          -5.6927   -3.9149    0.0019 N.ar    1  LIG1       -0.3493
     31 H          -6.4084   -3.2251    0.0013 H       1  LIG1        0.1661
     32 C          -2.3984   -5.0223    0.0009 C.1     1  LIG1       -0.0656
     33 C          -1.2075   -5.1787    0.0007 C.1     1  LIG1       -0.1138
     34 H          -0.1466   -5.3180    0.0005 H       1  LIG1        0.1232
     35 N          -4.4643   -7.1660    0.0049 N.pl3   1  LIG1       -0.3553
     36 H          -5.2137   -7.6313   -0.4661 H       1  LIG1        0.1424
     37 H          -3.6036   -7.3591   -0.4662 H       1  LIG1        0.1424
     38 C          -7.0939   -5.7839    0.0038 C.ar    1  LIG1        0.0821
     39 C          -7.5019   -7.0806    0.0041 C.ar    1  LIG1        0.0720
     40 C          -8.9339   -7.0784    0.0067 C.ar    1  LIG1        0.0584
     41 C          -9.3380   -5.7804    0.0061 C.ar    1  LIG1        0.0243
     42 N          -8.2146   -4.9846    0.0048 N.ar    1  LIG1       -0.3569
     43 H          -8.2131   -3.9906    0.0040 H       1  LIG1        0.1655
     44 H         -10.5331   -5.2690    0.0075 H       1  LIG1        0.0826
     45 C          -6.7310   -8.1274    0.0038 C.1     1  LIG1       -0.0656
     46 C          -6.0187   -9.0946    0.0034 C.1     1  LIG1       -0.1138
     47 H          -5.3842   -9.9562    0.0032 H       1  LIG1        0.1232
     48 N          -9.7081   -8.1227    0.0087 N.pl3   1  LIG1       -0.3559
     49 H         -10.5629   -7.9048   -0.4622 H       1  LIG1        0.1424
     50 H          -9.2511   -8.8773   -0.4622 H       1  LIG1        0.1424
@<TRIPOS>BOND
     1    13    11    1
     2    12    11    1
     3    25    23    1
     4    24    23    1
     5    37    35    1
     6    36    35    1
     7    50    48    1
     8    49    48    1
     9     2     8    1
    10     2     1   ar
    11     2     3   ar
    12    19    18    1
    13    15    20    1
    14    15    14   ar
    15    15    16   ar
    16     6     5    1
    17     8     9    3
    18     4    14    1
    19     4     5   ar
    20     4     3   ar
    21    20    21    3
    22    21    22    1
    23     9    10    1
    24    14    18   ar
    25     5     1   ar
    26    18    17   ar
    27     1     7    1
    28     3    11    1
    29    34    33    1
    30    17    16   ar
    31    17    26    1
    32    33    32    3
    33    32    27    1
    34    27    26   ar
    35    27    28   ar
    36    16    23    1
    37    26    30   ar
    38    31    30    1
    39    30    29   ar
    40    29    28   ar
    41    29    38    1
    42    47    46    1
    43    28    35    1
    44    46    45    3
    45    45    39    1
    46    38    39   ar
    47    38    42   ar
    48    43    42    1
    49    39    40   ar
    50    42    41   ar
    51    41    40   ar
    52    41    44    1
    53    40    48    1
