@<TRIPOS>MOLECULE
mol_data/noopt/geoms/mol2/13eh13eh-.out
 26 27 0 0 0
SMALL
GASTEIGER

@<TRIPOS>ATOM
      1 C           1.1215   -0.3259    0.0002 C.ar    1  LIG1        0.0195
      2 C           0.7176    0.9721   -0.0005 C.ar    1  LIG1        0.0632
      3 C          -0.7144    0.9744    0.0003 C.ar    1  LIG1        0.0672
      4 C          -1.1226   -0.3223   -0.0003 C.ar    1  LIG1        0.0863
      5 N          -0.0018   -1.1217    0.0001 N.ar    1  LIG1       -0.3569
      6 H          -0.0034   -2.1157   -0.0003 H       1  LIG1        0.1655
      7 H           2.3167   -0.8373    0.0007 H       1  LIG1        0.0820
      8 C           1.4918    2.0164   -0.0003 C.1     1  LIG1       -0.0663
      9 C           2.2072    2.9814   -0.0001 C.1     1  LIG1       -0.1138
     10 H           2.8444    3.8409    0.0000 H       1  LIG1        0.1232
     11 N          -1.4853    2.0212    0.0010 N.pl3   1  LIG1       -0.3553
     12 H          -1.0256    2.7740   -0.4702 H       1  LIG1        0.1424
     13 H          -2.3405    1.8056   -0.4703 H       1  LIG1        0.1424
     14 C          -2.3194   -0.8299   -0.0001 C.ar    1  LIG1        0.0821
     15 C          -2.7274   -2.1266   -0.0005 C.ar    1  LIG1        0.0720
     16 C          -4.1594   -2.1244    0.0011 C.ar    1  LIG1        0.0584
     17 C          -4.5635   -0.8264    0.0006 C.ar    1  LIG1        0.0243
     18 N          -3.4402   -0.0305    0.0003 N.ar    1  LIG1       -0.3569
     19 H          -3.4386    0.9635   -0.0001 H       1  LIG1        0.1655
     20 H          -5.7587   -0.3150    0.0014 H       1  LIG1        0.0826
     21 C          -1.9565   -3.1734   -0.0006 C.1     1  LIG1       -0.0656
     22 C          -1.2442   -4.1406   -0.0007 C.1     1  LIG1       -0.1138
     23 H          -0.6097   -5.0022   -0.0008 H       1  LIG1        0.1232
     24 N          -4.9336   -3.1687    0.0023 N.pl3   1  LIG1       -0.3559
     25 H          -5.7883   -2.9506   -0.4688 H       1  LIG1        0.1424
     26 H          -4.4765   -3.9231   -0.4688 H       1  LIG1        0.1424
@<TRIPOS>BOND
     1    13    11    1
     2    12    11    1
     3    26    24    1
     4    25    24    1
     5    23    22    1
     6    22    21    3
     7    21    15    1
     8     2     8    1
     9     2     1   ar
    10     2     3   ar
    11    15    14   ar
    12    15    16   ar
    13     4    14    1
    14     4     5   ar
    15     4     3   ar
    16     6     5    1
    17     8     9    3
    18    19    18    1
    19     9    10    1
    20    14    18   ar
    21     5     1   ar
    22     1     7    1
    23     3    11    1
    24    18    17   ar
    25    17    16   ar
    26    17    20    1
    27    16    24    1
