@<TRIPOS>MOLECULE
mol_data/noopt/geoms/mol2/13eh13eh-4eh13eh.out
 52 55 0 0 0
SMALL
GASTEIGER

@<TRIPOS>ATOM
      1 C           1.1215   -0.3259    0.0002 C.ar    1  LIG1        0.0195
      2 C           0.7176    0.9721   -0.0005 C.ar    1  LIG1        0.0632
      3 C          -0.7144    0.9744    0.0003 C.ar    1  LIG1        0.0672
      4 C          -1.1226   -0.3223   -0.0003 C.ar    1  LIG1        0.0863
      5 N          -0.0018   -1.1217    0.0001 N.ar    1  LIG1       -0.3569
      6 H          -0.0034   -2.1157   -0.0003 H       1  LIG1        0.1655
      7 H           2.3167   -0.8373    0.0007 H       1  LIG1        0.0820
      8 C           1.4918    2.0164   -0.0003 C.1     1  LIG1       -0.0663
      9 C           2.2072    2.9814   -0.0001 C.1     1  LIG1       -0.1138
     10 H           2.8444    3.8409    0.0000 H       1  LIG1        0.1232
     11 N          -1.4853    2.0212    0.0010 N.pl3   1  LIG1       -0.3553
     12 H          -1.0256    2.7740   -0.4702 H       1  LIG1        0.1424
     13 H          -2.3405    1.8056   -0.4703 H       1  LIG1        0.1424
     14 C          -2.3194   -0.8299   -0.0001 C.ar    1  LIG1        0.0826
     15 C          -2.7274   -2.1266   -0.0005 C.ar    1  LIG1        0.0726
     16 C          -4.1594   -2.1244    0.0011 C.ar    1  LIG1        0.0665
     17 C          -4.5635   -0.8264    0.0006 C.ar    1  LIG1        0.0704
     18 N          -3.4402   -0.0305    0.0003 N.ar    1  LIG1       -0.3505
     19 H          -3.4386    0.9635   -0.0001 H       1  LIG1        0.1660
     20 C          -1.9565   -3.1734   -0.0006 C.1     1  LIG1       -0.0656
     21 C          -1.2442   -4.1406   -0.0007 C.1     1  LIG1       -0.1138
     22 H          -0.6097   -5.0022   -0.0008 H       1  LIG1        0.1232
     23 N          -4.9336   -3.1687    0.0023 N.pl3   1  LIG1       -0.3554
     24 H          -5.7883   -2.9506   -0.4688 H       1  LIG1        0.1424
     25 H          -4.4765   -3.9231   -0.4688 H       1  LIG1        0.1424
     26 C          -5.9236    1.0852    0.0026 C.ar    1  LIG1        0.0346
     27 C          -7.2385    1.5895    0.0050 C.ar    1  LIG1       -0.0348
     28 C          -5.7587   -0.3150    0.0014 C.ar    1  LIG1        0.0173
     29 C          -8.3419    0.7391    0.0056 C.ar    1  LIG1        0.0214
     30 H          -7.3885    2.6668    0.0062 H       1  LIG1        0.0637
     31 C          -6.8598   -1.1644    0.0020 C.ar    1  LIG1       -0.0301
     32 C          -8.1582   -0.6442    0.0040 C.ar    1  LIG1        0.0345
     33 H          -6.7065   -2.2406    0.0011 H       1  LIG1        0.0643
     34 C          -4.9343    1.9285    0.0020 C.1     1  LIG1       -0.0690
     35 C          -4.0201    2.7078    0.0013 C.1     1  LIG1       -0.1139
     36 H          -3.2058    3.4019    0.0008 H       1  LIG1        0.1232
     37 N          -9.1838   -1.4431    0.0046 N.pl3   1  LIG1       -0.3574
     38 H          -9.9487   -1.0039   -0.4666 H       1  LIG1        0.1423
     39 H          -8.9452   -2.2922   -0.4666 H       1  LIG1        0.1423
     40 C          -9.5420    1.2389    0.0077 C.ar    1  LIG1        0.0657
     41 C          -9.9585    2.5329    0.0088 C.ar    1  LIG1        0.0705
     42 C         -11.3904    2.5213    0.0122 C.ar    1  LIG1        0.0583
     43 C         -11.7860    1.2207    0.0113 C.ar    1  LIG1        0.0242
     44 N         -10.6575    0.4322    0.0090 N.ar    1  LIG1       -0.3580
     45 H         -10.6495   -0.5617    0.0079 H       1  LIG1        0.1654
     46 H         -12.9778    0.7015    0.0134 H       1  LIG1        0.0826
     47 C          -9.1944    3.5847    0.0084 C.1     1  LIG1       -0.0657
     48 C          -8.4884    4.5565    0.0080 C.1     1  LIG1       -0.1138
     49 H          -7.8596    5.4222    0.0077 H       1  LIG1        0.1232
     50 N         -12.1714    3.5606    0.0152 N.pl3   1  LIG1       -0.3559
     51 H         -11.7196    4.3184   -0.4555 H       1  LIG1        0.1424
     52 H         -13.0250    3.3374   -0.4555 H       1  LIG1        0.1424
@<TRIPOS>BOND
     1    13    11    1
     2    12    11    1
     3    25    23    1
     4    24    23    1
     5    39    37    1
     6    38    37    1
     7    52    50    1
     8    51    50    1
     9    22    21    1
    10    21    20    3
    11    20    15    1
    12     2     8    1
    13     2     1   ar
    14     2     3   ar
    15    15    14   ar
    16    15    16   ar
    17     8     9    3
    18     6     5    1
    19     4    14    1
    20     4     5   ar
    21     4     3   ar
    22    19    18    1
    23     9    10    1
    24    14    18   ar
    25     5     1   ar
    26     1     7    1
    27     3    11    1
    28    18    17   ar
    29    17    16   ar
    30    17    28    1
    31    36    35    1
    32    16    23    1
    33    33    31    1
    34    35    34    3
    35    28    31   ar
    36    28    26   ar
    37    34    26    1
    38    31    32   ar
    39    26    27   ar
    40    32    37    1
    41    32    29   ar
    42    27    29   ar
    43    27    30    1
    44    29    40    1
    45    49    48    1
    46    40    41   ar
    47    40    44   ar
    48    45    44    1
    49    48    47    3
    50    47    41    1
    51    41    42   ar
    52    44    43   ar
    53    43    42   ar
    54    43    46    1
    55    42    50    1
