@<TRIPOS>MOLECULE
mol_data/noopt/geoms/mol2/13ei4fh(90)12ia(210)6ad(300).out
 48 51 0 0 0
SMALL
GASTEIGER

@<TRIPOS>ATOM
      1 C           1.1215   -0.3259    0.0002 C.ar    1  LIG1        0.0179
      2 C           0.7176    0.9721   -0.0005 C.ar    1  LIG1        0.0454
      3 C          -0.7144    0.9744    0.0003 C.ar    1  LIG1       -0.0097
      4 C          -1.1226   -0.3223   -0.0003 C.ar    1  LIG1        0.0542
      5 N          -0.0018   -1.1217    0.0001 N.ar    1  LIG1       -0.3592
      6 H          -0.0034   -2.1157   -0.0003 H       1  LIG1        0.1654
      7 H           2.3167   -0.8373    0.0007 H       1  LIG1        0.0819
      8 C           1.4918    2.0164   -0.0003 C.1     1  LIG1       -0.0679
      9 C           2.2072    2.9814   -0.0001 C.1     1  LIG1       -0.1139
     10 H           2.8444    3.8409    0.0000 H       1  LIG1        0.1232
     11 C          -1.4855    2.0214    0.0010 C.3     1  LIG1       -0.0365
     12 H          -2.4003    1.7904    0.5056 H       1  LIG1        0.0279
     13 H          -1.6974    2.3090   -1.0077 H       1  LIG1        0.0279
     14 H          -0.9933    2.8265    0.5056 H       1  LIG1        0.0279
     15 C          -2.9656   -1.1048    1.2224 C.ar    1  LIG1        0.1267
     16 C          -4.2606   -1.6557    1.1690 C.ar    1  LIG1       -0.0071
     17 C          -2.3194   -0.8299   -0.0001 C.ar    1  LIG1        0.0418
     18 C          -4.8866   -1.9213   -0.0467 C.ar    1  LIG1        0.0416
     19 H          -4.7772   -1.8757    2.1006 H       1  LIG1        0.0662
     20 C          -2.9439   -1.0949   -1.2141 C.ar    1  LIG1       -0.0277
     21 C          -4.2308   -1.6420   -1.2464 C.ar    1  LIG1        0.0362
     22 H          -2.4247   -0.8742   -2.1433 H       1  LIG1        0.0644
     23 O          -2.4336   -0.8788    2.3869 O.3     1  LIG1       -0.5061
     24 H          -2.6563    0.0098    2.6739 H       1  LIG1        0.2922
     25 N          -4.8096   -1.8877   -2.3842 N.pl3   1  LIG1       -0.3574
     26 H          -4.8974   -1.0379   -2.9039 H       1  LIG1        0.1423
     27 H          -4.2590   -2.5410   -2.9040 H       1  LIG1        0.1423
     28 C          -6.0828   -2.4301   -0.0591 C.ar    1  LIG1        0.1404
     29 C          -6.6460   -3.6078   -0.5051 C.ar    1  LIG1       -0.0040
     30 C          -8.0600   -3.5322   -0.2022 C.ar    1  LIG1       -0.0123
     31 C          -8.2672   -2.3128    0.4092 C.ar    1  LIG1        0.1374
     32 O          -7.0630   -1.6151    0.5089 O.2     1  LIG1       -0.4545
     33 C          -6.0484   -4.6057   -1.0864 C.3     1  LIG1       -0.0361
     34 H          -5.0191   -4.6240   -0.7947 H       1  LIG1        0.0279
     35 H          -6.1161   -4.4925   -2.1483 H       1  LIG1        0.0279
     36 H          -6.5182   -5.5217   -0.7947 H       1  LIG1        0.0279
     37 H          -8.9415   -4.4505   -0.4662 H       1  LIG1        0.0658
     38 C          -9.8363   -2.0654    2.1398 C.ar    1  LIG1        0.0383
     39 C          -9.2949   -1.6846    0.8983 C.ar    1  LIG1        0.0366
     40 C          -9.8853   -0.6226    0.2109 C.ar    1  LIG1       -0.0308
     41 C         -10.9869    0.0175    0.7814 C.ar    1  LIG1        0.0705
     42 C         -11.4560   -0.4362    2.0278 C.ar    1  LIG1        0.0449
     43 N         -10.8984   -1.4590    2.7047 N.ar    1  LIG1       -0.2613
     44 H          -9.4906   -0.2974   -0.7621 H       1  LIG1        0.0638
     45 H         -12.4784    0.1276    2.5994 H       1  LIG1        0.0842
     46 H          -9.3213   -3.0480    2.8173 H       1  LIG1        0.0837
     47 N         -12.0881    1.8875   -0.3483 N.1     1  LIG1       -0.1908
     48 C         -11.5720    1.0111    0.1811 C.1     1  LIG1        0.1007
@<TRIPOS>BOND
     1    27    25    1
     2    26    25    1
     3    25    21    1
     4    35    33    1
     5    22    20    1
     6    21    20   ar
     7    21    18   ar
     8    20    17   ar
     9    33    36    1
    10    33    34    1
    11    33    29    1
    12    13    11    1
    13    44    40    1
    14    29    30   ar
    15    29    28   ar
    16    37    30    1
    17    47    48    3
    18    30    31   ar
    19    28    18    1
    20    28    32   ar
    21    18    16   ar
    22     2     8    1
    23     2     1   ar
    24     2     3   ar
    25     8     9    3
    26     4    17    1
    27     4     5   ar
    28     4     3   ar
    29     6     5    1
    30     9    10    1
    31    17    15   ar
    32     5     1   ar
    33     1     7    1
    34     3    11    1
    35    11    14    1
    36    11    12    1
    37    48    41    1
    38    40    41   ar
    39    40    39   ar
    40    31    32   ar
    41    31    39    1
    42    41    42   ar
    43    39    38   ar
    44    16    15   ar
    45    16    19    1
    46    15    23    1
    47    42    45    1
    48    42    43   ar
    49    38    43   ar
    50    38    46    1
    51    23    24    1
