@<TRIPOS>MOLECULE
mol_data/noopt/geoms/mol2/13ei13ei13ei-13ei.out
 54 57 0 0 0
SMALL
GASTEIGER

@<TRIPOS>ATOM
      1 C           1.1215   -0.3259    0.0002 C.ar    1  LIG1        0.0179
      2 C           0.7176    0.9721   -0.0005 C.ar    1  LIG1        0.0455
      3 C          -0.7144    0.9744    0.0003 C.ar    1  LIG1       -0.0084
      4 C          -1.1226   -0.3223   -0.0003 C.ar    1  LIG1        0.0682
      5 N          -0.0018   -1.1217    0.0001 N.ar    1  LIG1       -0.3581
      6 H          -0.0034   -2.1157   -0.0003 H       1  LIG1        0.1654
      7 H           2.3167   -0.8373    0.0007 H       1  LIG1        0.0819
      8 C           1.4918    2.0164   -0.0003 C.1     1  LIG1       -0.0679
      9 C           2.2072    2.9814   -0.0001 C.1     1  LIG1       -0.1139
     10 H           2.8444    3.8409    0.0000 H       1  LIG1        0.1232
     11 C          -1.4855    2.0214    0.0010 C.3     1  LIG1       -0.0365
     12 H          -2.4003    1.7904    0.5056 H       1  LIG1        0.0279
     13 H          -1.6974    2.3090   -1.0077 H       1  LIG1        0.0279
     14 H          -0.9933    2.8265    0.5056 H       1  LIG1        0.0279
     15 C          -2.3194   -0.8299   -0.0001 C.ar    1  LIG1        0.0795
     16 C          -3.5353   -0.2219   -0.0003 C.ar    1  LIG1        0.0549
     17 C          -4.5290   -1.2530    0.0012 C.ar    1  LIG1       -0.0077
     18 C          -3.8767   -2.4457    0.0005 C.ar    1  LIG1        0.0687
     19 N          -2.5238   -2.1913    0.0002 N.ar    1  LIG1       -0.3506
     20 H          -1.8081   -2.8811   -0.0004 H       1  LIG1        0.1660
     21 C          -3.7520    1.0599   -0.0003 C.1     1  LIG1       -0.0672
     22 C          -3.9522    2.2443   -0.0003 C.1     1  LIG1       -0.1138
     23 H          -4.1306    3.2993   -0.0002 H       1  LIG1        0.1232
     24 C          -5.8182   -1.0837    0.0025 C.3     1  LIG1       -0.0365
     25 H          -6.2852   -1.9035    0.5073 H       1  LIG1        0.0279
     26 H          -6.1729   -1.0372   -1.0060 H       1  LIG1        0.0279
     27 H          -6.0576   -0.1710    0.5072 H       1  LIG1        0.0279
     28 C          -4.3398   -3.6604    0.0012 C.ar    1  LIG1        0.0795
     29 C          -3.6874   -4.8530    0.0012 C.ar    1  LIG1        0.0549
     30 C          -4.6811   -5.8841    0.0032 C.ar    1  LIG1       -0.0077
     31 C          -5.8970   -5.2763    0.0027 C.ar    1  LIG1        0.0687
     32 N          -5.6927   -3.9149    0.0019 N.ar    1  LIG1       -0.3506
     33 H          -6.4084   -3.2251    0.0013 H       1  LIG1        0.1660
     34 C          -2.3984   -5.0223    0.0009 C.1     1  LIG1       -0.0672
     35 C          -1.2075   -5.1787    0.0007 C.1     1  LIG1       -0.1138
     36 H          -0.1466   -5.3180    0.0005 H       1  LIG1        0.1232
     37 C          -4.4643   -7.1663    0.0049 C.3     1  LIG1       -0.0365
     38 H          -3.5435   -7.3717    0.5097 H       1  LIG1        0.0279
     39 H          -4.4045   -7.5192   -1.0035 H       1  LIG1        0.0279
     40 H          -5.2664   -7.6629    0.5097 H       1  LIG1        0.0279
     41 C          -7.0939   -5.7839    0.0038 C.ar    1  LIG1        0.0790
     42 C          -8.3097   -5.1759    0.0043 C.ar    1  LIG1        0.0542
     43 C          -9.3034   -6.2070    0.0067 C.ar    1  LIG1       -0.0171
     44 C          -8.6511   -7.3997    0.0060 C.ar    1  LIG1        0.0063
     45 N          -7.2982   -7.1453    0.0047 N.ar    1  LIG1       -0.3583
     46 H          -6.5825   -7.8351    0.0038 H       1  LIG1        0.1654
     47 H          -9.1142   -8.6144    0.0073 H       1  LIG1        0.0810
     48 C          -8.5264   -3.8941    0.0041 C.1     1  LIG1       -0.0672
     49 C          -8.7267   -2.7097    0.0039 C.1     1  LIG1       -0.1138
     50 H          -8.9051   -1.6547    0.0038 H       1  LIG1        0.1232
     51 C         -10.5927   -6.0377    0.0089 C.3     1  LIG1       -0.0371
     52 H         -11.0593   -6.8575    0.5139 H       1  LIG1        0.0278
     53 H         -10.9480   -5.9911   -0.9994 H       1  LIG1        0.0278
     54 H         -10.8317   -5.1251    0.5138 H       1  LIG1        0.0278
@<TRIPOS>BOND
     1    13    11    1
     2    26    24    1
     3    39    37    1
     4    53    51    1
     5     2     8    1
     6     2     1   ar
     7     2     3   ar
     8    20    19    1
     9    16    21    1
    10    16    15   ar
    11    16    17   ar
    12     4    15    1
    13     4     5   ar
    14     4     3   ar
    15     6     5    1
    16     8     9    3
    17    21    22    3
    18    22    23    1
    19     9    10    1
    20    15    19   ar
    21     5     1   ar
    22    19    18   ar
    23     1     7    1
    24     3    11    1
    25    36    35    1
    26    18    17   ar
    27    18    28    1
    28    35    34    3
    29    34    29    1
    30    11    14    1
    31    11    12    1
    32    29    28   ar
    33    29    30   ar
    34    17    24    1
    35    28    32   ar
    36    33    32    1
    37    32    31   ar
    38    24    27    1
    39    24    25    1
    40    31    30   ar
    41    31    41    1
    42    30    37    1
    43    46    45    1
    44    50    49    1
    45    41    42   ar
    46    41    45   ar
    47    49    48    3
    48    48    42    1
    49    42    43   ar
    50    45    44   ar
    51    37    40    1
    52    37    38    1
    53    44    43   ar
    54    44    47    1
    55    43    51    1
    56    51    54    1
    57    51    52    1
