@<TRIPOS>MOLECULE
mol_data/noopt/geoms/mol2/13ei13ei-13ei13ei-.out
 54 57 0 0 0
SMALL
GASTEIGER

@<TRIPOS>ATOM
      1 C           1.1215   -0.3259    0.0002 C.ar    1  LIG1        0.0179
      2 C           0.7176    0.9721   -0.0005 C.ar    1  LIG1        0.0455
      3 C          -0.7144    0.9744    0.0003 C.ar    1  LIG1       -0.0084
      4 C          -1.1226   -0.3223   -0.0003 C.ar    1  LIG1        0.0682
      5 N          -0.0018   -1.1217    0.0001 N.ar    1  LIG1       -0.3581
      6 H          -0.0034   -2.1157   -0.0003 H       1  LIG1        0.1654
      7 H           2.3167   -0.8373    0.0007 H       1  LIG1        0.0819
      8 C           1.4918    2.0164   -0.0003 C.1     1  LIG1       -0.0679
      9 C           2.2072    2.9814   -0.0001 C.1     1  LIG1       -0.1139
     10 H           2.8444    3.8409    0.0000 H       1  LIG1        0.1232
     11 C          -1.4855    2.0214    0.0010 C.3     1  LIG1       -0.0365
     12 H          -2.4003    1.7904    0.5056 H       1  LIG1        0.0279
     13 H          -1.6974    2.3090   -1.0077 H       1  LIG1        0.0279
     14 H          -0.9933    2.8265    0.5056 H       1  LIG1        0.0279
     15 C          -2.3194   -0.8299   -0.0001 C.ar    1  LIG1        0.0795
     16 C          -2.7274   -2.1266   -0.0005 C.ar    1  LIG1        0.0549
     17 C          -4.1594   -2.1244    0.0011 C.ar    1  LIG1       -0.0077
     18 C          -4.5635   -0.8264    0.0006 C.ar    1  LIG1        0.0687
     19 N          -3.4402   -0.0305    0.0003 N.ar    1  LIG1       -0.3506
     20 H          -3.4386    0.9635   -0.0001 H       1  LIG1        0.1660
     21 C          -1.9565   -3.1734   -0.0006 C.1     1  LIG1       -0.0672
     22 C          -1.2442   -4.1406   -0.0007 C.1     1  LIG1       -0.1138
     23 H          -0.6097   -5.0022   -0.0008 H       1  LIG1        0.1232
     24 C          -4.9338   -3.1690    0.0023 C.3     1  LIG1       -0.0365
     25 H          -4.4441   -3.9754    0.5071 H       1  LIG1        0.0279
     26 H          -5.1467   -3.4563   -1.0062 H       1  LIG1        0.0279
     27 H          -5.8478   -2.9348    0.5070 H       1  LIG1        0.0279
     28 C          -5.7587   -0.3150    0.0014 C.ar    1  LIG1        0.0795
     29 C          -6.1626    0.9830    0.0016 C.ar    1  LIG1        0.0549
     30 C          -7.5946    0.9853    0.0038 C.ar    1  LIG1       -0.0077
     31 C          -8.0028   -0.3114    0.0030 C.ar    1  LIG1        0.0687
     32 N          -6.8820   -1.1108    0.0021 N.ar    1  LIG1       -0.3506
     33 H          -6.8836   -2.1048    0.0013 H       1  LIG1        0.1660
     34 C          -5.3884    2.0273    0.0015 C.1     1  LIG1       -0.0672
     35 C          -4.6730    2.9923    0.0014 C.1     1  LIG1       -0.1138
     36 H          -4.0358    3.8518    0.0013 H       1  LIG1        0.1232
     37 C          -8.3657    2.0323    0.0056 C.3     1  LIG1       -0.0365
     38 H          -9.2802    1.8009    0.5105 H       1  LIG1        0.0279
     39 H          -8.5781    2.3207   -1.0028 H       1  LIG1        0.0279
     40 H          -7.8732    2.8370    0.5105 H       1  LIG1        0.0279
     41 C          -9.1996   -0.8190    0.0041 C.ar    1  LIG1        0.0790
     42 C          -9.6076   -2.1157    0.0044 C.ar    1  LIG1        0.0542
     43 C         -11.0396   -2.1135    0.0069 C.ar    1  LIG1       -0.0171
     44 C         -11.4437   -0.8155    0.0063 C.ar    1  LIG1        0.0063
     45 N         -10.3204   -0.0196    0.0051 N.ar    1  LIG1       -0.3583
     46 H         -10.3188    0.9744    0.0043 H       1  LIG1        0.1654
     47 H         -12.6389   -0.3041    0.0077 H       1  LIG1        0.0810
     48 C          -8.8367   -3.1625    0.0040 C.1     1  LIG1       -0.0672
     49 C          -8.1244   -4.1297    0.0037 C.1     1  LIG1       -0.1138
     50 H          -7.4899   -4.9913    0.0034 H       1  LIG1        0.1232
     51 C         -11.8140   -3.1580    0.0089 C.3     1  LIG1       -0.0371
     52 H         -11.3242   -3.9642    0.5139 H       1  LIG1        0.0278
     53 H         -12.0273   -3.4459   -0.9994 H       1  LIG1        0.0278
     54 H         -12.7278   -2.9236    0.5138 H       1  LIG1        0.0278
@<TRIPOS>BOND
     1    13    11    1
     2    26    24    1
     3    39    37    1
     4    53    51    1
     5    23    22    1
     6    22    21    3
     7    21    16    1
     8     2     8    1
     9     2     1   ar
    10     2     3   ar
    11    16    15   ar
    12    16    17   ar
    13     4    15    1
    14     4     5   ar
    15     4     3   ar
    16     6     5    1
    17     8     9    3
    18    20    19    1
    19     9    10    1
    20    15    19   ar
    21     5     1   ar
    22     1     7    1
    23     3    11    1
    24    19    18   ar
    25    18    17   ar
    26    18    28    1
    27    11    14    1
    28    11    12    1
    29    17    24    1
    30    33    32    1
    31    36    35    1
    32    35    34    3
    33    28    29   ar
    34    28    32   ar
    35    34    29    1
    36    29    30   ar
    37    32    31   ar
    38    24    27    1
    39    24    25    1
    40    31    30   ar
    41    31    41    1
    42    50    49    1
    43    49    48    3
    44    30    37    1
    45    48    42    1
    46    41    42   ar
    47    41    45   ar
    48    46    45    1
    49    42    43   ar
    50    45    44   ar
    51    37    40    1
    52    37    38    1
    53    44    43   ar
    54    44    47    1
    55    43    51    1
    56    51    54    1
    57    51    52    1
