@<TRIPOS>MOLECULE
mol_data/noopt/geoms/mol2/13ei13ei-4ei13ei.out
 56 59 0 0 0
SMALL
GASTEIGER

@<TRIPOS>ATOM
      1 C           1.1215   -0.3259    0.0002 C.ar    1  LIG1        0.0179
      2 C           0.7176    0.9721   -0.0005 C.ar    1  LIG1        0.0455
      3 C          -0.7144    0.9744    0.0003 C.ar    1  LIG1       -0.0084
      4 C          -1.1226   -0.3223   -0.0003 C.ar    1  LIG1        0.0682
      5 N          -0.0018   -1.1217    0.0001 N.ar    1  LIG1       -0.3581
      6 H          -0.0034   -2.1157   -0.0003 H       1  LIG1        0.1654
      7 H           2.3167   -0.8373    0.0007 H       1  LIG1        0.0819
      8 C           1.4918    2.0164   -0.0003 C.1     1  LIG1       -0.0679
      9 C           2.2072    2.9814   -0.0001 C.1     1  LIG1       -0.1139
     10 H           2.8444    3.8409    0.0000 H       1  LIG1        0.1232
     11 C          -1.4855    2.0214    0.0010 C.3     1  LIG1       -0.0365
     12 H          -2.4003    1.7904    0.5056 H       1  LIG1        0.0279
     13 H          -1.6974    2.3090   -1.0077 H       1  LIG1        0.0279
     14 H          -0.9933    2.8265    0.5056 H       1  LIG1        0.0279
     15 C          -2.3194   -0.8299   -0.0001 C.ar    1  LIG1        0.0794
     16 C          -2.7274   -2.1266   -0.0005 C.ar    1  LIG1        0.0548
     17 C          -4.1594   -2.1244    0.0011 C.ar    1  LIG1       -0.0091
     18 C          -4.5635   -0.8264    0.0006 C.ar    1  LIG1        0.0523
     19 N          -3.4402   -0.0305    0.0003 N.ar    1  LIG1       -0.3518
     20 H          -3.4386    0.9635   -0.0001 H       1  LIG1        0.1660
     21 C          -1.9565   -3.1734   -0.0006 C.1     1  LIG1       -0.0672
     22 C          -1.2442   -4.1406   -0.0007 C.1     1  LIG1       -0.1138
     23 H          -0.6097   -5.0022   -0.0008 H       1  LIG1        0.1232
     24 C          -4.9338   -3.1690    0.0023 C.3     1  LIG1       -0.0365
     25 H          -4.4441   -3.9754    0.5071 H       1  LIG1        0.0279
     26 H          -5.1467   -3.4563   -1.0062 H       1  LIG1        0.0279
     27 H          -5.8478   -2.9348    0.5070 H       1  LIG1        0.0279
     28 C          -5.9236    1.0852    0.0026 C.ar    1  LIG1        0.0344
     29 C          -7.2385    1.5895    0.0050 C.ar    1  LIG1       -0.0363
     30 C          -5.7587   -0.3150    0.0014 C.ar    1  LIG1        0.0142
     31 C          -8.3419    0.7391    0.0056 C.ar    1  LIG1        0.0036
     32 H          -7.3885    2.6668    0.0062 H       1  LIG1        0.0637
     33 C          -6.8598   -1.1644    0.0020 C.ar    1  LIG1       -0.0479
     34 C          -8.1582   -0.6442    0.0040 C.ar    1  LIG1       -0.0406
     35 H          -6.7065   -2.2406    0.0011 H       1  LIG1        0.0627
     36 C          -4.9343    1.9285    0.0020 C.1     1  LIG1       -0.0690
     37 C          -4.0201    2.7078    0.0013 C.1     1  LIG1       -0.1139
     38 H          -3.2058    3.4019    0.0008 H       1  LIG1        0.1232
     39 C          -9.1840   -1.4433    0.0046 C.3     1  LIG1       -0.0391
     40 H          -8.9283   -2.3515    0.5093 H       1  LIG1        0.0278
     41 H          -9.4658   -1.6628   -1.0040 H       1  LIG1        0.0278
     42 H         -10.0021   -0.9730    0.5092 H       1  LIG1        0.0278
     43 C          -9.5420    1.2389    0.0077 C.ar    1  LIG1        0.0626
     44 C          -9.9585    2.5329    0.0088 C.ar    1  LIG1        0.0528
     45 C         -11.3904    2.5213    0.0122 C.ar    1  LIG1       -0.0172
     46 C         -11.7860    1.2207    0.0113 C.ar    1  LIG1        0.0063
     47 N         -10.6575    0.4322    0.0090 N.ar    1  LIG1       -0.3594
     48 H         -10.6495   -0.5617    0.0079 H       1  LIG1        0.1654
     49 H         -12.9778    0.7015    0.0134 H       1  LIG1        0.0810
     50 C          -9.1944    3.5847    0.0084 C.1     1  LIG1       -0.0673
     51 C          -8.4884    4.5565    0.0080 C.1     1  LIG1       -0.1138
     52 H          -7.8596    5.4222    0.0077 H       1  LIG1        0.1232
     53 C         -12.1716    3.5608    0.0152 C.3     1  LIG1       -0.0371
     54 H         -13.0836    3.3202    0.5204 H       1  LIG1        0.0278
     55 H         -12.3873    3.8478   -0.9929 H       1  LIG1        0.0278
     56 H         -11.6867    4.3699    0.5203 H       1  LIG1        0.0278
@<TRIPOS>BOND
     1    13    11    1
     2    26    24    1
     3    41    39    1
     4    55    53    1
     5    23    22    1
     6    22    21    3
     7    21    16    1
     8     2     8    1
     9     2     1   ar
    10     2     3   ar
    11    16    15   ar
    12    16    17   ar
    13     4    15    1
    14     4     5   ar
    15     4     3   ar
    16     8     9    3
    17     6     5    1
    18    20    19    1
    19     9    10    1
    20    15    19   ar
    21     5     1   ar
    22     1     7    1
    23     3    11    1
    24    19    18   ar
    25    18    17   ar
    26    18    30    1
    27    38    37    1
    28    11    14    1
    29    11    12    1
    30    17    24    1
    31    35    33    1
    32    37    36    3
    33    30    33   ar
    34    30    28   ar
    35    36    28    1
    36    33    34   ar
    37    24    27    1
    38    24    25    1
    39    28    29   ar
    40    34    39    1
    41    34    31   ar
    42    39    42    1
    43    39    40    1
    44    29    31   ar
    45    29    32    1
    46    31    43    1
    47    52    51    1
    48    43    44   ar
    49    43    47   ar
    50    48    47    1
    51    51    50    3
    52    50    44    1
    53    44    45   ar
    54    47    46   ar
    55    46    45   ar
    56    46    49    1
    57    45    53    1
    58    53    56    1
    59    53    54    1
