@<TRIPOS>MOLECULE
mol_data/noopt/geoms/mol2/13ei13lh(230)12ai(120)4de(310).out
 52 55 0 0 0
SMALL
GASTEIGER

@<TRIPOS>ATOM
      1 C           1.1215   -0.3259    0.0002 C.ar    1  LIG1        0.0179
      2 C           0.7176    0.9721   -0.0005 C.ar    1  LIG1        0.0455
      3 C          -0.7144    0.9744    0.0003 C.ar    1  LIG1       -0.0083
      4 C          -1.1226   -0.3223   -0.0003 C.ar    1  LIG1        0.0707
      5 N          -0.0018   -1.1217    0.0001 N.ar    1  LIG1       -0.3581
      6 H          -0.0034   -2.1157   -0.0003 H       1  LIG1        0.1654
      7 H           2.3167   -0.8373    0.0007 H       1  LIG1        0.0819
      8 C           1.4918    2.0164   -0.0003 C.1     1  LIG1       -0.0679
      9 C           2.2072    2.9814   -0.0001 C.1     1  LIG1       -0.1139
     10 H           2.8444    3.8409    0.0000 H       1  LIG1        0.1232
     11 C          -1.4855    2.0214    0.0010 C.3     1  LIG1       -0.0365
     12 H          -2.4003    1.7904    0.5056 H       1  LIG1        0.0279
     13 H          -1.6974    2.3090   -1.0077 H       1  LIG1        0.0279
     14 H          -0.9933    2.8265    0.5056 H       1  LIG1        0.0279
     15 C          -2.3194   -0.8299   -0.0001 C.ar    1  LIG1        0.1078
     16 C          -2.8591   -1.8164   -0.7639 C.ar    1  LIG1        0.1679
     17 C          -4.2200   -1.9817   -0.3500 C.ar    1  LIG1        0.0962
     18 C          -4.4516   -1.0901    0.6497 C.ar    1  LIG1        0.1072
     19 N          -3.2907   -0.3826    0.8668 N.ar    1  LIG1       -0.3462
     20 H          -3.1725    0.3366    1.5427 H       1  LIG1        0.1662
     21 O          -2.2493   -2.4837   -1.6983 O.3     1  LIG1       -0.4911
     22 C          -3.0206   -3.6380   -2.0414 C.3     1  LIG1        0.0790
     23 H          -2.5184   -4.1867   -2.8106 H       1  LIG1        0.0660
     24 H          -3.1365   -4.2591   -1.1778 H       1  LIG1        0.0660
     25 H          -3.9838   -3.3319   -2.3925 H       1  LIG1        0.0660
     26 N          -5.0785   -2.8275   -0.8375 N.pl3   1  LIG1       -0.3534
     27 H          -5.7457   -2.3386   -1.3995 H       1  LIG1        0.1425
     28 H          -4.5997   -3.5019   -1.3996 H       1  LIG1        0.1425
     29 C          -5.5275   -0.8597    1.3420 C.ar    1  LIG1        0.1539
     30 C          -6.0322   -1.2960    2.5494 C.ar    1  LIG1       -0.0108
     31 C          -7.3053   -0.6305    2.7317 C.ar    1  LIG1       -0.0040
     32 C          -7.4941    0.1689    1.6231 C.ar    1  LIG1        0.1399
     33 O          -6.4113    0.0448    0.7518 O.2     1  LIG1       -0.4530
     34 H          -5.4925   -2.1382    3.3798 H       1  LIG1        0.0659
     35 C          -8.0973   -0.7762    3.7526 C.3     1  LIG1       -0.0361
     36 H          -7.7669   -1.6037    4.3451 H       1  LIG1        0.0279
     37 H          -9.0935   -0.9596    3.4079 H       1  LIG1        0.0279
     38 H          -8.0832    0.1147    4.3450 H       1  LIG1        0.0279
     39 C          -8.1815    1.8233    0.1084 C.ar    1  LIG1        0.0625
     40 C          -9.2162    2.6911   -0.2913 C.ar    1  LIG1       -0.0425
     41 C          -8.4204    0.9855    1.2170 C.ar    1  LIG1        0.0360
     42 C         -10.4358    2.7244    0.3811 C.ar    1  LIG1       -0.0451
     43 H          -9.0529    3.3462   -1.1441 H       1  LIG1        0.0631
     44 C          -9.6377    1.0184    1.8886 C.ar    1  LIG1       -0.0344
     45 C         -10.6534    1.8872    1.4760 C.ar    1  LIG1        0.0254
     46 H          -9.7975    0.3627    2.7407 H       1  LIG1        0.0637
     47 H         -11.3692    3.5379   -0.0151 H       1  LIG1        0.0630
     48 N          -6.0818    1.8496   -1.1470 N.1     1  LIG1       -0.1908
     49 C          -7.0658    1.8373   -0.5587 C.1     1  LIG1        0.0999
     50 C         -11.7892    1.9137    2.1078 C.1     1  LIG1       -0.0696
     51 C         -12.8387    1.9381    2.6916 C.1     1  LIG1       -0.1139
     52 H         -13.7736    1.9599    3.2117 H       1  LIG1        0.1232
@<TRIPOS>BOND
     1    23    22    1
     2    25    22    1
     3    22    21    1
     4    22    24    1
     5    21    16    1
     6    28    26    1
     7    27    26    1
     8    48    49    3
     9    43    40    1
    10    13    11    1
    11    26    17    1
    12    16    17   ar
    13    16    15   ar
    14    49    39    1
    15    17    18   ar
    16    40    39   ar
    17    40    42   ar
    18    47    42    1
    19     2     8    1
    20     2     1   ar
    21     2     3   ar
    22     8     9    3
    23     6     5    1
    24     4    15    1
    25     4     5   ar
    26     4     3   ar
    27     9    10    1
    28    15    19   ar
    29     5     1   ar
    30     1     7    1
    31     3    11    1
    32    11    14    1
    33    11    12    1
    34    39    41   ar
    35    42    45   ar
    36    18    19   ar
    37    18    29    1
    38    33    29   ar
    39    33    32   ar
    40    19    20    1
    41    41    32    1
    42    41    44   ar
    43    29    30   ar
    44    45    44   ar
    45    45    50    1
    46    32    31   ar
    47    44    46    1
    48    50    51    3
    49    30    31   ar
    50    30    34    1
    51    51    52    1
    52    31    35    1
    53    37    35    1
    54    35    38    1
    55    35    36    1
