@<TRIPOS>MOLECULE
mol_data/noopt/geoms/mol2/13ei13ei-13ei.out
 41 43 0 0 0
SMALL
GASTEIGER

@<TRIPOS>ATOM
      1 C           1.1215   -0.3259    0.0002 C.ar    1  LIG1        0.0179
      2 C           0.7176    0.9721   -0.0005 C.ar    1  LIG1        0.0455
      3 C          -0.7144    0.9744    0.0003 C.ar    1  LIG1       -0.0084
      4 C          -1.1226   -0.3223   -0.0003 C.ar    1  LIG1        0.0682
      5 N          -0.0018   -1.1217    0.0001 N.ar    1  LIG1       -0.3581
      6 H          -0.0034   -2.1157   -0.0003 H       1  LIG1        0.1654
      7 H           2.3167   -0.8373    0.0007 H       1  LIG1        0.0819
      8 C           1.4918    2.0164   -0.0003 C.1     1  LIG1       -0.0679
      9 C           2.2072    2.9814   -0.0001 C.1     1  LIG1       -0.1139
     10 H           2.8444    3.8409    0.0000 H       1  LIG1        0.1232
     11 C          -1.4855    2.0214    0.0010 C.3     1  LIG1       -0.0365
     12 H          -2.4003    1.7904    0.5056 H       1  LIG1        0.0279
     13 H          -1.6974    2.3090   -1.0077 H       1  LIG1        0.0279
     14 H          -0.9933    2.8265    0.5056 H       1  LIG1        0.0279
     15 C          -2.3194   -0.8299   -0.0001 C.ar    1  LIG1        0.0795
     16 C          -2.7274   -2.1266   -0.0005 C.ar    1  LIG1        0.0549
     17 C          -4.1594   -2.1244    0.0011 C.ar    1  LIG1       -0.0077
     18 C          -4.5635   -0.8264    0.0006 C.ar    1  LIG1        0.0687
     19 N          -3.4402   -0.0305    0.0003 N.ar    1  LIG1       -0.3506
     20 H          -3.4386    0.9635   -0.0001 H       1  LIG1        0.1660
     21 C          -1.9565   -3.1734   -0.0006 C.1     1  LIG1       -0.0672
     22 C          -1.2442   -4.1406   -0.0007 C.1     1  LIG1       -0.1138
     23 H          -0.6097   -5.0022   -0.0008 H       1  LIG1        0.1232
     24 C          -4.9338   -3.1690    0.0023 C.3     1  LIG1       -0.0365
     25 H          -4.4441   -3.9754    0.5071 H       1  LIG1        0.0279
     26 H          -5.1467   -3.4563   -1.0062 H       1  LIG1        0.0279
     27 H          -5.8478   -2.9348    0.5070 H       1  LIG1        0.0279
     28 C          -5.7587   -0.3150    0.0014 C.ar    1  LIG1        0.0790
     29 C          -6.1626    0.9830    0.0016 C.ar    1  LIG1        0.0542
     30 C          -7.5946    0.9853    0.0038 C.ar    1  LIG1       -0.0171
     31 C          -8.0028   -0.3114    0.0030 C.ar    1  LIG1        0.0063
     32 N          -6.8820   -1.1108    0.0021 N.ar    1  LIG1       -0.3583
     33 H          -6.8836   -2.1048    0.0013 H       1  LIG1        0.1654
     34 H          -9.1996   -0.8190    0.0041 H       1  LIG1        0.0810
     35 C          -5.3884    2.0273    0.0015 C.1     1  LIG1       -0.0672
     36 C          -4.6730    2.9923    0.0014 C.1     1  LIG1       -0.1138
     37 H          -4.0358    3.8518    0.0013 H       1  LIG1        0.1232
     38 C          -8.3657    2.0323    0.0056 C.3     1  LIG1       -0.0371
     39 H          -9.2802    1.8009    0.5105 H       1  LIG1        0.0278
     40 H          -8.5781    2.3207   -1.0028 H       1  LIG1        0.0278
     41 H          -7.8732    2.8370    0.5105 H       1  LIG1        0.0278
@<TRIPOS>BOND
     1    13    11    1
     2    26    24    1
     3    40    38    1
     4    23    22    1
     5    22    21    3
     6    21    16    1
     7     2     8    1
     8     2     1   ar
     9     2     3   ar
    10    16    15   ar
    11    16    17   ar
    12     4    15    1
    13     4     5   ar
    14     4     3   ar
    15     6     5    1
    16     8     9    3
    17    20    19    1
    18     9    10    1
    19    15    19   ar
    20     5     1   ar
    21     1     7    1
    22     3    11    1
    23    19    18   ar
    24    18    17   ar
    25    18    28    1
    26    11    14    1
    27    11    12    1
    28    17    24    1
    29    33    32    1
    30    37    36    1
    31    36    35    3
    32    28    29   ar
    33    28    32   ar
    34    35    29    1
    35    29    30   ar
    36    32    31   ar
    37    24    27    1
    38    24    25    1
    39    31    30   ar
    40    31    34    1
    41    30    38    1
    42    38    41    1
    43    38    39    1
