@<TRIPOS>MOLECULE
mol_data/noopt/geoms/mol2/13ei4dd6ie13ie.out
 54 57 0 0 0
SMALL
GASTEIGER

@<TRIPOS>ATOM
      1 C           1.1215   -0.3259    0.0002 C.ar    1  LIG1        0.0179
      2 C           0.7176    0.9721   -0.0005 C.ar    1  LIG1        0.0454
      3 C          -0.7144    0.9744    0.0003 C.ar    1  LIG1       -0.0098
      4 C          -1.1226   -0.3223   -0.0003 C.ar    1  LIG1        0.0519
      5 N          -0.0018   -1.1217    0.0001 N.ar    1  LIG1       -0.3593
      6 H          -0.0034   -2.1157   -0.0003 H       1  LIG1        0.1654
      7 H           2.3167   -0.8373    0.0007 H       1  LIG1        0.0819
      8 C           1.4918    2.0164   -0.0003 C.1     1  LIG1       -0.0679
      9 C           2.2072    2.9814   -0.0001 C.1     1  LIG1       -0.1139
     10 H           2.8444    3.8409    0.0000 H       1  LIG1        0.1232
     11 C          -1.4855    2.0214    0.0010 C.3     1  LIG1       -0.0365
     12 H          -2.4003    1.7904    0.5056 H       1  LIG1        0.0279
     13 H          -1.6974    2.3090   -1.0077 H       1  LIG1        0.0279
     14 H          -0.9933    2.8265    0.5056 H       1  LIG1        0.0279
     15 C          -3.4434    0.0212    0.0008 C.ar    1  LIG1        0.0615
     16 C          -4.7180   -0.5776    0.0025 C.ar    1  LIG1       -0.0353
     17 C          -2.3194   -0.8299   -0.0001 C.ar    1  LIG1        0.0166
     18 C          -4.8692   -1.9625    0.0027 C.ar    1  LIG1       -0.0062
     19 H          -5.5988    0.0606    0.0034 H       1  LIG1        0.0637
     20 C          -2.4697   -2.2124    0.0001 C.ar    1  LIG1       -0.0421
     21 C          -3.7444   -2.7884    0.0015 C.ar    1  LIG1        0.0032
     22 H          -1.5874   -2.8474   -0.0005 H       1  LIG1        0.0631
     23 N          -3.2980    2.4635   -0.0000 N.1     1  LIG1       -0.1908
     24 C          -3.3661    1.3189    0.0004 C.1     1  LIG1        0.0998
     25 N          -3.9973   -5.2218    0.0022 N.2     1  LIG1       -0.1571
     26 C          -3.8788   -4.0814    0.0018 C.2     1  LIG1        0.0576
     27 C          -6.2281   -3.8786    0.0052 C.ar    1  LIG1        0.0502
     28 C          -6.0610   -2.4816    0.0042 C.ar    1  LIG1        0.0053
     29 C          -7.1997   -1.6739    0.0052 C.ar    1  LIG1       -0.0348
     30 C          -8.4557   -2.2831    0.0070 C.ar    1  LIG1        0.0526
     31 C          -8.5203   -3.6886    0.0076 C.ar    1  LIG1        0.1030
     32 N          -7.4321   -4.4830    0.0069 N.ar    1  LIG1       -0.2483
     33 H          -7.1086   -0.5785    0.0035 H       1  LIG1        0.0637
     34 C          -5.1982   -4.6723    0.0044 C.3     1  LIG1       -0.0044
     35 H          -4.3821   -4.1982    0.5087 H       1  LIG1        0.0854
     36 H          -4.9161   -4.8896   -1.0046 H       1  LIG1        0.0332
     37 H          -5.4488   -5.5822    0.5086 H       1  LIG1        0.0332
     38 C          -9.5460   -1.5752    0.0078 C.1     1  LIG1       -0.0675
     39 C         -10.5534   -0.9210    0.0085 C.1     1  LIG1       -0.1138
     40 H         -11.4509   -0.3383    0.0091 H       1  LIG1        0.1232
     41 C          -9.6664   -4.3021    0.0093 C.ar    1  LIG1        0.0703
     42 C         -10.9321   -3.8064    0.0267 C.ar    1  LIG1       -0.0083
     43 C         -11.8288   -4.9229    0.0207 C.ar    1  LIG1        0.0455
     44 C         -11.0717   -6.0517   -0.0018 C.ar    1  LIG1        0.0179
     45 N          -9.7472   -5.6763   -0.0084 N.ar    1  LIG1       -0.3581
     46 H          -8.9723   -6.2986   -0.0242 H       1  LIG1        0.1654
     47 H         -11.4234   -7.3032   -0.0152 H       1  LIG1        0.0819
     48 C         -11.2636   -2.5492    0.0467 C.3     1  LIG1       -0.0365
     49 H         -12.1973   -2.4346    0.5566 H       1  LIG1        0.0279
     50 H         -11.3585   -2.1893   -0.9565 H       1  LIG1        0.0279
     51 H         -10.5077   -1.9892    0.5565 H       1  LIG1        0.0279
     52 C         -13.1277   -4.8706    0.0339 C.1     1  LIG1       -0.0679
     53 C         -14.3278   -4.8224    0.0461 C.1     1  LIG1       -0.1139
     54 H         -15.3969   -4.7794    0.0569 H       1  LIG1        0.1232
@<TRIPOS>BOND
     1    13    11    1
     2    36    34    1
     3    50    48    1
     4    46    45    1
     5    47    44    1
     6    45    44   ar
     7    45    41   ar
     8    44    43   ar
     9     2     8    1
    10     2     1   ar
    11     2     3   ar
    12    22    20    1
    13     4    17    1
    14     4     5   ar
    15     4     3   ar
    16     6     5    1
    17     8     9    3
    18     9    10    1
    19    17    20   ar
    20    17    15   ar
    21    23    24    3
    22     5     1   ar
    23    20    21   ar
    24     1     7    1
    25     3    11    1
    26    24    15    1
    27    15    16   ar
    28    11    14    1
    29    11    12    1
    30    21    26    1
    31    21    18   ar
    32    26    25    2
    33    26    35    1
    34    16    18   ar
    35    16    19    1
    36    18    28    1
    37    33    29    1
    38    28    27   ar
    39    28    29   ar
    40    34    27    1
    41    34    37    1
    42    27    32   ar
    43    29    30   ar
    44    32    31   ar
    45    30    31   ar
    46    30    38    1
    47    31    41    1
    48    38    39    3
    49    39    40    1
    50    41    42   ar
    51    43    42   ar
    52    43    52    1
    53    42    48    1
    54    52    53    3
    55    53    54    1
    56    48    51    1
    57    48    49    1
