@<TRIPOS>MOLECULE
mol_data/noopt/geoms/mol2/13ei12ed(310)12aa(230)4ha(140).out
 44 47 0 0 0
SMALL
GASTEIGER

@<TRIPOS>ATOM
      1 C           1.1215   -0.3259    0.0002 C.ar    1  LIG1        0.0180
      2 C           0.7176    0.9721   -0.0005 C.ar    1  LIG1        0.0455
      3 C          -0.7144    0.9744    0.0003 C.ar    1  LIG1       -0.0068
      4 C          -1.1226   -0.3223   -0.0003 C.ar    1  LIG1        0.0875
      5 N          -0.0018   -1.1217    0.0001 N.ar    1  LIG1       -0.3569
      6 H          -0.0034   -2.1157   -0.0003 H       1  LIG1        0.1655
      7 H           2.3167   -0.8373    0.0007 H       1  LIG1        0.0819
      8 C           1.4918    2.0164   -0.0003 C.1     1  LIG1       -0.0679
      9 C           2.2072    2.9814   -0.0001 C.1     1  LIG1       -0.1139
     10 H           2.8444    3.8409    0.0000 H       1  LIG1        0.1232
     11 C          -1.4855    2.0214    0.0010 C.3     1  LIG1       -0.0364
     12 H          -2.4003    1.7904    0.5056 H       1  LIG1        0.0279
     13 H          -1.6974    2.3090   -1.0077 H       1  LIG1        0.0279
     14 H          -0.9933    2.8265    0.5056 H       1  LIG1        0.0279
     15 C          -2.3194   -0.8299   -0.0001 C.ar    1  LIG1        0.1688
     16 C          -3.4861   -0.5978   -0.6986 C.ar    1  LIG1        0.0899
     17 C          -4.4655   -1.5377   -0.1943 C.ar    1  LIG1        0.1165
     18 C          -3.8319   -2.2822    0.7793 C.ar    1  LIG1        0.1892
     19 O          -2.5077   -1.8646    0.9173 O.2     1  LIG1       -0.4476
     20 C          -3.6934    0.2843   -1.6307 C.1     1  LIG1       -0.0645
     21 C          -3.8848    1.0994   -2.4921 C.1     1  LIG1       -0.1138
     22 H          -4.0554    1.8255   -3.2593 H       1  LIG1        0.1232
     23 N          -6.7828   -1.7283   -0.9554 N.1     1  LIG1       -0.1907
     24 C          -5.6968   -1.6390   -0.5987 C.1     1  LIG1        0.1043
     25 C          -4.1750   -3.2532    1.5727 C.ar    1  LIG1        0.1719
     26 C          -3.9456   -4.6127    1.6195 C.ar    1  LIG1       -0.0121
     27 C          -4.6333   -5.1093    2.7932 C.ar    1  LIG1       -0.0151
     28 C          -5.2375   -4.0197    3.3861 C.ar    1  LIG1        0.1376
     29 O          -4.9693   -2.8637    2.6521 O.2     1  LIG1       -0.4516
     30 H          -3.2527   -5.3318    0.7871 H       1  LIG1        0.0657
     31 H          -4.6598   -6.3474    3.1886 H       1  LIG1        0.0656
     32 C          -5.9936   -4.7923    5.4682 C.ar    1  LIG1        0.0353
     33 C          -6.8111   -4.5400    6.5868 C.ar    1  LIG1       -0.0404
     34 C          -5.9761   -3.8292    4.4387 C.ar    1  LIG1        0.0379
     35 C          -7.5776   -3.3805    6.6787 C.ar    1  LIG1       -0.0600
     36 H          -6.8396   -5.2701    7.3926 H       1  LIG1        0.0636
     37 C          -6.7412   -2.6715    4.5299 C.ar    1  LIG1       -0.0493
     38 C          -7.5467   -2.4387    5.6495 C.ar    1  LIG1       -0.0610
     39 H          -6.7106   -1.9440    3.7228 H       1  LIG1        0.0625
     40 H          -8.3212   -3.1796    7.7260 H       1  LIG1        0.0618
     41 N          -5.3009   -5.8921    5.4397 N.pl3   1  LIG1       -0.3574
     42 H          -5.8197   -6.6004    4.9611 H       1  LIG1        0.1423
     43 H          -4.4379   -5.7302    4.9611 H       1  LIG1        0.1423
     44 H          -8.2599   -1.3547    5.7292 H       1  LIG1        0.0618
@<TRIPOS>BOND
     1    22    21    1
     2    21    20    3
     3    20    16    1
     4    13    11    1
     5    23    24    3
     6    16    17   ar
     7    16    15   ar
     8    24    17    1
     9    17    18   ar
    10     2     8    1
    11     2     1   ar
    12     2     3   ar
    13     4    15    1
    14     4     5   ar
    15     4     3   ar
    16     6     5    1
    17     8     9    3
    18     9    10    1
    19    15    19   ar
    20     5     1   ar
    21     1     7    1
    22     3    11    1
    23    11    14    1
    24    11    12    1
    25    18    19   ar
    26    18    25    1
    27    30    26    1
    28    25    26   ar
    29    25    29   ar
    30    26    27   ar
    31    29    28   ar
    32    27    31    1
    33    27    28   ar
    34    28    34    1
    35    39    37    1
    36    34    37   ar
    37    34    32   ar
    38    37    38   ar
    39    43    41    1
    40    42    41    1
    41    41    32    1
    42    32    33   ar
    43    38    44    1
    44    38    35   ar
    45    33    35   ar
    46    33    36    1
    47    35    40    1
