@<TRIPOS>MOLECULE
mol_data/noopt/geoms/mol2/13ei13ei-13ei-13ei-.out
 54 57 0 0 0
SMALL
GASTEIGER

@<TRIPOS>ATOM
      1 C           1.1215   -0.3259    0.0002 C.ar    1  LIG1        0.0179
      2 C           0.7176    0.9721   -0.0005 C.ar    1  LIG1        0.0455
      3 C          -0.7144    0.9744    0.0003 C.ar    1  LIG1       -0.0084
      4 C          -1.1226   -0.3223   -0.0003 C.ar    1  LIG1        0.0682
      5 N          -0.0018   -1.1217    0.0001 N.ar    1  LIG1       -0.3581
      6 H          -0.0034   -2.1157   -0.0003 H       1  LIG1        0.1654
      7 H           2.3167   -0.8373    0.0007 H       1  LIG1        0.0819
      8 C           1.4918    2.0164   -0.0003 C.1     1  LIG1       -0.0679
      9 C           2.2072    2.9814   -0.0001 C.1     1  LIG1       -0.1139
     10 H           2.8444    3.8409    0.0000 H       1  LIG1        0.1232
     11 C          -1.4855    2.0214    0.0010 C.3     1  LIG1       -0.0365
     12 H          -2.4003    1.7904    0.5056 H       1  LIG1        0.0279
     13 H          -1.6974    2.3090   -1.0077 H       1  LIG1        0.0279
     14 H          -0.9933    2.8265    0.5056 H       1  LIG1        0.0279
     15 C          -2.3194   -0.8299   -0.0001 C.ar    1  LIG1        0.0795
     16 C          -2.7274   -2.1266   -0.0005 C.ar    1  LIG1        0.0549
     17 C          -4.1594   -2.1244    0.0011 C.ar    1  LIG1       -0.0077
     18 C          -4.5635   -0.8264    0.0006 C.ar    1  LIG1        0.0687
     19 N          -3.4402   -0.0305    0.0003 N.ar    1  LIG1       -0.3506
     20 H          -3.4386    0.9635   -0.0001 H       1  LIG1        0.1660
     21 C          -1.9565   -3.1734   -0.0006 C.1     1  LIG1       -0.0672
     22 C          -1.2442   -4.1406   -0.0007 C.1     1  LIG1       -0.1138
     23 H          -0.6097   -5.0022   -0.0008 H       1  LIG1        0.1232
     24 C          -4.9338   -3.1690    0.0023 C.3     1  LIG1       -0.0365
     25 H          -4.4441   -3.9754    0.5071 H       1  LIG1        0.0279
     26 H          -5.1467   -3.4563   -1.0062 H       1  LIG1        0.0279
     27 H          -5.8478   -2.9348    0.5070 H       1  LIG1        0.0279
     28 C          -5.7587   -0.3150    0.0014 C.ar    1  LIG1        0.0795
     29 C          -6.9765   -0.9191    0.0015 C.ar    1  LIG1        0.0549
     30 C          -7.9670    0.1151    0.0037 C.ar    1  LIG1       -0.0077
     31 C          -7.3109    1.3057    0.0031 C.ar    1  LIG1        0.0687
     32 N          -5.9587    1.0470    0.0022 N.ar    1  LIG1       -0.3506
     33 H          -5.2408    1.7345    0.0016 H       1  LIG1        0.1660
     34 C          -7.1973   -2.2002    0.0012 C.1     1  LIG1       -0.0672
     35 C          -7.4013   -3.3840    0.0010 C.1     1  LIG1       -0.1138
     36 H          -7.5830   -4.4384    0.0007 H       1  LIG1        0.1232
     37 C          -9.2567   -0.0501    0.0054 C.3     1  LIG1       -0.0365
     38 H          -9.4988   -0.9619    0.5103 H       1  LIG1        0.0279
     39 H          -9.6119   -0.0957   -1.0029 H       1  LIG1        0.0279
     40 H          -9.7208    0.7712    0.5103 H       1  LIG1        0.0279
     41 C          -7.7701    2.5219    0.0044 C.ar    1  LIG1        0.0790
     42 C          -9.0494    2.9816    0.0047 C.ar    1  LIG1        0.0542
     43 C          -8.9898    4.4124    0.0074 C.ar    1  LIG1       -0.0171
     44 C          -7.6767    4.7641    0.0068 C.ar    1  LIG1        0.0063
     45 N          -6.9265    3.6098    0.0054 N.ar    1  LIG1       -0.3583
     46 H          -5.9333    3.5684    0.0046 H       1  LIG1        0.1654
     47 H          -7.1178    5.9378    0.0083 H       1  LIG1        0.0810
     48 C         -10.1263    2.2533    0.0043 C.1     1  LIG1       -0.0672
     49 C         -11.1212    1.5803    0.0040 C.1     1  LIG1       -0.1138
     50 H         -12.0075    0.9808    0.0037 H       1  LIG1        0.1232
     51 C         -10.0025    5.2280    0.0095 C.3     1  LIG1       -0.0371
     52 H         -10.8277    4.7708    0.5145 H       1  LIG1        0.0278
     53 H         -10.2816    5.4527   -0.9988 H       1  LIG1        0.0278
     54 H          -9.7316    6.1316    0.5144 H       1  LIG1        0.0278
@<TRIPOS>BOND
     1    13    11    1
     2    26    24    1
     3    39    37    1
     4    53    51    1
     5    23    22    1
     6    22    21    3
     7    21    16    1
     8     2     8    1
     9     2     1   ar
    10     2     3   ar
    11    16    15   ar
    12    16    17   ar
    13     4    15    1
    14     4     5   ar
    15     4     3   ar
    16     6     5    1
    17     8     9    3
    18    20    19    1
    19     9    10    1
    20    15    19   ar
    21     5     1   ar
    22     1     7    1
    23     3    11    1
    24    19    18   ar
    25    18    17   ar
    26    18    28    1
    27    36    35    1
    28    35    34    3
    29    11    14    1
    30    11    12    1
    31    17    24    1
    32    34    29    1
    33    28    29   ar
    34    28    32   ar
    35    29    30   ar
    36    33    32    1
    37    32    31   ar
    38    24    27    1
    39    24    25    1
    40    31    30   ar
    41    31    41    1
    42    50    49    1
    43    30    37    1
    44    49    48    3
    45    48    42    1
    46    41    42   ar
    47    41    45   ar
    48    46    45    1
    49    42    43   ar
    50    45    44   ar
    51    37    40    1
    52    37    38    1
    53    44    43   ar
    54    44    47    1
    55    43    51    1
    56    51    54    1
    57    51    52    1
