@<TRIPOS>MOLECULE
mol_data/noopt/geoms/mol2/13ei13ei.out
 28 29 0 0 0
SMALL
GASTEIGER

@<TRIPOS>ATOM
      1 C           1.1215   -0.3259    0.0002 C.ar    1  LIG1        0.0179
      2 C           0.7176    0.9721   -0.0005 C.ar    1  LIG1        0.0455
      3 C          -0.7144    0.9744    0.0003 C.ar    1  LIG1       -0.0084
      4 C          -1.1226   -0.3223   -0.0003 C.ar    1  LIG1        0.0682
      5 N          -0.0018   -1.1217    0.0001 N.ar    1  LIG1       -0.3581
      6 H          -0.0034   -2.1157   -0.0003 H       1  LIG1        0.1654
      7 H           2.3167   -0.8373    0.0007 H       1  LIG1        0.0819
      8 C           1.4918    2.0164   -0.0003 C.1     1  LIG1       -0.0679
      9 C           2.2072    2.9814   -0.0001 C.1     1  LIG1       -0.1139
     10 H           2.8444    3.8409    0.0000 H       1  LIG1        0.1232
     11 C          -1.4855    2.0214    0.0010 C.3     1  LIG1       -0.0365
     12 H          -2.4003    1.7904    0.5056 H       1  LIG1        0.0279
     13 H          -1.6974    2.3090   -1.0077 H       1  LIG1        0.0279
     14 H          -0.9933    2.8265    0.5056 H       1  LIG1        0.0279
     15 C          -2.3194   -0.8299   -0.0001 C.ar    1  LIG1        0.0790
     16 C          -3.5353   -0.2219   -0.0003 C.ar    1  LIG1        0.0542
     17 C          -4.5290   -1.2530    0.0012 C.ar    1  LIG1       -0.0171
     18 C          -3.8767   -2.4457    0.0005 C.ar    1  LIG1        0.0063
     19 N          -2.5238   -2.1913    0.0002 N.ar    1  LIG1       -0.3583
     20 H          -1.8081   -2.8811   -0.0004 H       1  LIG1        0.1654
     21 H          -4.3398   -3.6604    0.0012 H       1  LIG1        0.0810
     22 C          -3.7520    1.0599   -0.0003 C.1     1  LIG1       -0.0672
     23 C          -3.9522    2.2443   -0.0003 C.1     1  LIG1       -0.1138
     24 H          -4.1306    3.2993   -0.0002 H       1  LIG1        0.1232
     25 C          -5.8182   -1.0837    0.0025 C.3     1  LIG1       -0.0371
     26 H          -6.2852   -1.9035    0.5073 H       1  LIG1        0.0278
     27 H          -6.1729   -1.0372   -1.0060 H       1  LIG1        0.0278
     28 H          -6.0576   -0.1710    0.5072 H       1  LIG1        0.0278
@<TRIPOS>BOND
     1    13    11    1
     2    27    25    1
     3     2     8    1
     4     2     1   ar
     5     2     3   ar
     6    20    19    1
     7    16    22    1
     8    16    15   ar
     9    16    17   ar
    10     4    15    1
    11     4     5   ar
    12     4     3   ar
    13     6     5    1
    14     8     9    3
    15    22    23    3
    16    23    24    1
    17     9    10    1
    18    15    19   ar
    19     5     1   ar
    20    19    18   ar
    21     1     7    1
    22     3    11    1
    23    18    17   ar
    24    18    21    1
    25    11    14    1
    26    11    12    1
    27    17    25    1
    28    25    28    1
    29    25    26    1
