@<TRIPOS>MOLECULE
mol_data/noopt/geoms/mol2/13el13id6eh4df-.out
 53 57 0 0 0
SMALL
GASTEIGER

@<TRIPOS>ATOM
      1 C           1.1215   -0.3259    0.0002 C.ar    1  LIG1        0.0213
      2 C           0.7176    0.9721   -0.0005 C.ar    1  LIG1        0.0842
      3 C          -0.7144    0.9744    0.0003 C.ar    1  LIG1        0.1620
      4 C          -1.1226   -0.3223   -0.0003 C.ar    1  LIG1        0.1066
      5 N          -0.0018   -1.1217    0.0001 N.ar    1  LIG1       -0.3554
      6 H          -0.0034   -2.1157   -0.0003 H       1  LIG1        0.1655
      7 H           2.3167   -0.8373    0.0007 H       1  LIG1        0.0820
      8 C           1.4918    2.0164   -0.0003 C.1     1  LIG1       -0.0645
      9 C           2.2072    2.9814   -0.0001 C.1     1  LIG1       -0.1137
     10 H           2.8444    3.8409    0.0000 H       1  LIG1        0.1232
     11 O          -1.4853    2.0212    0.0010 O.3     1  LIG1       -0.4917
     12 C          -0.6829    3.2049    0.0012 C.3     1  LIG1        0.0789
     13 H          -1.3178    4.0662    0.0016 H       1  LIG1        0.0660
     14 H          -0.0650    3.2168    0.8747 H       1  LIG1        0.0660
     15 H          -0.0654    3.2174   -0.8726 H       1  LIG1        0.0660
     16 C          -2.3194   -0.8299   -0.0001 C.ar    1  LIG1        0.0712
     17 C          -3.5352   -0.2220    0.0163 C.ar    1  LIG1       -0.0057
     18 C          -4.5290   -1.2531    0.0088 C.ar    1  LIG1        0.0806
     19 C          -3.8768   -2.4456   -0.0136 C.ar    1  LIG1        0.0675
     20 N          -2.5238   -2.1911   -0.0187 N.ar    1  LIG1       -0.3516
     21 H          -1.8082   -2.8808   -0.0339 H       1  LIG1        0.1660
     22 C          -3.7519    1.0599    0.0366 C.3     1  LIG1       -0.0364
     23 H          -4.6715    1.2582    0.5466 H       1  LIG1        0.0279
     24 H          -3.8141    1.4271   -0.9665 H       1  LIG1        0.0279
     25 H          -2.9486    1.5494    0.5465 H       1  LIG1        0.0279
     26 N          -6.9547   -0.9346    0.0312 N.1     1  LIG1       -0.1908
     27 C          -5.8179   -1.0839    0.0207 C.1     1  LIG1        0.1016
     28 C          -3.4590   -4.7572   -0.0357 C.ar    1  LIG1        0.1231
     29 C          -4.3399   -3.6602   -0.0280 C.ar    1  LIG1        0.0352
     30 C          -5.7137   -3.9084   -0.0358 C.ar    1  LIG1       -0.0257
     31 C          -6.1574   -5.2318   -0.0511 C.ar    1  LIG1        0.0694
     32 C          -5.1987   -6.2615   -0.0580 C.ar    1  LIG1        0.0948
     33 N          -3.8697   -6.0401   -0.0504 N.ar    1  LIG1       -0.2359
     34 H          -6.4325   -3.0768   -0.0311 H       1  LIG1        0.0644
     35 C          -2.1715   -4.5770   -0.0288 C.1     1  LIG1       -0.0491
     36 C          -0.9819   -4.4105   -0.0224 C.1     1  LIG1       -0.1124
     37 H           0.0777   -4.2621   -0.0168 H       1  LIG1        0.1232
     38 N          -7.4262   -5.5152   -0.0590 N.pl3   1  LIG1       -0.2606
     39 H          -7.9266   -4.7904   -0.5325 H       1  LIG1        0.1679
     40 H          -7.5707   -6.3841   -0.5325 H       1  LIG1        0.0564
     41 C          -6.9325   -7.8420   -0.0577 C.ar    1  LIG1       -0.0158
     42 C          -7.2748   -9.2079   -0.0724 C.ar    1  LIG1       -0.0528
     43 C          -5.5624   -7.5094   -0.0721 C.ar    1  LIG1        0.0105
     44 C          -6.2979  -10.2006   -0.1008 C.ar    1  LIG1       -0.0198
     45 H          -8.3261   -9.4867   -0.0614 H       1  LIG1        0.0622
     46 C          -4.5868   -8.5000   -0.1005 C.ar    1  LIG1       -0.0106
     47 C          -4.9469   -9.8516   -0.1152 C.ar    1  LIG1        0.1175
     48 H          -3.5370   -8.2181   -0.1111 H       1  LIG1        0.0661
     49 H          -6.6495  -11.4521   -0.1139 H       1  LIG1        0.0654
     50 N          -8.7320   -6.1852   -0.0082 N.3     1  LIG1       -0.1348
     51 C          -7.8887   -6.9616   -0.0314 C.3     1  LIG1        0.0936
     52 O          -4.0304  -10.7732   -0.1416 O.3     1  LIG1       -0.5067
     53 H          -3.1628  -10.3623   -0.1481 H       1  LIG1        0.2921
@<TRIPOS>BOND
     1    24    22    1
     2    15    12    1
     3    40    51    1
     4    39    38    1
     5    53    52    1
     6    52    47    1
     7    47    44   ar
     8    47    46   ar
     9    49    44    1
    10    48    46    1
    11    44    42   ar
    12    46    43   ar
    13    42    45    1
    14    42    41   ar
    15    43    32    1
    16    43    41   ar
    17    38    31    1
    18    38    50    1
    19    32    31   ar
    20    32    33   ar
    21    41    51    1
    22    31    30   ar
    23    33    28   ar
    24    30    34    1
    25    30    29   ar
    26    28    35    1
    27    28    29   ar
    28    21    20    1
    29    51    50    1
    30    35    36    3
    31    29    19    1
    32    36    37    1
    33    20    19   ar
    34    20    16   ar
    35    19    18   ar
    36     2     8    1
    37     2     1   ar
    38     2     3   ar
    39     8     9    3
    40     4    16    1
    41     4     5   ar
    42     4     3   ar
    43     6     5    1
    44     9    10    1
    45    16    17   ar
    46     5     1   ar
    47     1     7    1
    48     3    11    1
    49    11    12    1
    50    12    13    1
    51    12    14    1
    52    18    17   ar
    53    18    27    1
    54    17    22    1
    55    27    26    3
    56    22    25    1
    57    22    23    1
