@<TRIPOS>MOLECULE
mol_data/noopt/geoms/mol2/13el6if(300)6id(10)12ia(70).out
 52 55 0 0 0
SMALL
GASTEIGER

@<TRIPOS>ATOM
      1 C           1.1215   -0.3259    0.0002 C.ar    1  LIG1        0.0213
      2 C           0.7176    0.9721   -0.0005 C.ar    1  LIG1        0.0842
      3 C          -0.7144    0.9744    0.0003 C.ar    1  LIG1        0.1606
      4 C          -1.1226   -0.3223   -0.0003 C.ar    1  LIG1        0.0918
      5 N          -0.0018   -1.1217    0.0001 N.ar    1  LIG1       -0.3565
      6 H          -0.0034   -2.1157   -0.0003 H       1  LIG1        0.1655
      7 H           2.3167   -0.8373    0.0007 H       1  LIG1        0.0820
      8 C           1.4918    2.0164   -0.0003 C.1     1  LIG1       -0.0645
      9 C           2.2072    2.9814   -0.0001 C.1     1  LIG1       -0.1137
     10 H           2.8444    3.8409    0.0000 H       1  LIG1        0.1232
     11 O          -1.4853    2.0212    0.0010 O.3     1  LIG1       -0.4918
     12 C          -0.6829    3.2049    0.0012 C.3     1  LIG1        0.0789
     13 H          -1.3178    4.0662    0.0016 H       1  LIG1        0.0660
     14 H          -0.0650    3.2168    0.8747 H       1  LIG1        0.0660
     15 H          -0.0654    3.2174   -0.8726 H       1  LIG1        0.0660
     16 C          -2.7368   -1.6665    1.0512 C.ar    1  LIG1        0.0484
     17 C          -2.3194   -0.8299   -0.0001 C.ar    1  LIG1        0.0264
     18 C          -3.2172   -0.5609   -1.0348 C.ar    1  LIG1       -0.0071
     19 C          -4.4902   -1.1317   -0.9852 C.ar    1  LIG1        0.1434
     20 C          -4.8146   -1.9556    0.1081 C.ar    1  LIG1        0.1143
     21 N          -3.9609   -2.2255    1.1149 N.ar    1  LIG1       -0.2475
     22 H          -2.9264    0.0874   -1.8735 H       1  LIG1        0.0662
     23 C          -1.9367   -1.9463    2.0372 C.3     1  LIG1       -0.0217
     24 H          -1.7900   -1.0721    2.6365 H       1  LIG1        0.0293
     25 H          -0.9950   -2.2754    1.6501 H       1  LIG1        0.0293
     26 H          -2.3666   -2.7215    2.6365 H       1  LIG1        0.0293
     27 O          -5.3622   -0.9121   -1.9242 O.3     1  LIG1       -0.5046
     28 H          -5.7980   -1.7355   -2.1556 H       1  LIG1        0.2922
     29 C          -6.1311   -3.8999    0.0389 C.ar    1  LIG1        0.0484
     30 C          -5.9871   -2.5096    0.1991 C.ar    1  LIG1        0.0262
     31 C          -7.1275   -1.7465    0.4566 C.ar    1  LIG1       -0.0311
     32 C          -8.3622   -2.3919    0.5444 C.ar    1  LIG1        0.0813
     33 C          -8.4045   -3.7873    0.3693 C.ar    1  LIG1        0.1238
     34 N          -7.3143   -4.5389    0.1204 N.ar    1  LIG1       -0.2468
     35 H          -7.0544   -0.6575    0.5865 H       1  LIG1        0.0638
     36 C          -5.0986   -4.6527   -0.2022 C.3     1  LIG1       -0.0217
     37 H          -4.2251   -4.2084    0.2274 H       1  LIG1        0.0293
     38 H          -4.9665   -4.7490   -1.2596 H       1  LIG1        0.0293
     39 H          -5.2546   -5.6202    0.2273 H       1  LIG1        0.0293
     40 N         -10.4153   -1.1389    0.9920 N.1     1  LIG1       -0.1908
     41 C          -9.4531   -1.7261    0.7823 C.1     1  LIG1        0.1014
     42 C          -9.5302   -4.4333    0.4420 C.ar    1  LIG1        0.1570
     43 C         -10.5232   -4.5752    1.3891 C.ar    1  LIG1       -0.0032
     44 C         -11.5198   -5.4559    0.8164 C.ar    1  LIG1       -0.0203
     45 C         -11.0696   -5.7939   -0.4432 C.ar    1  LIG1        0.0929
     46 O          -9.8448   -5.1757   -0.6971 O.2     1  LIG1       -0.4611
     47 H         -11.5110   -6.5332   -1.4172 H       1  LIG1        0.1029
     48 C         -10.5787   -4.0359    2.5710 C.3     1  LIG1       -0.0361
     49 H         -11.4160   -4.4334    3.1055 H       1  LIG1        0.0279
     50 H         -10.6877   -2.9758    2.4746 H       1  LIG1        0.0279
     51 H          -9.6779   -4.2547    3.1054 H       1  LIG1        0.0279
     52 H         -12.6176   -5.8380    1.3986 H       1  LIG1        0.0652
@<TRIPOS>BOND
     1    28    27    1
     2    27    19    1
     3    22    18    1
     4    47    45    1
     5    38    36    1
     6    18    19   ar
     7    18    17   ar
     8    19    20   ar
     9    15    12    1
    10    46    45   ar
    11    46    42   ar
    12    45    44   ar
    13    36    29    1
    14    36    39    1
    15    36    37    1
    16     2     8    1
    17     2     1   ar
    18     2     3   ar
    19     8     9    3
    20     6     5    1
    21     4    17    1
    22     4     5   ar
    23     4     3   ar
    24     9    10    1
    25    17    16   ar
    26     5     1   ar
    27     1     7    1
    28     3    11    1
    29    11    12    1
    30    12    13    1
    31    12    14    1
    32    29    34   ar
    33    29    30   ar
    34    20    30    1
    35    20    21   ar
    36    34    33   ar
    37    30    31   ar
    38    33    42    1
    39    33    32   ar
    40    42    43   ar
    41    31    32   ar
    42    31    35    1
    43    32    41    1
    44    41    40    3
    45    44    43   ar
    46    44    52    1
    47    16    21   ar
    48    16    23    1
    49    43    48    1
    50    25    23    1
    51    23    26    1
    52    23    24    1
    53    50    48    1
    54    48    51    1
    55    48    49    1
