@<TRIPOS>MOLECULE
mol_data/noopt/geoms/mol2/13el4dh13fa4al.out
 52 55 0 0 0
SMALL
GASTEIGER

@<TRIPOS>ATOM
      1 C           1.1215   -0.3259    0.0002 C.ar    1  LIG1        0.0213
      2 C           0.7176    0.9721   -0.0005 C.ar    1  LIG1        0.0842
      3 C          -0.7144    0.9744    0.0003 C.ar    1  LIG1        0.1606
      4 C          -1.1226   -0.3223   -0.0003 C.ar    1  LIG1        0.0913
      5 N          -0.0018   -1.1217    0.0001 N.ar    1  LIG1       -0.3565
      6 H          -0.0034   -2.1157   -0.0003 H       1  LIG1        0.1655
      7 H           2.3167   -0.8373    0.0007 H       1  LIG1        0.0820
      8 C           1.4918    2.0164   -0.0003 C.1     1  LIG1       -0.0645
      9 C           2.2072    2.9814   -0.0001 C.1     1  LIG1       -0.1137
     10 H           2.8444    3.8409    0.0000 H       1  LIG1        0.1232
     11 O          -1.4853    2.0212    0.0010 O.3     1  LIG1       -0.4918
     12 C          -0.6829    3.2049    0.0012 C.3     1  LIG1        0.0789
     13 H          -1.3178    4.0662    0.0016 H       1  LIG1        0.0660
     14 H          -0.0650    3.2168    0.8747 H       1  LIG1        0.0660
     15 H          -0.0654    3.2174   -0.8726 H       1  LIG1        0.0660
     16 C          -3.4434    0.0212    0.0008 C.ar    1  LIG1        0.0617
     17 C          -4.7180   -0.5776    0.0025 C.ar    1  LIG1       -0.0327
     18 C          -2.3194   -0.8299   -0.0001 C.ar    1  LIG1        0.0210
     19 C          -4.8692   -1.9625    0.0027 C.ar    1  LIG1        0.0238
     20 H          -5.5988    0.0606    0.0034 H       1  LIG1        0.0638
     21 C          -2.4697   -2.2124    0.0001 C.ar    1  LIG1       -0.0299
     22 C          -3.7444   -2.7884    0.0015 C.ar    1  LIG1        0.0346
     23 H          -1.5874   -2.8474   -0.0005 H       1  LIG1        0.0643
     24 N          -3.2980    2.4635   -0.0000 N.1     1  LIG1       -0.1908
     25 C          -3.3661    1.3189    0.0004 C.1     1  LIG1        0.0998
     26 N          -3.8788   -4.0814    0.0018 N.pl3   1  LIG1       -0.3574
     27 H          -4.7254   -4.3287   -0.4695 H       1  LIG1        0.1423
     28 H          -3.1012   -4.4975   -0.4695 H       1  LIG1        0.1423
     29 C          -6.0610   -2.4816    0.0042 C.ar    1  LIG1        0.0907
     30 C          -7.2826   -1.8856    0.0215 C.ar    1  LIG1        0.1427
     31 C          -8.2663   -2.9262    0.0153 C.ar    1  LIG1        0.0058
     32 C          -7.6026   -4.1124   -0.0072 C.ar    1  LIG1        0.0506
     33 N          -6.2522   -3.8448   -0.0136 N.ar    1  LIG1       -0.3512
     34 H          -5.5299   -4.5275   -0.0293 H       1  LIG1        0.1660
     35 O          -7.5117   -0.6060    0.0415 O.3     1  LIG1       -0.5046
     36 H          -8.4589   -0.4502    0.0465 H       1  LIG1        0.2922
     37 H          -9.5568   -2.7695    0.0283 H       1  LIG1        0.0675
     38 C          -9.4442   -5.5657   -0.0272 C.ar    1  LIG1       -0.0524
     39 C          -9.8825   -6.9040   -0.0403 C.ar    1  LIG1       -0.0577
     40 C          -8.0539   -5.3314   -0.0207 C.ar    1  LIG1        0.0019
     41 C          -8.9783   -7.9637   -0.0472 C.ar    1  LIG1       -0.0199
     42 H         -10.9511   -7.1073   -0.0453 H       1  LIG1        0.0619
     43 C          -7.1508   -6.3890   -0.0276 C.ar    1  LIG1       -0.0108
     44 C          -7.6059   -7.7116   -0.0410 C.ar    1  LIG1        0.1207
     45 H          -6.0836   -6.1824   -0.0222 H       1  LIG1        0.0661
     46 H          -9.4178   -9.1871   -0.0593 H       1  LIG1        0.0654
     47 H         -10.3357   -4.6195   -0.0215 H       1  LIG1        0.0624
     48 O          -6.7570   -8.6962   -0.0472 O.3     1  LIG1       -0.4951
     49 C          -7.4662   -9.9379   -0.0496 C.3     1  LIG1        0.0788
     50 H          -6.7672  -10.7479   -0.0548 H       1  LIG1        0.0660
     51 H          -8.0783  -10.0007    0.8259 H       1  LIG1        0.0660
     52 H          -8.0840   -9.9941   -0.9214 H       1  LIG1        0.0660
@<TRIPOS>BOND
     1    52    49    1
     2    15    12    1
     3    28    26    1
     4    27    26    1
     5    46    41    1
     6    50    49    1
     7    49    48    1
     8    49    51    1
     9    48    44    1
    10    41    44   ar
    11    41    39   ar
    12    42    39    1
    13    44    43   ar
    14    39    38   ar
    15    34    33    1
    16    43    45    1
    17    43    40   ar
    18    38    47    1
    19    38    40   ar
    20    40    32    1
    21    33    32   ar
    22    33    29   ar
    23    32    31   ar
    24     2     8    1
    25     2     1   ar
    26     2     3   ar
    27    23    21    1
    28     4    18    1
    29     4     5   ar
    30     4     3   ar
    31     8     9    3
    32     6     5    1
    33     9    10    1
    34    18    21   ar
    35    18    16   ar
    36    24    25    3
    37     5     1   ar
    38    21    22   ar
    39     1     7    1
    40     3    11    1
    41    25    16    1
    42    16    17   ar
    43    11    12    1
    44    12    13    1
    45    12    14    1
    46    22    26    1
    47    22    19   ar
    48    17    19   ar
    49    17    20    1
    50    19    29    1
    51    29    30   ar
    52    31    30   ar
    53    31    37    1
    54    30    35    1
    55    35    36    1
