@<TRIPOS>MOLECULE
mol_data/noopt/geoms/mol2/13el13el-13el-13el.out
 58 60 0 0 0
SMALL
GASTEIGER

@<TRIPOS>ATOM
      1 C           1.1215   -0.3259    0.0002 C.ar    1  LIG1        0.0213
      2 C           0.7176    0.9721   -0.0005 C.ar    1  LIG1        0.0842
      3 C          -0.7144    0.9744    0.0003 C.ar    1  LIG1        0.1620
      4 C          -1.1226   -0.3223   -0.0003 C.ar    1  LIG1        0.1077
      5 N          -0.0018   -1.1217    0.0001 N.ar    1  LIG1       -0.3554
      6 H          -0.0034   -2.1157   -0.0003 H       1  LIG1        0.1655
      7 H           2.3167   -0.8373    0.0007 H       1  LIG1        0.0820
      8 C           1.4918    2.0164   -0.0003 C.1     1  LIG1       -0.0645
      9 C           2.2072    2.9814   -0.0001 C.1     1  LIG1       -0.1137
     10 H           2.8444    3.8409    0.0000 H       1  LIG1        0.1232
     11 O          -1.4853    2.0212    0.0010 O.3     1  LIG1       -0.4917
     12 C          -0.6829    3.2049    0.0012 C.3     1  LIG1        0.0789
     13 H          -1.3178    4.0662    0.0016 H       1  LIG1        0.0660
     14 H          -0.0650    3.2168    0.8747 H       1  LIG1        0.0660
     15 H          -0.0654    3.2174   -0.8726 H       1  LIG1        0.0660
     16 C          -2.3194   -0.8299   -0.0001 C.ar    1  LIG1        0.0864
     17 C          -2.7274   -2.1266   -0.0005 C.ar    1  LIG1        0.0987
     18 C          -4.1594   -2.1244    0.0011 C.ar    1  LIG1        0.2214
     19 C          -4.5635   -0.8264    0.0006 C.ar    1  LIG1        0.1123
     20 N          -3.4402   -0.0305    0.0003 N.ar    1  LIG1       -0.3477
     21 H          -3.4386    0.9635   -0.0001 H       1  LIG1        0.1661
     22 C          -1.9565   -3.1734   -0.0006 C.1     1  LIG1       -0.0636
     23 C          -1.2442   -4.1406   -0.0007 C.1     1  LIG1       -0.1137
     24 H          -0.6097   -5.0022   -0.0008 H       1  LIG1        0.1232
     25 O          -4.9337   -3.1687    0.0023 O.3     1  LIG1       -0.2843
     26 C          -6.3008   -2.7494    0.0027 C.3     1  LIG1       -0.0543
     27 H          -6.9376   -3.6092    0.0035 H       1  LIG1        0.0239
     28 H          -6.4935   -2.1620    0.8761 H       1  LIG1        0.0239
     29 H          -6.4943   -2.1631   -0.8712 H       1  LIG1        0.0239
     30 C          -5.7587   -0.3150    0.0014 C.ar    1  LIG1        0.0747
     31 C          -6.9765   -0.9191    0.0015 C.ar    1  LIG1        0.0338
     32 C          -7.9670    0.1151    0.0037 C.ar    1  LIG1        0.2099
     33 C          -7.3109    1.3057    0.0031 C.ar    1  LIG1        0.1143
     34 N          -5.9587    1.0470    0.0022 N.ar    1  LIG1       -0.3484
     35 H          -5.2408    1.7345    0.0016 H       1  LIG1        0.1661
     36 C          -7.1973   -2.2002    0.0012 C.3     1  LIG1        0.0118
     37 C          -7.4013   -3.3840    0.0010 C.3     1  LIG1       -0.0228
     38 H          -7.5830   -4.4384    0.0007 H       1  LIG1        0.0316
     39 O          -9.2565   -0.0501    0.0054 O.3     1  LIG1       -0.2853
     40 C          -9.9012    1.2263    0.0060 C.3     2  LIG2       -0.0776
     41 H         -10.9624    1.0899    0.0073 H       1  LIG1        0.0194
     42 H          -9.6107    1.7723    0.8793 H       1  LIG1        0.0194
     43 H          -9.6128    1.7720   -0.8680 H       1  LIG1        0.0194
     44 C          -7.7701    2.5219    0.0044 C.ar    1  LIG1        0.1099
     45 C          -7.1139    3.7125    0.0049 C.ar    1  LIG1        0.0951
     46 C          -8.1043    4.7467    0.0074 C.ar    1  LIG1        0.1555
     47 C          -9.3222    4.1427    0.0066 C.ar    1  LIG1        0.0713
     48 N          -9.1222    2.7807    0.0052 N.ar    1  LIG1       -0.2484
     49 H          -9.8401    2.0932    0.0043 H       1  LIG1        0.0194
     50 H         -10.5174    4.6541    0.0080 H       1  LIG1        0.0867
     51 C          -5.8244    3.8776    0.0047 C.1     1  LIG1       -0.0637
     52 C          -4.6330    4.0303    0.0045 C.1     1  LIG1       -0.1137
     53 H          -3.5716    4.1662    0.0043 H       1  LIG1        0.1232
     54 O          -7.8835    6.0279    0.0096 O.3     1  LIG1       -0.4923
     55 C          -6.4740    6.2692    0.0103 C.3     1  LIG1        0.0789
     56 H          -6.2927    7.3238    0.0120 H       1  LIG1        0.0660
     57 H          -6.0375    5.8310    0.8835 H       1  LIG1        0.0660
     58 H          -6.0371    5.8336   -0.8638 H       1  LIG1        0.0660
@<TRIPOS>BOND
     1    15    12    1
     2    29    26    1
     3    43    40    1
     4    58    55    1
     5    24    23    1
     6    23    22    3
     7    22    17    1
     8     2     8    1
     9     2     1   ar
    10     2     3   ar
    11    17    16   ar
    12    17    18   ar
    13     4    16    1
    14     4     5   ar
    15     4     3   ar
    16     6     5    1
    17     8     9    3
    18    21    20    1
    19     9    10    1
    20    16    20   ar
    21     5     1   ar
    22     1     7    1
    23     3    11    1
    24    20    19   ar
    25    19    18   ar
    26    19    30    1
    27    38    37    1
    28    37    36    1
    29    11    12    1
    30    18    25    1
    31    12    13    1
    32    12    14    1
    33    36    31    1
    34    36    26    1
    35    30    31   ar
    36    30    34   ar
    37    31    32   ar
    38    35    34    1
    39    34    33   ar
    40    26    27    1
    41    26    28    1
    42    33    32   ar
    43    33    44    1
    44    32    39    1
    45    53    52    1
    46    49    40    1
    47    44    45   ar
    48    44    48   ar
    49    52    51    3
    50    51    45    1
    51    45    46   ar
    52    48    47   ar
    53    40    41    1
    54    40    42    1
    55    47    46   ar
    56    47    50    1
    57    46    54    1
    58    54    55    1
    59    55    56    1
    60    55    57    1
