@<TRIPOS>MOLECULE
mol_data/noopt/geoms/mol2/13el13el-.out
 30 31 0 0 0
SMALL
GASTEIGER

@<TRIPOS>ATOM
      1 C           1.1215   -0.3259    0.0002 C.ar    1  LIG1        0.0213
      2 C           0.7176    0.9721   -0.0005 C.ar    1  LIG1        0.0842
      3 C          -0.7144    0.9744    0.0003 C.ar    1  LIG1        0.1620
      4 C          -1.1226   -0.3223   -0.0003 C.ar    1  LIG1        0.1077
      5 N          -0.0018   -1.1217    0.0001 N.ar    1  LIG1       -0.3554
      6 H          -0.0034   -2.1157   -0.0003 H       1  LIG1        0.1655
      7 H           2.3167   -0.8373    0.0007 H       1  LIG1        0.0820
      8 C           1.4918    2.0164   -0.0003 C.1     1  LIG1       -0.0645
      9 C           2.2072    2.9814   -0.0001 C.1     1  LIG1       -0.1137
     10 H           2.8444    3.8409    0.0000 H       1  LIG1        0.1232
     11 O          -1.4853    2.0212    0.0010 O.3     1  LIG1       -0.4917
     12 C          -0.6829    3.2049    0.0012 C.3     1  LIG1        0.0789
     13 H          -1.3178    4.0662    0.0016 H       1  LIG1        0.0660
     14 H          -0.0650    3.2168    0.8747 H       1  LIG1        0.0660
     15 H          -0.0654    3.2174   -0.8726 H       1  LIG1        0.0660
     16 C          -2.3194   -0.8299   -0.0001 C.ar    1  LIG1        0.0857
     17 C          -2.7274   -2.1266   -0.0005 C.ar    1  LIG1        0.0930
     18 C          -4.1594   -2.1244    0.0011 C.ar    1  LIG1        0.1533
     19 C          -4.5635   -0.8264    0.0006 C.ar    1  LIG1        0.0457
     20 N          -3.4402   -0.0305    0.0003 N.ar    1  LIG1       -0.3554
     21 H          -3.4386    0.9635   -0.0001 H       1  LIG1        0.1655
     22 H          -5.7587   -0.3150    0.0014 H       1  LIG1        0.0845
     23 C          -1.9565   -3.1734   -0.0006 C.1     1  LIG1       -0.0638
     24 C          -1.2442   -4.1406   -0.0007 C.1     1  LIG1       -0.1137
     25 H          -0.6097   -5.0022   -0.0008 H       1  LIG1        0.1232
     26 O          -4.9337   -3.1687    0.0023 O.3     1  LIG1       -0.4924
     27 C          -6.3008   -2.7494    0.0027 C.3     1  LIG1        0.0789
     28 H          -6.9376   -3.6092    0.0035 H       1  LIG1        0.0660
     29 H          -6.4935   -2.1620    0.8761 H       1  LIG1        0.0660
     30 H          -6.4943   -2.1631   -0.8712 H       1  LIG1        0.0660
@<TRIPOS>BOND
     1    15    12    1
     2    30    27    1
     3    25    24    1
     4    24    23    3
     5    23    17    1
     6     2     8    1
     7     2     1   ar
     8     2     3   ar
     9    17    16   ar
    10    17    18   ar
    11     4    16    1
    12     4     5   ar
    13     4     3   ar
    14     6     5    1
    15     8     9    3
    16    21    20    1
    17     9    10    1
    18    16    20   ar
    19     5     1   ar
    20     1     7    1
    21     3    11    1
    22    20    19   ar
    23    19    18   ar
    24    19    22    1
    25    11    12    1
    26    18    26    1
    27    12    13    1
    28    12    14    1
    29    26    27    1
    30    27    28    1
    31    27    29    1
