@<TRIPOS>MOLECULE
mol_data/noopt/geoms/mol2/13el4ha-6ff-6ii.out
 54 56 0 0 0
SMALL
GASTEIGER

@<TRIPOS>ATOM
      1 C           1.1215   -0.3259    0.0002 C.ar    1  LIG1        0.0215
      2 C           0.7176    0.9721   -0.0005 C.ar    1  LIG1        0.0892
      3 C          -0.7144    0.9744    0.0003 C.ar    1  LIG1        0.2193
      4 C          -1.1226   -0.3223   -0.0003 C.ar    1  LIG1        0.0968
      5 N          -0.0018   -1.1217    0.0001 N.ar    1  LIG1       -0.3564
      6 H          -0.0034   -2.1157   -0.0003 H       1  LIG1        0.1655
      7 H           2.3167   -0.8373    0.0007 H       1  LIG1        0.0820
      8 C           1.4918    2.0164   -0.0003 C.1     1  LIG1       -0.0643
      9 C           2.2072    2.9814   -0.0001 C.1     1  LIG1       -0.1137
     10 H           2.8444    3.8409    0.0000 H       1  LIG1        0.1232
     11 O          -1.4853    2.0212    0.0010 O.3     1  LIG1       -0.2843
     12 C          -0.6829    3.2049    0.0012 C.3     2  LIG2       -0.0681
     13 H          -1.3178    4.0662    0.0016 H       1  LIG1        0.0227
     14 H          -0.0650    3.2168    0.8747 H       1  LIG1        0.0227
     15 H          -0.0654    3.2174   -0.8726 H       1  LIG1        0.0227
     16 C          -3.4433    0.0211    0.0221 C.ar    1  LIG1        0.0345
     17 C          -4.7179   -0.5778    0.0229 C.ar    1  LIG1       -0.0325
     18 C          -2.3194   -0.8299   -0.0001 C.ar    1  LIG1        0.0227
     19 C          -4.8691   -1.9625    0.0019 C.ar    1  LIG1       -0.0109
     20 H          -5.5986    0.0603    0.0400 H       1  LIG1        0.0642
     21 C          -2.4698   -2.2123   -0.0211 C.ar    1  LIG1       -0.0502
     22 C          -3.7445   -2.7882   -0.0203 C.ar    1  LIG1       -0.0531
     23 H          -1.5876   -2.8471   -0.0379 H       1  LIG1        0.0625
     24 N          -3.3660    1.3186    0.0420 N.pl3   1  LIG1       -0.3574
     25 H          -2.5307    1.6099   -0.4242 H       1  LIG1        0.1423
     26 H          -4.1607    1.7071   -0.4243 H       1  LIG1        0.1423
     27 H          -3.8789   -4.0811   -0.0398 H       1  LIG1        0.0624
     28 C          -6.2282   -3.8785   -0.0171 C.ar    1  LIG1        0.2210
     29 C          -6.0610   -2.4817    0.0032 C.ar    1  LIG1        0.0470
     30 C          -7.1996   -1.6742    0.0249 C.ar    1  LIG1       -0.0052
     31 C          -8.4556   -2.2834    0.0254 C.ar    1  LIG1        0.1436
     32 C          -8.5203   -3.6887    0.0039 C.ar    1  LIG1        0.1178
     33 N          -7.4321   -4.4829   -0.0170 N.ar    1  LIG1       -0.2088
     34 H          -7.1085   -0.5788    0.0402 H       1  LIG1        0.0662
     35 O          -5.1985   -4.6719   -0.0376 O.3     1  LIG1       -0.4920
     36 H          -4.3924   -4.1506   -0.0427 H       1  LIG1        0.2937
     37 O          -9.5458   -1.5756    0.0450 O.3     1  LIG1       -0.5046
     38 H         -10.3073   -2.1601    0.0498 H       1  LIG1        0.2922
     39 C          -9.7204   -5.7081    0.0036 C.ar    1  LIG1        0.0475
     40 C          -9.6664   -4.3022    0.0036 C.ar    1  LIG1        0.0253
     41 C         -10.8665   -3.5888    0.0036 C.ar    1  LIG1       -0.0464
     42 C         -12.0693   -4.2972    0.0033 C.ar    1  LIG1       -0.0317
     43 C         -12.0205   -5.7034    0.0031 C.ar    1  LIG1        0.0308
     44 N         -10.8718   -6.4075    0.0033 N.ar    1  LIG1       -0.2592
     45 H         -10.8639   -2.4896    0.0026 H       1  LIG1        0.0628
     46 H         -13.1134   -6.4072    0.0029 H       1  LIG1        0.0832
     47 C          -8.6299   -6.4162    0.0037 C.3     1  LIG1       -0.0217
     48 H          -7.8550   -5.8778    0.5082 H       1  LIG1        0.0293
     49 H          -8.3306   -6.6105   -1.0051 H       1  LIG1        0.0293
     50 H          -8.8067   -7.3432    0.5081 H       1  LIG1        0.0293
     51 C         -13.2134   -3.6793    0.0031 C.3     1  LIG1       -0.0383
     52 H         -13.9425   -4.2784    0.5074 H       1  LIG1        0.0278
     53 H         -13.5271   -3.5099   -1.0058 H       1  LIG1        0.0278
     54 H         -13.1120   -2.7410    0.5074 H       1  LIG1        0.0278
@<TRIPOS>BOND
     1    53    51    1
     2    49    47    1
     3    15    12    1
     4    26    24    1
     5    25    24    1
     6    36    35    1
     7    27    22    1
     8    23    21    1
     9    35    28    1
    10    21    22   ar
    11    21    18   ar
    12    22    19   ar
    13    28    33   ar
    14    28    29   ar
    15    33    32   ar
    16     2     8    1
    17     2     1   ar
    18     2     3   ar
    19     8     9    3
    20     6     5    1
    21     4    18    1
    22     4     5   ar
    23     4     3   ar
    24     9    10    1
    25    18    16   ar
    26     5     1   ar
    27     1     7    1
    28     3    11    1
    29    12    13    1
    30    12    14    1
    31    19    29    1
    32    19    17   ar
    33    45    41    1
    34    46    43    1
    35    51    42    1
    36    51    54    1
    37    51    52    1
    38    43    42   ar
    39    43    44   ar
    40    29    30   ar
    41    42    41   ar
    42    44    39   ar
    43    41    40   ar
    44    39    40   ar
    45    39    47    1
    46    40    32    1
    47    47    50    1
    48    47    48    1
    49    32    31   ar
    50    16    17   ar
    51    16    24    1
    52    17    20    1
    53    30    31   ar
    54    30    34    1
    55    31    37    1
    56    37    38    1
