@<TRIPOS>MOLECULE
mol_data/noopt/geoms/mol2/13el13el-13el13el-.out
 58 60 0 0 0
SMALL
GASTEIGER

@<TRIPOS>ATOM
      1 C           1.1215   -0.3259    0.0002 C.ar    1  LIG1        0.0213
      2 C           0.7176    0.9721   -0.0005 C.ar    1  LIG1        0.0842
      3 C          -0.7144    0.9744    0.0003 C.ar    1  LIG1        0.1620
      4 C          -1.1226   -0.3223   -0.0003 C.ar    1  LIG1        0.1077
      5 N          -0.0018   -1.1217    0.0001 N.ar    1  LIG1       -0.3554
      6 H          -0.0034   -2.1157   -0.0003 H       1  LIG1        0.1655
      7 H           2.3167   -0.8373    0.0007 H       1  LIG1        0.0820
      8 C           1.4918    2.0164   -0.0003 C.1     1  LIG1       -0.0645
      9 C           2.2072    2.9814   -0.0001 C.1     1  LIG1       -0.1137
     10 H           2.8444    3.8409    0.0000 H       1  LIG1        0.1232
     11 O          -1.4853    2.0212    0.0010 O.3     1  LIG1       -0.4917
     12 C          -0.6829    3.2049    0.0012 C.3     1  LIG1        0.0789
     13 H          -1.3178    4.0662    0.0016 H       1  LIG1        0.0660
     14 H          -0.0650    3.2168    0.8747 H       1  LIG1        0.0660
     15 H          -0.0654    3.2174   -0.8726 H       1  LIG1        0.0660
     16 C          -2.3194   -0.8299   -0.0001 C.ar    1  LIG1        0.0864
     17 C          -2.7274   -2.1266   -0.0005 C.ar    1  LIG1        0.0987
     18 C          -4.1594   -2.1244    0.0011 C.ar    1  LIG1        0.2215
     19 C          -4.5635   -0.8264    0.0006 C.ar    1  LIG1        0.1153
     20 N          -3.4402   -0.0305    0.0003 N.ar    1  LIG1       -0.3476
     21 H          -3.4386    0.9635   -0.0001 H       1  LIG1        0.1661
     22 C          -1.9565   -3.1734   -0.0006 C.1     1  LIG1       -0.0636
     23 C          -1.2442   -4.1406   -0.0007 C.1     1  LIG1       -0.1137
     24 H          -0.6097   -5.0022   -0.0008 H       1  LIG1        0.1232
     25 O          -4.9337   -3.1687    0.0023 O.3     1  LIG1       -0.2843
     26 C          -6.3008   -2.7494    0.0027 C.3     2  LIG2       -0.0776
     27 H          -6.9376   -3.6092    0.0035 H       1  LIG1        0.0194
     28 H          -6.4935   -2.1620    0.8761 H       1  LIG1        0.0194
     29 H          -6.4943   -2.1631   -0.8712 H       1  LIG1        0.0194
     30 C          -5.7587   -0.3150    0.0014 C.ar    1  LIG1        0.1107
     31 C          -6.1626    0.9830    0.0016 C.ar    1  LIG1        0.0958
     32 C          -7.5946    0.9853    0.0038 C.ar    1  LIG1        0.1648
     33 C          -8.0028   -0.3114    0.0030 C.ar    1  LIG1        0.1319
     34 N          -6.8820   -1.1108    0.0021 N.ar    1  LIG1       -0.2385
     35 H          -6.8836   -2.1048    0.0013 H       1  LIG1        0.0194
     36 C          -5.3884    2.0273    0.0015 C.1     1  LIG1       -0.0637
     37 C          -4.6730    2.9923    0.0014 C.1     1  LIG1       -0.1137
     38 H          -4.0358    3.8518    0.0013 H       1  LIG1        0.1232
     39 O          -8.3655    2.0321    0.0056 O.3     1  LIG1       -0.4916
     40 C          -7.5631    3.2158    0.0062 C.3     1  LIG1        0.0789
     41 H          -8.1980    4.0771    0.0075 H       1  LIG1        0.0660
     42 H          -6.9448    3.2271    0.8794 H       1  LIG1        0.0660
     43 H          -6.9461    3.2289   -0.8679 H       1  LIG1        0.0660
     44 C          -9.1996   -0.8190    0.0041 C.ar    1  LIG1        0.0878
     45 C          -9.6076   -2.1157    0.0044 C.ar    1  LIG1        0.0931
     46 C         -11.0396   -2.1135    0.0069 C.ar    1  LIG1        0.1533
     47 C         -11.4437   -0.8155    0.0063 C.ar    1  LIG1        0.0457
     48 N         -10.3204   -0.0196    0.0051 N.ar    1  LIG1       -0.3553
     49 H         -10.3188    0.9744    0.0043 H       1  LIG1        0.1655
     50 H         -12.6389   -0.3041    0.0077 H       1  LIG1        0.0845
     51 C          -8.8367   -3.1625    0.0040 C.1     1  LIG1       -0.0638
     52 C          -8.1244   -4.1297    0.0037 C.1     1  LIG1       -0.1137
     53 H          -7.4899   -4.9913    0.0034 H       1  LIG1        0.1232
     54 O         -11.8139   -3.1578    0.0089 O.3     1  LIG1       -0.4924
     55 C         -13.1810   -2.7385    0.0095 C.3     1  LIG1        0.0789
     56 H         -13.8179   -3.5983    0.0110 H       1  LIG1        0.0660
     57 H         -13.3734   -2.1507    0.8828 H       1  LIG1        0.0660
     58 H         -13.3748   -2.1526   -0.8645 H       1  LIG1        0.0660
@<TRIPOS>BOND
     1    15    12    1
     2    29    26    1
     3    43    40    1
     4    58    55    1
     5    24    23    1
     6    23    22    3
     7    22    17    1
     8     2     8    1
     9     2     1   ar
    10     2     3   ar
    11    17    16   ar
    12    17    18   ar
    13     4    16    1
    14     4     5   ar
    15     4     3   ar
    16     6     5    1
    17     8     9    3
    18    21    20    1
    19     9    10    1
    20    16    20   ar
    21     5     1   ar
    22     1     7    1
    23     3    11    1
    24    20    19   ar
    25    19    18   ar
    26    19    30    1
    27    11    12    1
    28    18    25    1
    29    12    13    1
    30    12    14    1
    31    35    26    1
    32    38    37    1
    33    37    36    3
    34    30    31   ar
    35    30    34   ar
    36    36    31    1
    37    31    32   ar
    38    34    33   ar
    39    26    27    1
    40    26    28    1
    41    33    32   ar
    42    33    44    1
    43    53    52    1
    44    52    51    3
    45    32    39    1
    46    51    45    1
    47    44    45   ar
    48    44    48   ar
    49    49    48    1
    50    45    46   ar
    51    48    47   ar
    52    39    40    1
    53    40    41    1
    54    40    42    1
    55    47    46   ar
    56    47    50    1
    57    46    54    1
    58    54    55    1
    59    55    56    1
    60    55    57    1
