@<TRIPOS>MOLECULE
mol_data/noopt/geoms/mol2/13el13el13el-13el.out
 58 60 0 0 0
SMALL
GASTEIGER

@<TRIPOS>ATOM
      1 C           1.1215   -0.3259    0.0002 C.ar    1  LIG1        0.0213
      2 C           0.7176    0.9721   -0.0005 C.ar    1  LIG1        0.0842
      3 C          -0.7144    0.9744    0.0003 C.ar    1  LIG1        0.1620
      4 C          -1.1226   -0.3223   -0.0003 C.ar    1  LIG1        0.1077
      5 N          -0.0018   -1.1217    0.0001 N.ar    1  LIG1       -0.3554
      6 H          -0.0034   -2.1157   -0.0003 H       1  LIG1        0.1655
      7 H           2.3167   -0.8373    0.0007 H       1  LIG1        0.0820
      8 C           1.4918    2.0164   -0.0003 C.1     1  LIG1       -0.0645
      9 C           2.2072    2.9814   -0.0001 C.1     1  LIG1       -0.1137
     10 H           2.8444    3.8409    0.0000 H       1  LIG1        0.1232
     11 O          -1.4853    2.0212    0.0010 O.3     1  LIG1       -0.4917
     12 C          -0.6829    3.2049    0.0012 C.3     1  LIG1        0.0789
     13 H          -1.3178    4.0662    0.0016 H       1  LIG1        0.0660
     14 H          -0.0650    3.2168    0.8747 H       1  LIG1        0.0660
     15 H          -0.0654    3.2174   -0.8726 H       1  LIG1        0.0660
     16 C          -2.3194   -0.8299   -0.0001 C.ar    1  LIG1        0.0862
     17 C          -3.5353   -0.2219   -0.0003 C.ar    1  LIG1        0.0937
     18 C          -4.5290   -1.2530    0.0012 C.ar    1  LIG1        0.1627
     19 C          -3.8767   -2.4457    0.0005 C.ar    1  LIG1        0.1082
     20 N          -2.5238   -2.1913    0.0002 N.ar    1  LIG1       -0.3478
     21 H          -1.8081   -2.8811   -0.0004 H       1  LIG1        0.1661
     22 C          -3.7520    1.0599   -0.0003 C.1     1  LIG1       -0.0638
     23 C          -3.9522    2.2443   -0.0003 C.1     1  LIG1       -0.1137
     24 H          -4.1306    3.2993   -0.0002 H       1  LIG1        0.1232
     25 O          -5.8180   -1.0837    0.0025 O.3     1  LIG1       -0.4917
     26 C          -6.1157    0.3150    0.0029 C.3     1  LIG1        0.0789
     27 H          -7.1766    0.4539    0.0038 H       1  LIG1        0.0660
     28 H          -5.6958    0.7688    0.8763 H       1  LIG1        0.0660
     29 H          -5.6973    0.7690   -0.8710 H       1  LIG1        0.0660
     30 C          -4.3398   -3.6604    0.0012 C.ar    1  LIG1        0.0864
     31 C          -3.6874   -4.8530    0.0012 C.ar    1  LIG1        0.0987
     32 C          -4.6811   -5.8841    0.0032 C.ar    1  LIG1        0.2215
     33 C          -5.8970   -5.2763    0.0027 C.ar    1  LIG1        0.1153
     34 N          -5.6927   -3.9149    0.0019 N.ar    1  LIG1       -0.3476
     35 H          -6.4084   -3.2251    0.0013 H       1  LIG1        0.1661
     36 C          -2.3984   -5.0223    0.0009 C.1     1  LIG1       -0.0636
     37 C          -1.2075   -5.1787    0.0007 C.1     1  LIG1       -0.1137
     38 H          -0.1466   -5.3180    0.0005 H       1  LIG1        0.1232
     39 O          -4.4643   -7.1660    0.0049 O.3     1  LIG1       -0.2843
     40 C          -5.7139   -7.8613    0.0054 C.3     2  LIG2       -0.0776
     41 H          -5.5350   -8.9163    0.0066 H       1  LIG1        0.0194
     42 H          -6.2710   -7.5931    0.8787 H       1  LIG1        0.0194
     43 H          -6.2707   -7.5950   -0.8686 H       1  LIG1        0.0194
     44 C          -7.0939   -5.7839    0.0038 C.ar    1  LIG1        0.1099
     45 C          -8.3097   -5.1759    0.0043 C.ar    1  LIG1        0.0951
     46 C          -9.3034   -6.2070    0.0067 C.ar    1  LIG1        0.1555
     47 C          -8.6511   -7.3997    0.0060 C.ar    1  LIG1        0.0713
     48 N          -7.2982   -7.1453    0.0047 N.ar    1  LIG1       -0.2484
     49 H          -6.5825   -7.8351    0.0038 H       1  LIG1        0.0194
     50 H          -9.1142   -8.6144    0.0073 H       1  LIG1        0.0867
     51 C          -8.5264   -3.8941    0.0041 C.1     1  LIG1       -0.0637
     52 C          -8.7267   -2.7097    0.0039 C.1     1  LIG1       -0.1137
     53 H          -8.9051   -1.6547    0.0038 H       1  LIG1        0.1232
     54 O         -10.5924   -6.0377    0.0089 O.3     1  LIG1       -0.4923
     55 C         -10.8901   -4.6390    0.0096 C.3     1  LIG1        0.0789
     56 H         -11.9510   -4.5001    0.0111 H       1  LIG1        0.0660
     57 H         -10.4697   -4.1853    0.8827 H       1  LIG1        0.0660
     58 H         -10.4723   -4.1850   -0.8646 H       1  LIG1        0.0660
@<TRIPOS>BOND
     1    15    12    1
     2    29    26    1
     3    43    40    1
     4    58    55    1
     5     2     8    1
     6     2     1   ar
     7     2     3   ar
     8    21    20    1
     9    17    22    1
    10    17    16   ar
    11    17    18   ar
    12     4    16    1
    13     4     5   ar
    14     4     3   ar
    15     6     5    1
    16     8     9    3
    17    22    23    3
    18    23    24    1
    19     9    10    1
    20    16    20   ar
    21     5     1   ar
    22    20    19   ar
    23     1     7    1
    24     3    11    1
    25    38    37    1
    26    19    18   ar
    27    19    30    1
    28    37    36    3
    29    36    31    1
    30    11    12    1
    31    31    30   ar
    32    31    32   ar
    33    12    13    1
    34    12    14    1
    35    18    25    1
    36    30    34   ar
    37    35    34    1
    38    34    33   ar
    39    25    26    1
    40    33    32   ar
    41    33    44    1
    42    26    27    1
    43    26    28    1
    44    32    39    1
    45    49    40    1
    46    53    52    1
    47    44    45   ar
    48    44    48   ar
    49    52    51    3
    50    51    45    1
    51    45    46   ar
    52    48    47   ar
    53    40    41    1
    54    40    42    1
    55    47    46   ar
    56    47    50    1
    57    46    54    1
    58    54    55    1
    59    55    56    1
    60    55    57    1
