@<TRIPOS>MOLECULE
mol_data/noopt/geoms/mol2/13el13el13el13el.out
 58 61 0 0 0
SMALL
GASTEIGER

@<TRIPOS>ATOM
      1 C           1.1215   -0.3259    0.0002 C.ar    1  LIG1        0.0213
      2 C           0.7176    0.9721   -0.0005 C.ar    1  LIG1        0.0842
      3 C          -0.7144    0.9744    0.0003 C.ar    1  LIG1        0.1620
      4 C          -1.1226   -0.3223   -0.0003 C.ar    1  LIG1        0.1077
      5 N          -0.0018   -1.1217    0.0001 N.ar    1  LIG1       -0.3554
      6 H          -0.0034   -2.1157   -0.0003 H       1  LIG1        0.1655
      7 H           2.3167   -0.8373    0.0007 H       1  LIG1        0.0820
      8 C           1.4918    2.0164   -0.0003 C.1     1  LIG1       -0.0645
      9 C           2.2072    2.9814   -0.0001 C.1     1  LIG1       -0.1137
     10 H           2.8444    3.8409    0.0000 H       1  LIG1        0.1232
     11 O          -1.4853    2.0212    0.0010 O.3     1  LIG1       -0.4917
     12 C          -0.6829    3.2049    0.0012 C.3     1  LIG1        0.0789
     13 H          -1.3178    4.0662    0.0016 H       1  LIG1        0.0660
     14 H          -0.0650    3.2168    0.8747 H       1  LIG1        0.0660
     15 H          -0.0654    3.2174   -0.8726 H       1  LIG1        0.0660
     16 C          -2.3194   -0.8299   -0.0001 C.ar    1  LIG1        0.0862
     17 C          -3.5353   -0.2219   -0.0003 C.ar    1  LIG1        0.0937
     18 C          -4.5290   -1.2530    0.0012 C.ar    1  LIG1        0.1627
     19 C          -3.8767   -2.4457    0.0005 C.ar    1  LIG1        0.1082
     20 N          -2.5238   -2.1913    0.0002 N.ar    1  LIG1       -0.3478
     21 H          -1.8081   -2.8811   -0.0004 H       1  LIG1        0.1661
     22 C          -3.7520    1.0599   -0.0003 C.1     1  LIG1       -0.0638
     23 C          -3.9522    2.2443   -0.0003 C.1     1  LIG1       -0.1137
     24 H          -4.1306    3.2993   -0.0002 H       1  LIG1        0.1232
     25 O          -5.8180   -1.0837    0.0025 O.3     1  LIG1       -0.4917
     26 C          -6.1157    0.3150    0.0029 C.3     1  LIG1        0.0789
     27 H          -7.1766    0.4539    0.0038 H       1  LIG1        0.0660
     28 H          -5.6958    0.7688    0.8763 H       1  LIG1        0.0660
     29 H          -5.6973    0.7690   -0.8710 H       1  LIG1        0.0660
     30 C          -4.3398   -3.6604    0.0012 C.ar    1  LIG1        0.0862
     31 C          -5.6206   -4.1160    0.0013 C.ar    1  LIG1        0.0937
     32 C          -5.5655   -5.5470    0.0033 C.ar    1  LIG1        0.1627
     33 C          -4.2535   -5.9029    0.0026 C.ar    1  LIG1        0.1081
     34 N          -3.4996   -4.7510    0.0018 N.ar    1  LIG1       -0.3478
     35 H          -2.5064   -4.7127    0.0010 H       1  LIG1        0.1661
     36 C          -6.6951   -3.3843    0.0012 C.1     1  LIG1       -0.0638
     37 C          -7.6879   -2.7082    0.0012 C.1     1  LIG1       -0.1137
     38 H          -8.5723   -2.1059    0.0011 H       1  LIG1        0.1232
     39 O          -6.5806   -6.3592    0.0050 O.3     1  LIG1       -0.4917
     40 C          -7.7954   -5.6049    0.0056 C.3     1  LIG1        0.0789
     41 H          -8.6306   -6.2737    0.0068 H       1  LIG1        0.0660
     42 H          -7.8316   -4.9876    0.8789 H       1  LIG1        0.0660
     43 H          -7.8332   -4.9888   -0.8684 H       1  LIG1        0.0660
     44 C          -3.6983   -7.0784    0.0036 C.ar    1  LIG1        0.0858
     45 C          -4.2571   -8.3176    0.0039 C.ar    1  LIG1        0.0930
     46 C          -3.1870   -9.2693    0.0063 C.ar    1  LIG1        0.1533
     47 C          -2.0214   -8.5697    0.0055 C.ar    1  LIG1        0.0457
     48 N          -2.3298   -7.2280    0.0043 N.ar    1  LIG1       -0.3554
     49 H          -1.6693   -6.4852    0.0035 H       1  LIG1        0.1655
     50 H          -0.7891   -8.9837    0.0068 H       1  LIG1        0.0845
     51 C          -5.5292   -8.5856    0.0038 C.1     1  LIG1       -0.0638
     52 C          -6.7046   -8.8331    0.0036 C.1     1  LIG1       -0.1137
     53 H          -7.7516   -9.0536    0.0035 H       1  LIG1        0.1232
     54 O          -3.3045  -10.5640    0.0083 O.3     1  LIG1       -0.4924
     55 C          -4.6901  -10.9175    0.0089 C.3     1  LIG1        0.0789
     56 H          -4.7864  -11.9831    0.0104 H       1  LIG1        0.0660
     57 H          -5.1603  -10.5157    0.8822 H       1  LIG1        0.0660
     58 H          -5.1606  -10.5181   -0.8651 H       1  LIG1        0.0660
@<TRIPOS>BOND
     1    15    12    1
     2    29    26    1
     3    43    40    1
     4    58    55    1
     5     2     8    1
     6     2     1   ar
     7     2     3   ar
     8    21    20    1
     9    17    22    1
    10    17    16   ar
    11    17    18   ar
    12     4    16    1
    13     4     5   ar
    14     4     3   ar
    15     6     5    1
    16     8     9    3
    17    22    23    3
    18    23    24    1
    19     9    10    1
    20    16    20   ar
    21     5     1   ar
    22    20    19   ar
    23     1     7    1
    24     3    11    1
    25    19    18   ar
    26    19    30    1
    27    35    34    1
    28    11    12    1
    29    38    37    1
    30    37    36    3
    31    12    13    1
    32    12    14    1
    33    18    25    1
    34    30    31   ar
    35    30    34   ar
    36    36    31    1
    37    31    32   ar
    38    34    33   ar
    39    25    26    1
    40    33    32   ar
    41    33    44    1
    42    26    27    1
    43    26    28    1
    44    32    39    1
    45    49    48    1
    46    53    52    1
    47    44    45   ar
    48    44    48   ar
    49    52    51    3
    50    51    45    1
    51    45    46   ar
    52    48    47   ar
    53    39    40    1
    54    47    46   ar
    55    47    50    1
    56    40    41    1
    57    40    42    1
    58    46    54    1
    59    54    55    1
    60    55    56    1
    61    55    57    1
