@<TRIPOS>MOLECULE
mol_data/noopt/geoms/mol2/13el13hd(140)13dl(190)12ld(350).out
 52 55 0 0 0
SMALL
GASTEIGER

@<TRIPOS>ATOM
      1 C           1.1215   -0.3259    0.0002 C.ar    1  LIG1        0.0213
      2 C           0.7176    0.9721   -0.0005 C.ar    1  LIG1        0.0842
      3 C          -0.7144    0.9744    0.0003 C.ar    1  LIG1        0.1620
      4 C          -1.1226   -0.3223   -0.0003 C.ar    1  LIG1        0.1082
      5 N          -0.0018   -1.1217    0.0001 N.ar    1  LIG1       -0.3554
      6 H          -0.0034   -2.1157   -0.0003 H       1  LIG1        0.1655
      7 H           2.3167   -0.8373    0.0007 H       1  LIG1        0.0820
      8 C           1.4918    2.0164   -0.0003 C.1     1  LIG1       -0.0645
      9 C           2.2072    2.9814   -0.0001 C.1     1  LIG1       -0.1137
     10 H           2.8444    3.8409    0.0000 H       1  LIG1        0.1232
     11 O          -1.4853    2.0212    0.0010 O.3     1  LIG1       -0.4917
     12 C          -0.6829    3.2049    0.0012 C.3     1  LIG1        0.0789
     13 H          -1.3178    4.0662    0.0016 H       1  LIG1        0.0660
     14 H          -0.0650    3.2168    0.8747 H       1  LIG1        0.0660
     15 H          -0.0654    3.2174   -0.8726 H       1  LIG1        0.0660
     16 C          -2.3194   -0.8299   -0.0001 C.ar    1  LIG1        0.0892
     17 C          -2.8117   -1.9278    0.6326 C.ar    1  LIG1        0.0700
     18 C          -4.1977   -2.0340    0.2887 C.ar    1  LIG1        0.0997
     19 C          -4.4919   -0.9954   -0.5376 C.ar    1  LIG1        0.0842
     20 N          -3.3447   -0.2560   -0.7174 N.ar    1  LIG1       -0.3492
     21 H          -3.2689    0.5627   -1.2759 H       1  LIG1        0.1661
     22 N          -2.1436   -2.7318    1.4055 N.pl3   1  LIG1       -0.3553
     23 H          -2.4212   -3.6753    1.2245 H       1  LIG1        0.1424
     24 H          -1.1652   -2.6317    1.2245 H       1  LIG1        0.1424
     25 N          -5.7551   -3.7625    1.0456 N.1     1  LIG1       -0.1907
     26 C          -5.0252   -2.9524    0.6909 C.1     1  LIG1        0.1032
     27 C          -5.6107   -0.6643   -1.1108 C.ar    1  LIG1        0.0860
     28 C          -6.5897   -1.4396   -1.6480 C.ar    1  LIG1        0.1207
     29 C          -7.6037   -0.5616   -2.1495 C.ar    1  LIG1        0.1664
     30 C          -7.2006    0.7116   -1.8953 C.ar    1  LIG1        0.1298
     31 N          -5.9807    0.6532   -1.2598 N.ar    1  LIG1       -0.3465
     32 H          -5.4514    1.4379   -0.9563 H       1  LIG1        0.1662
     33 N          -6.6078   -3.8844   -1.7401 N.1     1  LIG1       -0.1907
     34 C          -6.5993   -2.7386   -1.6969 C.1     1  LIG1        0.1050
     35 O          -8.7076   -0.9133   -2.7393 O.3     1  LIG1       -0.4916
     36 C          -9.5220    0.2420   -2.9559 C.3     1  LIG1        0.0789
     37 H         -10.4304   -0.0479   -3.4415 H       1  LIG1        0.0660
     38 H          -9.7503    0.6988   -2.0156 H       1  LIG1        0.0660
     39 H          -8.9948    0.9395   -3.5726 H       1  LIG1        0.0660
     40 C          -7.7763    1.8471   -2.1583 C.ar    1  LIG1        0.1972
     41 C          -7.3454    3.1117   -2.5019 C.ar    1  LIG1        0.1846
     42 C          -8.5324    3.9272   -2.6542 C.ar    1  LIG1        0.1317
     43 C          -9.6102    3.1063   -2.3936 C.ar    1  LIG1        0.1137
     44 O          -9.1697    1.8187   -2.0854 O.2     1  LIG1       -0.4562
     45 H         -10.9017    3.2528   -2.3700 H       1  LIG1        0.1044
     46 O          -6.1214    3.5187   -2.6636 O.3     1  LIG1       -0.4901
     47 C          -5.2467    2.3890   -2.7231 C.3     1  LIG1        0.0790
     48 H          -4.2394    2.7244   -2.8564 H       1  LIG1        0.0660
     49 H          -5.3198    1.8329   -1.8118 H       1  LIG1        0.0660
     50 H          -5.5263    1.7643   -3.5455 H       1  LIG1        0.0660
     51 N          -8.5658    6.2977   -3.2585 N.1     1  LIG1       -0.1906
     52 C          -8.5501    5.1867   -2.9753 C.1     1  LIG1        0.1060
@<TRIPOS>BOND
     1    39    36    1
     2    50    47    1
     3    37    36    1
     4    51    52    3
     5    52    42    1
     6    36    35    1
     7    36    38    1
     8    48    47    1
     9    35    29    1
    10    47    46    1
    11    47    49    1
    12    46    41    1
    13    42    41   ar
    14    42    43   ar
    15    41    40   ar
    16    43    45    1
    17    43    44   ar
    18    40    44   ar
    19    40    30    1
    20    29    30   ar
    21    29    28   ar
    22    30    31   ar
    23    33    34    3
    24    34    28    1
    25    28    27   ar
    26    21    20    1
    27    31    27   ar
    28    31    32    1
    29    27    19    1
    30    15    12    1
    31    20    19   ar
    32    20    16   ar
    33    19    18   ar
    34     2     8    1
    35     2     1   ar
    36     2     3   ar
    37     4    16    1
    38     4     5   ar
    39     4     3   ar
    40     6     5    1
    41     8     9    3
    42     9    10    1
    43    16    17   ar
    44     5     1   ar
    45     1     7    1
    46     3    11    1
    47    11    12    1
    48    12    13    1
    49    12    14    1
    50    18    17   ar
    51    18    26    1
    52    17    22    1
    53    26    25    3
    54    24    22    1
    55    23    22    1
