@<TRIPOS>MOLECULE
mol_data/noopt/geoms/mol2/13fa13fa13fa.out
 29 31 0 0 0
SMALL
GASTEIGER

@<TRIPOS>ATOM
      1 C           1.1215   -0.3259    0.0002 C.ar    1  LIG1        0.0442
      2 C           0.7176    0.9721   -0.0005 C.ar    1  LIG1        0.1347
      3 C          -0.7144    0.9744    0.0003 C.ar    1  LIG1        0.0067
      4 C          -1.1226   -0.3223   -0.0003 C.ar    1  LIG1        0.0701
      5 N          -0.0018   -1.1217    0.0001 N.ar    1  LIG1       -0.3564
      6 H          -0.0034   -2.1157   -0.0003 H       1  LIG1        0.1655
      7 H           2.3167   -0.8373    0.0007 H       1  LIG1        0.0844
      8 O           1.4918    2.0165   -0.0003 O.3     1  LIG1       -0.5053
      9 H           0.9557    2.8128   -0.0003 H       1  LIG1        0.2922
     10 H          -1.4853    2.0212    0.0010 H       1  LIG1        0.0676
     11 C          -2.3194   -0.8299   -0.0001 C.ar    1  LIG1        0.1054
     12 C          -3.5353   -0.2219   -0.0003 C.ar    1  LIG1        0.1441
     13 C          -4.5290   -1.2530    0.0012 C.ar    1  LIG1        0.0074
     14 C          -3.8767   -2.4457    0.0005 C.ar    1  LIG1        0.0705
     15 N          -2.5238   -2.1913    0.0002 N.ar    1  LIG1       -0.3488
     16 H          -1.8081   -2.8811   -0.0004 H       1  LIG1        0.1661
     17 O          -3.7520    1.0599   -0.0003 O.3     1  LIG1       -0.5046
     18 H          -4.6977    1.2250   -0.0003 H       1  LIG1        0.2922
     19 H          -5.8179   -1.0837    0.0025 H       1  LIG1        0.0676
     20 C          -4.3398   -3.6604    0.0012 C.ar    1  LIG1        0.1050
     21 C          -5.6206   -4.1160    0.0013 C.ar    1  LIG1        0.1434
     22 C          -5.5655   -5.5470    0.0033 C.ar    1  LIG1       -0.0021
     23 C          -4.2535   -5.9029    0.0026 C.ar    1  LIG1        0.0058
     24 N          -3.4996   -4.7510    0.0018 N.ar    1  LIG1       -0.3566
     25 H          -2.5064   -4.7127    0.0010 H       1  LIG1        0.1655
     26 H          -3.6983   -7.0784    0.0036 H       1  LIG1        0.0808
     27 O          -6.6951   -3.3843    0.0012 O.3     1  LIG1       -0.5046
     28 H          -7.4693   -3.9519    0.0012 H       1  LIG1        0.2922
     29 H          -6.5805   -6.3592    0.0050 H       1  LIG1        0.0669
@<TRIPOS>BOND
     1     2     8    1
     2     2     1   ar
     3     2     3   ar
     4    16    15    1
     5    12    17    1
     6    12    11   ar
     7    12    13   ar
     8     4    11    1
     9     4     5   ar
    10     4     3   ar
    11     6     5    1
    12     8     9    1
    13    17    18    1
    14    11    15   ar
    15     5     1   ar
    16    15    14   ar
    17     1     7    1
    18     3    10    1
    19    14    13   ar
    20    14    20    1
    21    25    24    1
    22    13    19    1
    23    20    21   ar
    24    20    24   ar
    25    28    27    1
    26    27    21    1
    27    21    22   ar
    28    24    23   ar
    29    23    22   ar
    30    23    26    1
    31    22    29    1
