@<TRIPOS>MOLECULE
mol_data/noopt/geoms/mol2/13fa13fa4lf13hi-.out
 48 50 0 0 0
SMALL
GASTEIGER

@<TRIPOS>ATOM
      1 C           1.1215   -0.3259    0.0002 C.ar    1  LIG1        0.0442
      2 C           0.7176    0.9721   -0.0005 C.ar    1  LIG1        0.1347
      3 C          -0.7144    0.9744    0.0003 C.ar    1  LIG1        0.0067
      4 C          -1.1226   -0.3223   -0.0003 C.ar    1  LIG1        0.0702
      5 N          -0.0018   -1.1217    0.0001 N.ar    1  LIG1       -0.3564
      6 H          -0.0034   -2.1157   -0.0003 H       1  LIG1        0.1655
      7 H           2.3167   -0.8373    0.0007 H       1  LIG1        0.0844
      8 O           1.4918    2.0165   -0.0003 O.3     1  LIG1       -0.5053
      9 H           0.9557    2.8128   -0.0003 H       1  LIG1        0.2922
     10 H          -1.4853    2.0212    0.0010 H       1  LIG1        0.0676
     11 CA         -2.3194   -0.8299   -0.0001 C.2     1  LIG1        0.1089
     12 C          -3.5352   -0.2220    0.0163 C.2     1  LIG1        0.1863
     13 C          -4.5290   -1.2531    0.0088 C.3     1  LIG1        0.0175
     14 C          -3.8768   -2.4456   -0.0136 C.2     1  LIG1        0.0317
     15 N          -2.5238   -2.1911   -0.0187 N.2     1  LIG1       -0.3530
     16 H          -1.8082   -2.8808   -0.0339 H       1  LIG1        0.1658
     17 O          -3.7519    1.0597    0.0366 O.2     1  LIG1       -0.5019
     18 H          -4.6976    1.2247    0.0416 H       1  LIG1        0.2924
     19 H          -5.8179   -1.0839    0.0207 H       1  LIG1        0.0376
     20 C          -5.7323   -3.8810   -0.0350 C.ar    1  LIG1        0.1297
     21 C          -6.1836   -5.2150   -0.0490 C.ar    1  LIG1       -0.0066
     22 C          -4.3399   -3.6602   -0.0280 C.ar    1  LIG1        0.0396
     23 C          -5.2897   -6.2834   -0.0564 C.ar    1  LIG1        0.0450
     24 H          -7.2541   -5.4079   -0.0544 H       1  LIG1        0.0662
     25 C          -3.4471   -4.7265   -0.0353 C.ar    1  LIG1       -0.0072
     26 C          -3.9149   -6.0446   -0.0497 C.ar    1  LIG1        0.1268
     27 H          -2.3779   -4.5302   -0.0296 H       1  LIG1        0.0662
     28 O          -6.6146   -2.9262   -0.0289 O.3     1  LIG1       -0.4944
     29 C          -5.9485   -1.6608   -0.0268 C.3     1  LIG1        0.0788
     30 H          -6.6750   -0.8753   -0.0219 H       1  LIG1        0.0660
     31 H          -5.3333   -1.5830    0.8453 H       1  LIG1        0.0660
     32 H          -5.3387   -1.5772   -0.9020 H       1  LIG1        0.0660
     33 O          -3.0756   -7.0373   -0.0564 O.3     1  LIG1       -0.5061
     34 H          -2.1776   -6.6978   -0.0580 H       1  LIG1        0.2922
     35 C          -5.7411   -7.5025   -0.0695 C.ar    1  LIG1        0.0713
     36 C          -7.0173   -7.9705   -0.0621 C.ar    1  LIG1        0.0532
     37 C          -6.9484   -9.4007   -0.0830 C.ar    1  LIG1       -0.0119
     38 C          -5.6331   -9.7437   -0.1041 C.ar    1  LIG1        0.0069
     39 N          -4.8905   -8.5846   -0.0954 N.ar    1  LIG1       -0.3588
     40 H          -3.8977   -8.5366   -0.1067 H       1  LIG1        0.1654
     41 H          -5.0667  -10.9136   -0.1276 H       1  LIG1        0.0810
     42 N          -8.0988   -7.2494   -0.0387 N.pl3   1  LIG1       -0.3561
     43 H          -7.9301   -6.3805   -0.5040 H       1  LIG1        0.1424
     44 H          -8.8361   -7.7391   -0.5040 H       1  LIG1        0.1424
     45 C          -7.9558  -10.2230   -0.0826 C.3     1  LIG1       -0.0365
     46 H          -7.6795  -11.1252    0.4220 H       1  LIG1        0.0279
     47 H          -8.2323  -10.4488   -1.0913 H       1  LIG1        0.0279
     48 H          -8.7844   -9.7715    0.4219 H       1  LIG1        0.0279
@<TRIPOS>BOND
     1    47    45    1
     2    32    29    1
     3    44    42    1
     4    43    42    1
     5    41    38    1
     6    40    39    1
     7    38    39   ar
     8    38    37   ar
     9    39    35   ar
    10    37    45    1
    11    37    36   ar
    12    45    48    1
    13    45    46    1
    14    35    36   ar
    15    35    23    1
    16    36    42    1
    17    34    33    1
    18    23    26   ar
    19    23    21   ar
    20    33    26    1
    21    24    21    1
    22    26    25   ar
    23    21    20   ar
    24    25    27    1
    25    25    22   ar
    26    20    28    1
    27    20    22   ar
    28    16    15    1
    29    28    29    1
    30    22    14    1
    31    29    30    1
    32    29    31    1
    33    15    14    2
    34    15    11    1
    35    14    13    1
    36     2     8    1
    37     2     1   ar
    38     2     3   ar
    39     6     5    1
    40     4    11    1
    41     4     5   ar
    42     4     3   ar
    43     8     9    1
    44    11    12    2
    45     5     1   ar
    46     1     7    1
    47     3    10    1
    48    13    19    1
    49    12    17    1
    50    17    18    1
