@<TRIPOS>MOLECULE
mol_data/noopt/geoms/mol2/13fa13fa-13fa.out
 29 31 0 0 0
SMALL
GASTEIGER

@<TRIPOS>ATOM
      1 C           1.1215   -0.3259    0.0002 C.ar    1  LIG1        0.0442
      2 C           0.7176    0.9721   -0.0005 C.ar    1  LIG1        0.1347
      3 C          -0.7144    0.9744    0.0003 C.ar    1  LIG1        0.0067
      4 C          -1.1226   -0.3223   -0.0003 C.ar    1  LIG1        0.0701
      5 N          -0.0018   -1.1217    0.0001 N.ar    1  LIG1       -0.3564
      6 H          -0.0034   -2.1157   -0.0003 H       1  LIG1        0.1655
      7 H           2.3167   -0.8373    0.0007 H       1  LIG1        0.0844
      8 O           1.4918    2.0165   -0.0003 O.3     1  LIG1       -0.5053
      9 H           0.9557    2.8128   -0.0003 H       1  LIG1        0.2922
     10 H          -1.4853    2.0212    0.0010 H       1  LIG1        0.0676
     11 C          -2.3194   -0.8299   -0.0001 C.ar    1  LIG1        0.1054
     12 C          -2.7274   -2.1266   -0.0005 C.ar    1  LIG1        0.1441
     13 C          -4.1594   -2.1244    0.0011 C.ar    1  LIG1        0.0074
     14 C          -4.5635   -0.8264    0.0006 C.ar    1  LIG1        0.0705
     15 N          -3.4402   -0.0305    0.0003 N.ar    1  LIG1       -0.3488
     16 H          -3.4386    0.9635   -0.0001 H       1  LIG1        0.1661
     17 O          -1.9565   -3.1734   -0.0006 O.3     1  LIG1       -0.5046
     18 H          -1.0378   -2.8948   -0.0006 H       1  LIG1        0.2922
     19 H          -4.9336   -3.1687    0.0023 H       1  LIG1        0.0676
     20 C          -5.7587   -0.3150    0.0014 C.ar    1  LIG1        0.1050
     21 C          -6.1626    0.9830    0.0016 C.ar    1  LIG1        0.1434
     22 C          -7.5946    0.9853    0.0038 C.ar    1  LIG1       -0.0021
     23 C          -8.0028   -0.3114    0.0030 C.ar    1  LIG1        0.0058
     24 N          -6.8820   -1.1108    0.0021 N.ar    1  LIG1       -0.3566
     25 H          -6.8836   -2.1048    0.0013 H       1  LIG1        0.1655
     26 H          -9.1996   -0.8190    0.0041 H       1  LIG1        0.0808
     27 O          -5.3884    2.0274    0.0015 O.3     1  LIG1       -0.5046
     28 H          -5.9245    2.8237    0.0015 H       1  LIG1        0.2922
     29 H          -8.3655    2.0321    0.0056 H       1  LIG1        0.0669
@<TRIPOS>BOND
     1    18    17    1
     2    17    12    1
     3     2     8    1
     4     2     1   ar
     5     2     3   ar
     6    12    11   ar
     7    12    13   ar
     8     4    11    1
     9     4     5   ar
    10     4     3   ar
    11     6     5    1
    12     8     9    1
    13    16    15    1
    14    11    15   ar
    15     5     1   ar
    16     1     7    1
    17     3    10    1
    18    15    14   ar
    19    14    13   ar
    20    14    20    1
    21    13    19    1
    22    25    24    1
    23    20    21   ar
    24    20    24   ar
    25    28    27    1
    26    27    21    1
    27    21    22   ar
    28    24    23   ar
    29    23    22   ar
    30    23    26    1
    31    22    29    1
