@<TRIPOS>MOLECULE
mol_data/noopt/geoms/mol2/13fa12ih-12id-13ih-.out
 47 50 0 0 0
SMALL
GASTEIGER

@<TRIPOS>ATOM
      1 C           1.1215   -0.3259    0.0002 C.ar    1  LIG1        0.0442
      2 C           0.7176    0.9721   -0.0005 C.ar    1  LIG1        0.1348
      3 C          -0.7144    0.9744    0.0003 C.ar    1  LIG1        0.0082
      4 C          -1.1226   -0.3223   -0.0003 C.ar    1  LIG1        0.0860
      5 N          -0.0018   -1.1217    0.0001 N.ar    1  LIG1       -0.3552
      6 H          -0.0034   -2.1157   -0.0003 H       1  LIG1        0.1655
      7 H           2.3167   -0.8373    0.0007 H       1  LIG1        0.0844
      8 O           1.4918    2.0165   -0.0003 O.3     1  LIG1       -0.5053
      9 H           0.9557    2.8128   -0.0003 H       1  LIG1        0.2922
     10 H          -1.4853    2.0212    0.0010 H       1  LIG1        0.0676
     11 C          -2.3194   -0.8299   -0.0001 C.ar    1  LIG1        0.1567
     12 C          -3.6025   -0.3232    0.0001 C.ar    1  LIG1        0.0182
     13 C          -4.4979   -1.4613    0.0002 C.ar    1  LIG1        0.0777
     14 C          -3.7022   -2.5884    0.0001 C.ar    1  LIG1        0.1917
     15 O          -2.3550   -2.2250   -0.0002 O.2     1  LIG1       -0.4481
     16 C          -3.9650    0.9255    0.0001 C.3     1  LIG1       -0.0343
     17 H          -4.9034    1.0245    0.5046 H       1  LIG1        0.0279
     18 H          -4.0645    1.2681   -1.0087 H       1  LIG1        0.0279
     19 H          -3.2254    1.5116    0.5045 H       1  LIG1        0.0279
     20 N          -5.7966   -1.4035    0.0004 N.pl3   1  LIG1       -0.3547
     21 H          -6.0934   -0.5730   -0.4709 H       1  LIG1        0.1424
     22 H          -6.1659   -2.2043   -0.4710 H       1  LIG1        0.1424
     23 C          -3.9132   -3.8712    0.0002 C.ar    1  LIG1        0.1767
     24 C          -5.0273   -4.6845    0.0151 C.ar    1  LIG1        0.0165
     25 C          -4.5445   -6.0497    0.0045 C.ar    1  LIG1        0.1025
     26 C          -3.1666   -5.9799   -0.0162 C.ar    1  LIG1        0.1697
     27 O          -2.7534   -4.6473   -0.0194 O.2     1  LIG1       -0.4486
     28 C          -6.2762   -4.3232    0.0349 C.3     1  LIG1       -0.0348
     29 H          -6.8542   -5.0654    0.5447 H       1  LIG1        0.0279
     30 H          -6.6336   -4.2198   -0.9684 H       1  LIG1        0.0279
     31 H          -6.3686   -3.3869    0.5446 H       1  LIG1        0.0279
     32 N          -5.9431   -8.0570    0.0208 N.1     1  LIG1       -0.1907
     33 C          -5.2876   -7.1162    0.0132 C.1     1  LIG1        0.1033
     34 C          -2.1956   -6.8441   -0.0330 C.ar    1  LIG1        0.0882
     35 C          -2.2246   -8.2032   -0.0447 C.ar    1  LIG1       -0.0015
     36 C          -0.8674   -8.6598   -0.0603 C.ar    1  LIG1        0.0457
     37 C          -0.0688   -7.5597   -0.0593 C.ar    1  LIG1        0.0233
     38 N          -0.8779   -6.4459   -0.0421 N.ar    1  LIG1       -0.3564
     39 H          -0.5609   -5.5039   -0.0376 H       1  LIG1        0.1655
     40 H           1.2272   -7.4581   -0.0703 H       1  LIG1        0.0826
     41 C          -3.2905   -8.9480   -0.0407 C.3     1  LIG1       -0.0359
     42 H          -3.0811   -9.8675    0.4648 H       1  LIG1        0.0279
     43 H          -3.5853   -9.1541   -1.0485 H       1  LIG1        0.0279
     44 H          -4.0820   -8.4352    0.4647 H       1  LIG1        0.0279
     45 N          -0.4687   -9.8970   -0.0736 N.pl3   1  LIG1       -0.3566
     46 H          -1.1450  -10.4601   -0.5484 H       1  LIG1        0.1424
     47 H           0.4092   -9.9592   -0.5485 H       1  LIG1        0.1424
@<TRIPOS>BOND
     1    43    41    1
     2    18    16    1
     3    30    28    1
     4    47    45    1
     5    46    45    1
     6    22    20    1
     7    21    20    1
     8    45    36    1
     9    40    37    1
    10    36    37   ar
    11    36    35   ar
    12    37    38   ar
    13    35    41    1
    14    35    34   ar
    15    38    39    1
    16    38    34   ar
    17    41    44    1
    18    41    42    1
    19    34    26    1
    20    27    26   ar
    21    27    23   ar
    22    26    25   ar
    23     2     8    1
    24     2     1   ar
    25     2     3   ar
    26     8     9    1
    27     6     5    1
    28     4    11    1
    29     4     5   ar
    30     4     3   ar
    31    15    11   ar
    32    15    14   ar
    33    11    12   ar
    34    12    16    1
    35    12    13   ar
    36     5     1   ar
    37    14    23    1
    38    14    13   ar
    39    16    19    1
    40    16    17    1
    41     1     7    1
    42    23    24   ar
    43    13    20    1
    44     3    10    1
    45    25    33    1
    46    25    24   ar
    47    33    32    3
    48    24    28    1
    49    28    31    1
    50    28    29    1
