@<TRIPOS>MOLECULE
mol_data/noopt/geoms/mol2/13fa4la-6fe-4aa-.out
 47 49 0 0 0
SMALL
GASTEIGER

@<TRIPOS>ATOM
      1 C           1.1215   -0.3259    0.0002 C.2     1  LIG1        0.0476
      2 C           0.7176    0.9721   -0.0005 C.2     1  LIG1        0.1760
      3 C          -0.7144    0.9744    0.0003 C.3     1  LIG1        0.0175
      4 C          -1.1226   -0.3223   -0.0003 C.2     1  LIG1        0.0312
      5 N          -0.0018   -1.1217    0.0001 N.2     1  LIG1       -0.3605
      6 H          -0.0034   -2.1157   -0.0003 H       1  LIG1        0.1652
      7 H           2.3167   -0.8373    0.0007 H       1  LIG1        0.0845
      8 O           1.4918    2.0165   -0.0003 O.2     1  LIG1       -0.5023
      9 H           0.9557    2.8128   -0.0003 H       1  LIG1        0.2923
     10 H          -1.4853    2.0212    0.0010 H       1  LIG1        0.0376
     11 C          -3.4433    0.0211    0.0221 C.ar    1  LIG1        0.1294
     12 C          -4.7179   -0.5778    0.0229 C.ar    1  LIG1       -0.0114
     13 C          -2.3194   -0.8299   -0.0001 C.ar    1  LIG1        0.0361
     14 C          -4.8691   -1.9625    0.0019 C.ar    1  LIG1       -0.0093
     15 H          -5.5986    0.0603    0.0400 H       1  LIG1        0.0660
     16 C          -2.4698   -2.2123   -0.0211 C.ar    1  LIG1       -0.0489
     17 C          -3.7445   -2.7882   -0.0203 C.ar    1  LIG1       -0.0530
     18 H          -1.5876   -2.8471   -0.0379 H       1  LIG1        0.0625
     19 O          -3.3660    1.3186    0.0420 O.3     1  LIG1       -0.4944
     20 C          -1.9920    1.7148    0.0492 C.3     1  LIG1        0.0788
     21 H          -1.9288    2.7829    0.0655 H       1  LIG1        0.0660
     22 H          -1.5102    1.3158    0.9174 H       1  LIG1        0.0660
     23 H          -1.5087    1.3423   -0.8297 H       1  LIG1        0.0660
     24 H          -3.8789   -4.0811   -0.0398 H       1  LIG1        0.0624
     25 C          -6.2282   -3.8785   -0.0171 C.ar    1  LIG1        0.2208
     26 C          -6.0610   -2.4817    0.0032 C.ar    1  LIG1        0.0448
     27 C          -7.1996   -1.6742    0.0249 C.ar    1  LIG1       -0.0315
     28 C          -8.4556   -2.2834    0.0254 C.ar    1  LIG1        0.0514
     29 C          -8.5203   -3.6887    0.0039 C.ar    1  LIG1        0.0901
     30 N          -7.4321   -4.4829   -0.0170 N.ar    1  LIG1       -0.2113
     31 H          -7.1085   -0.5788    0.0402 H       1  LIG1        0.0638
     32 O          -5.1985   -4.6719   -0.0376 O.3     1  LIG1       -0.4920
     33 H          -4.3924   -4.1506   -0.0427 H       1  LIG1        0.2937
     34 C          -9.5458   -1.5756    0.0450 C.1     1  LIG1       -0.0675
     35 C         -10.5532   -0.9216    0.0631 C.1     1  LIG1       -0.1138
     36 H         -11.4506   -0.3390    0.0792 H       1  LIG1        0.1232
     37 C         -10.8625   -3.5561    0.0255 C.ar    1  LIG1       -0.0525
     38 C         -12.0779   -4.2675    0.0257 C.ar    1  LIG1       -0.0611
     39 C          -9.6663   -4.3022    0.0036 C.ar    1  LIG1        0.0017
     40 C         -12.1035   -5.6602    0.0044 C.ar    1  LIG1       -0.0617
     41 H         -13.0126   -3.7115    0.0426 H       1  LIG1        0.0618
     42 C          -9.6914   -5.6925   -0.0176 C.ar    1  LIG1       -0.0525
     43 C         -10.9090   -6.3811   -0.0175 C.ar    1  LIG1       -0.0611
     44 H          -8.7555   -6.2452   -0.0342 H       1  LIG1        0.0624
     45 H         -13.2437   -6.2848    0.0052 H       1  LIG1        0.0618
     46 H         -10.9025   -2.2569    0.0457 H       1  LIG1        0.0624
     47 H         -10.9262   -7.6808   -0.0372 H       1  LIG1        0.0618
@<TRIPOS>BOND
     1    23    20    1
     2    33    32    1
     3    24    17    1
     4    18    16    1
     5    32    25    1
     6    47    43    1
     7    44    42    1
     8    16    17   ar
     9    16    13   ar
    10    17    14   ar
    11    42    43   ar
    12    42    39   ar
    13    43    40   ar
    14    25    30   ar
    15    25    26   ar
    16    30    29   ar
    17     2     8    1
    18     2     1    2
    19     8     9    1
    20     4    13    1
    21     4     5    2
    22     4     3    1
    23     6     5    1
    24    13    11   ar
    25     5     1    1
    26     1     7    1
    27     3    10    1
    28    14    26    1
    29    14    12   ar
    30    26    27   ar
    31    39    29    1
    32    39    37   ar
    33    29    28   ar
    34    40    45    1
    35    40    38   ar
    36    11    12   ar
    37    11    19    1
    38    12    15    1
    39    27    28   ar
    40    27    31    1
    41    28    34    1
    42    37    38   ar
    43    37    46    1
    44    38    41    1
    45    19    20    1
    46    34    35    3
    47    20    21    1
    48    20    22    1
    49    35    36    1
