@<TRIPOS>MOLECULE
mol_data/noopt/geoms/mol2/13fa13fa13fa-13fa-.out
 38 41 0 0 0
SMALL
GASTEIGER

@<TRIPOS>ATOM
      1 C           1.1215   -0.3259    0.0002 C.ar    1  LIG1        0.0442
      2 C           0.7176    0.9721   -0.0005 C.ar    1  LIG1        0.1347
      3 C          -0.7144    0.9744    0.0003 C.ar    1  LIG1        0.0067
      4 C          -1.1226   -0.3223   -0.0003 C.ar    1  LIG1        0.0701
      5 N          -0.0018   -1.1217    0.0001 N.ar    1  LIG1       -0.3564
      6 H          -0.0034   -2.1157   -0.0003 H       1  LIG1        0.1655
      7 H           2.3167   -0.8373    0.0007 H       1  LIG1        0.0844
      8 O           1.4918    2.0165   -0.0003 O.3     1  LIG1       -0.5053
      9 H           0.9557    2.8128   -0.0003 H       1  LIG1        0.2922
     10 H          -1.4853    2.0212    0.0010 H       1  LIG1        0.0676
     11 C          -2.3194   -0.8299   -0.0001 C.ar    1  LIG1        0.1054
     12 C          -3.5353   -0.2219   -0.0003 C.ar    1  LIG1        0.1441
     13 C          -4.5290   -1.2530    0.0012 C.ar    1  LIG1        0.0074
     14 C          -3.8767   -2.4457    0.0005 C.ar    1  LIG1        0.0705
     15 N          -2.5238   -2.1913    0.0002 N.ar    1  LIG1       -0.3488
     16 H          -1.8081   -2.8811   -0.0004 H       1  LIG1        0.1661
     17 O          -3.7520    1.0599   -0.0003 O.3     1  LIG1       -0.5046
     18 H          -4.6977    1.2250   -0.0003 H       1  LIG1        0.2922
     19 H          -5.8179   -1.0837    0.0025 H       1  LIG1        0.0676
     20 C          -4.3398   -3.6604    0.0012 C.ar    1  LIG1        0.1055
     21 C          -3.6874   -4.8530    0.0012 C.ar    1  LIG1        0.1441
     22 C          -4.6811   -5.8841    0.0032 C.ar    1  LIG1        0.0074
     23 C          -5.8970   -5.2763    0.0027 C.ar    1  LIG1        0.0705
     24 N          -5.6927   -3.9149    0.0019 N.ar    1  LIG1       -0.3488
     25 H          -6.4084   -3.2251    0.0013 H       1  LIG1        0.1661
     26 O          -2.3984   -5.0223    0.0009 O.3     1  LIG1       -0.5046
     27 H          -1.9629   -4.1668    0.0009 H       1  LIG1        0.2922
     28 H          -4.4643   -7.1660    0.0049 H       1  LIG1        0.0676
     29 C          -7.0939   -5.7839    0.0038 C.ar    1  LIG1        0.1050
     30 C          -7.5019   -7.0806    0.0041 C.ar    1  LIG1        0.1434
     31 C          -8.9339   -7.0784    0.0067 C.ar    1  LIG1       -0.0021
     32 C          -9.3380   -5.7804    0.0061 C.ar    1  LIG1        0.0058
     33 N          -8.2146   -4.9846    0.0048 N.ar    1  LIG1       -0.3566
     34 H          -8.2131   -3.9906    0.0040 H       1  LIG1        0.1655
     35 H         -10.5331   -5.2690    0.0075 H       1  LIG1        0.0808
     36 O          -6.7309   -8.1274    0.0038 O.3     1  LIG1       -0.5046
     37 H          -5.8123   -7.8488    0.0037 H       1  LIG1        0.2922
     38 H          -9.7081   -8.1227    0.0087 H       1  LIG1        0.0669
@<TRIPOS>BOND
     1     2     8    1
     2     2     1   ar
     3     2     3   ar
     4    16    15    1
     5    12    17    1
     6    12    11   ar
     7    12    13   ar
     8     4    11    1
     9     4     5   ar
    10     4     3   ar
    11     6     5    1
    12     8     9    1
    13    17    18    1
    14    11    15   ar
    15     5     1   ar
    16    15    14   ar
    17     1     7    1
    18     3    10    1
    19    14    13   ar
    20    14    20    1
    21    27    26    1
    22    26    21    1
    23    21    20   ar
    24    21    22   ar
    25    13    19    1
    26    20    24   ar
    27    25    24    1
    28    24    23   ar
    29    23    22   ar
    30    23    29    1
    31    22    28    1
    32    37    36    1
    33    36    30    1
    34    29    30   ar
    35    29    33   ar
    36    34    33    1
    37    30    31   ar
    38    33    32   ar
    39    32    31   ar
    40    32    35    1
    41    31    38    1
