@<TRIPOS>MOLECULE
mol_data/noopt/geoms/mol2/13fa12fa6hi-12ae-13hi-4fh12hl-4fe-.out
 94 101 0 0 0
SMALL
GASTEIGER

@<TRIPOS>ATOM
      1 C           1.1215   -0.3259    0.0002 C.ar    1  LIG1        0.0442
      2 C           0.7176    0.9721   -0.0005 C.ar    1  LIG1        0.1348
      3 C          -0.7144    0.9744    0.0003 C.ar    1  LIG1        0.0083
      4 C          -1.1226   -0.3223   -0.0003 C.ar    1  LIG1        0.0893
      5 N          -0.0018   -1.1217    0.0001 N.ar    1  LIG1       -0.3551
      6 H          -0.0034   -2.1157   -0.0003 H       1  LIG1        0.1655
      7 H           2.3167   -0.8373    0.0007 H       1  LIG1        0.0844
      8 O           1.4918    2.0165   -0.0003 O.3     1  LIG1       -0.5053
      9 H           0.9557    2.8128   -0.0003 H       1  LIG1        0.2922
     10 H          -1.4853    2.0212    0.0010 H       1  LIG1        0.0676
     11 C          -2.3194   -0.8299   -0.0001 C.ar    1  LIG1        0.1930
     12 C          -3.6024   -0.3233    0.0148 C.ar    1  LIG1        0.1647
     13 C          -4.4979   -1.4613    0.0044 C.ar    1  LIG1        0.0266
     14 C          -3.7022   -2.5883   -0.0164 C.ar    1  LIG1        0.1427
     15 O          -2.3551   -2.2249   -0.0196 O.2     1  LIG1       -0.4495
     16 O          -3.9648    0.9250    0.0347 O.3     1  LIG1       -0.5032
     17 H          -4.9232    0.9804    0.0395 H       1  LIG1        0.2923
     18 H          -5.7965   -1.4036    0.0131 H       1  LIG1        0.0692
     19 C          -2.8310   -4.7694   -0.0632 C.ar    1  LIG1        0.1277
     20 C          -3.9133   -3.8710   -0.0331 C.ar    1  LIG1        0.0571
     21 C          -5.2096   -4.3889   -0.0213 C.ar    1  LIG1       -0.0427
     22 C          -5.3799   -5.7743   -0.0401 C.ar    1  LIG1       -0.0207
     23 C          -4.2349   -6.5913   -0.0702 C.ar    1  LIG1        0.1110
     24 N          -2.9771   -6.1085   -0.0816 N.ar    1  LIG1       -0.2284
     25 H          -6.0800   -3.7179    0.0011 H       1  LIG1        0.0629
     26 N          -1.6057   -4.3353   -0.0751 N.pl3   1  LIG1       -0.3426
     27 H          -1.0229   -4.9950   -0.5495 H       1  LIG1        0.1437
     28 H          -1.5682   -3.4558   -0.5495 H       1  LIG1        0.1437
     29 C          -6.5666   -6.3059   -0.0304 C.3     1  LIG1       -0.0376
     30 H          -6.5315   -7.2475    0.4766 H       1  LIG1        0.0278
     31 H          -6.8989   -6.4548   -1.0366 H       1  LIG1        0.0278
     32 H          -7.2458   -5.6528    0.4766 H       1  LIG1        0.0278
     33 C          -4.3419   -7.8867   -0.0884 C.ar    1  LIG1        0.1554
     34 C          -5.3870   -8.7872   -0.0874 C.ar    1  LIG1        0.0018
     35 C          -4.7958  -10.1088   -0.1159 C.ar    1  LIG1        0.0725
     36 C          -3.4281   -9.9281   -0.1325 C.ar    1  LIG1        0.1689
     37 O          -3.1235   -8.5666   -0.1161 O.2     1  LIG1       -0.4505
     38 H          -6.6607   -8.5279   -0.0654 H       1  LIG1        0.0668
     39 C          -5.4507  -11.2317   -0.1238 C.1     1  LIG1       -0.0658
     40 C          -6.0559  -12.2693   -0.1312 C.1     1  LIG1       -0.1138
     41 H          -6.5950  -13.1936   -0.1377 H       1  LIG1        0.1232
     42 C          -2.3906  -10.7111   -0.1591 C.ar    1  LIG1        0.1049
     43 C          -2.3099  -12.0679   -0.1775 C.ar    1  LIG1        0.0568
     44 C          -0.9205  -12.4134   -0.2031 C.ar    1  LIG1       -0.0037
     45 C          -0.2132  -11.2525   -0.2010 C.ar    1  LIG1        0.0553
     46 N          -1.1094  -10.2078   -0.1736 N.ar    1  LIG1       -0.3499
     47 H          -0.8694   -9.2432   -0.1662 H       1  LIG1        0.1661
     48 N          -3.3119  -12.8962   -0.1712 N.pl3   1  LIG1       -0.3560
     49 H          -4.0908  -12.4806   -0.6410 H       1  LIG1        0.1424
     50 H          -3.0504  -13.7393   -0.6411 H       1  LIG1        0.1424
     51 C          -0.4231  -13.6147   -0.2248 C.3     1  LIG1       -0.0359
     52 H           0.5237  -13.6178    0.2735 H       1  LIG1        0.0279
     53 H          -0.2931  -13.9286   -1.2395 H       1  LIG1        0.0279
     54 H          -1.0908  -14.2861    0.2735 H       1  LIG1        0.0279
     55 C           1.9574  -12.1423   -0.2277 C.ar    1  LIG1        0.1267
     56 C           3.3383  -11.8665   -0.2455 C.ar    1  LIG1       -0.0070
     57 C           1.0702  -11.0466   -0.2188 C.ar    1  LIG1        0.0418
     58 C           3.8170  -10.5583   -0.2547 C.ar    1  LIG1        0.0433
     59 H           4.0404  -12.6973   -0.2524 H       1  LIG1        0.0662
     60 C           1.5476   -9.7404   -0.2280 C.ar    1  LIG1       -0.0277
     61 C           2.9230   -9.4868   -0.2461 C.ar    1  LIG1        0.0362
     62 H           0.8433   -8.9124   -0.2208 H       1  LIG1        0.0644
     63 O           1.5713  -13.3837   -0.2201 O.3     1  LIG1       -0.5061
     64 H           2.3403  -13.9584   -0.2182 H       1  LIG1        0.2922
     65 N           3.3634   -8.2637   -0.2545 N.pl3   1  LIG1       -0.3574
     66 H           4.2435   -8.2296   -0.7280 H       1  LIG1        0.1423
     67 H           2.7071   -7.6764   -0.7280 H       1  LIG1        0.1423
     68 C           5.0984  -10.3400   -0.2713 C.ar    1  LIG1        0.1618
     69 C           6.2304  -11.1284   -0.2690 C.ar    1  LIG1        0.1140
     70 C           7.3636  -10.2272   -0.2958 C.ar    1  LIG1        0.1871
     71 C           6.8486   -8.9473   -0.3128 C.ar    1  LIG1        0.1825
     72 O           5.4540   -8.9907   -0.2983 O.2     1  LIG1       -0.4489
     73 N           6.2958  -12.4266   -0.2472 N.pl3   1  LIG1       -0.3522
     74 H           5.4975  -12.8084   -0.7130 H       1  LIG1        0.1425
     75 H           7.1284  -12.7262   -0.7130 H       1  LIG1        0.1425
     76 O           8.6141  -10.5825   -0.3022 O.3     1  LIG1       -0.4896
     77 C           8.7049  -12.0096   -0.3046 C.3     1  LIG1        0.0791
     78 H           9.7343  -12.3015   -0.3100 H       1  LIG1        0.0660
     79 H           8.2284  -12.3988    0.5709 H       1  LIG1        0.0660
     80 H           8.2199  -12.3964   -1.1764 H       1  LIG1        0.0660
     81 C           8.7477   -7.5699   -0.3302 C.ar    1  LIG1        0.1277
     82 C           9.2400   -6.2508   -0.3574 C.ar    1  LIG1       -0.0183
     83 C           7.3491   -7.7478   -0.3385 C.ar    1  LIG1        0.0635
     84 C           8.3796   -5.1557   -0.3919 C.ar    1  LIG1       -0.0428
     85 H          10.3158   -6.0908   -0.3514 H       1  LIG1        0.0655
     86 C           6.4897   -6.6550   -0.3729 C.ar    1  LIG1       -0.0320
     87 C           6.9981   -5.3521   -0.4000 C.ar    1  LIG1        0.0256
     88 H           5.4150   -6.8182   -0.3785 H       1  LIG1        0.0638
     89 H           8.8684   -3.9513   -0.4165 H       1  LIG1        0.0631
     90 O           9.6000   -8.5511   -0.2989 O.3     1  LIG1       -0.5061
     91 H          10.4932   -8.1995   -0.2911 H       1  LIG1        0.2922
     92 C           6.1899   -4.3344   -0.4319 C.1     1  LIG1       -0.0696
     93 C           5.4432   -3.3939   -0.4615 C.1     1  LIG1       -0.1139
     94 H           4.7780   -2.5562   -0.4878 H       1  LIG1        0.1232
@<TRIPOS>BOND
     1    53    51    1
     2    80    77    1
     3    31    29    1
     4    67    65    1
     5    66    65    1
     6    75    73    1
     7    74    73    1
     8    50    48    1
     9    49    48    1
    10    28    26    1
    11    27    26    1
    12    94    93    1
    13    93    92    3
    14    92    87    1
    15    89    84    1
    16    87    84   ar
    17    87    86   ar
    18    84    82   ar
    19    88    86    1
    20    86    83   ar
    21    82    85    1
    22    82    81   ar
    23    83    81   ar
    24    83    71    1
    25    81    90    1
    26    71    72   ar
    27    71    70   ar
    28    78    77    1
    29    77    76    1
    30    77    79    1
    31    76    70    1
    32    90    91    1
    33    72    68   ar
    34    70    69   ar
    35    68    69   ar
    36    68    58    1
    37    69    73    1
    38    58    61   ar
    39    58    56   ar
    40    65    61    1
    41    59    56    1
    42    61    60   ar
    43    56    55   ar
    44    60    62    1
    45    60    57   ar
    46    55    63    1
    47    55    57   ar
    48    51    44    1
    49    51    54    1
    50    51    52    1
    51    63    64    1
    52    57    45    1
    53    44    45   ar
    54    44    43   ar
    55    45    46   ar
    56    43    48    1
    57    43    42   ar
    58    46    47    1
    59    46    42   ar
    60    42    36    1
    61    41    40    1
    62    36    37   ar
    63    36    35   ar
    64    40    39    3
    65    39    35    1
    66    37    33   ar
    67    35    34   ar
    68    33    34   ar
    69    33    23    1
    70    34    38    1
    71    24    23   ar
    72    24    19   ar
    73    26    19    1
    74    23    22   ar
    75    19    20   ar
    76    22    29    1
    77    22    21   ar
    78    20    21   ar
    79    20    14    1
    80    29    32    1
    81    29    30    1
    82    21    25    1
    83    15    14   ar
    84    15    11   ar
    85    14    13   ar
    86     2     8    1
    87     2     1   ar
    88     2     3   ar
    89     4    11    1
    90     4     5   ar
    91     4     3   ar
    92     6     5    1
    93     8     9    1
    94    11    12   ar
    95     5     1   ar
    96     1     7    1
    97     3    10    1
    98    13    18    1
    99    13    12   ar
   100    12    16    1
   101    16    17    1
