@<TRIPOS>MOLECULE
mol_data/noopt/geoms/mol2/13fa13id6fl12dh.out
 47 50 0 0 0
SMALL
GASTEIGER

@<TRIPOS>ATOM
      1 C           1.1215   -0.3259    0.0002 C.ar    1  LIG1        0.0442
      2 C           0.7176    0.9721   -0.0005 C.ar    1  LIG1        0.1347
      3 C          -0.7144    0.9744    0.0003 C.ar    1  LIG1        0.0066
      4 C          -1.1226   -0.3223   -0.0003 C.ar    1  LIG1        0.0667
      5 N          -0.0018   -1.1217    0.0001 N.ar    1  LIG1       -0.3564
      6 H          -0.0034   -2.1157   -0.0003 H       1  LIG1        0.1655
      7 H           2.3167   -0.8373    0.0007 H       1  LIG1        0.0844
      8 O           1.4918    2.0165   -0.0003 O.3     1  LIG1       -0.5053
      9 H           0.9557    2.8128   -0.0003 H       1  LIG1        0.2922
     10 H          -1.4853    2.0212    0.0010 H       1  LIG1        0.0676
     11 C          -2.3194   -0.8299   -0.0001 C.ar    1  LIG1        0.0676
     12 C          -3.5352   -0.2220    0.0163 C.ar    1  LIG1       -0.0058
     13 C          -4.5290   -1.2531    0.0088 C.ar    1  LIG1        0.0807
     14 C          -3.8768   -2.4456   -0.0136 C.ar    1  LIG1        0.0700
     15 N          -2.5238   -2.1911   -0.0187 N.ar    1  LIG1       -0.3516
     16 H          -1.8082   -2.8808   -0.0339 H       1  LIG1        0.1660
     17 C          -3.7519    1.0599    0.0366 C.3     1  LIG1       -0.0364
     18 H          -4.6715    1.2582    0.5466 H       1  LIG1        0.0279
     19 H          -3.8141    1.4271   -0.9665 H       1  LIG1        0.0279
     20 H          -2.9486    1.5494    0.5465 H       1  LIG1        0.0279
     21 N          -6.9547   -0.9346    0.0312 N.1     1  LIG1       -0.1908
     22 C          -5.8179   -1.0839    0.0207 C.1     1  LIG1        0.1016
     23 C          -3.4590   -4.7572   -0.0357 C.ar    1  LIG1        0.2226
     24 C          -4.3399   -3.6602   -0.0280 C.ar    1  LIG1        0.0644
     25 C          -5.7137   -3.9084   -0.0358 C.ar    1  LIG1       -0.0035
     26 C          -6.1574   -5.2318   -0.0511 C.ar    1  LIG1        0.1499
     27 C          -5.1987   -6.2615   -0.0580 C.ar    1  LIG1        0.1525
     28 N          -3.8697   -6.0401   -0.0504 N.ar    1  LIG1       -0.2056
     29 H          -6.4325   -3.0768   -0.0311 H       1  LIG1        0.0663
     30 O          -2.1715   -4.5770   -0.0288 O.3     1  LIG1       -0.4919
     31 H          -1.9796   -3.6363   -0.0271 H       1  LIG1        0.2937
     32 O          -7.4262   -5.5152   -0.0590 O.3     1  LIG1       -0.4928
     33 C          -8.1858   -4.3037   -0.0620 C.3     1  LIG1        0.0789
     34 H          -9.2300   -4.5374   -0.0687 H       1  LIG1        0.0660
     35 H          -7.9533   -3.7347    0.8139 H       1  LIG1        0.0660
     36 H          -7.9426   -3.7323   -0.9334 H       1  LIG1        0.0660
     37 C          -5.5624   -7.5095   -0.0721 C.ar    1  LIG1        0.1758
     38 C          -6.7664   -8.1828   -0.0828 C.ar    1  LIG1        0.1196
     39 C          -6.4512   -9.5961   -0.0966 C.ar    1  LIG1        0.0811
     40 C          -5.0749   -9.6927   -0.0935 C.ar    1  LIG1        0.1145
     41 O          -4.5044   -8.4194   -0.0786 O.2     1  LIG1       -0.4580
     42 H          -4.2148  -10.6674   -0.1011 H       1  LIG1        0.1049
     43 N          -9.0178   -7.2250   -0.0795 N.1     1  LIG1       -0.1907
     44 C          -7.9627   -7.6739   -0.0810 C.1     1  LIG1        0.1049
     45 N          -7.3174  -10.5654   -0.1093 N.pl3   1  LIG1       -0.3545
     46 H          -8.1453  -10.2664   -0.5840 H       1  LIG1        0.1424
     47 H          -6.9276  -11.3545   -0.5840 H       1  LIG1        0.1424
@<TRIPOS>BOND
     1    19    17    1
     2    36    33    1
     3    47    45    1
     4    46    45    1
     5    45    39    1
     6    42    40    1
     7    39    40   ar
     8    39    38   ar
     9    40    41   ar
    10    38    44    1
    11    38    37   ar
    12    44    43    3
    13    41    37   ar
    14    37    27    1
    15    34    33    1
    16    33    32    1
    17    33    35    1
    18    32    26    1
    19    27    26   ar
    20    27    28   ar
    21    26    25   ar
    22    28    23   ar
    23    25    29    1
    24    25    24   ar
    25    23    30    1
    26    23    24   ar
    27    16    15    1
    28    30    31    1
    29    24    14    1
    30    15    14   ar
    31    15    11   ar
    32    14    13   ar
    33     2     8    1
    34     2     1   ar
    35     2     3   ar
    36     4    11    1
    37     4     5   ar
    38     4     3   ar
    39     6     5    1
    40     8     9    1
    41    11    12   ar
    42     5     1   ar
    43     1     7    1
    44     3    10    1
    45    13    12   ar
    46    13    22    1
    47    12    17    1
    48    22    21    3
    49    17    20    1
    50    17    18    1
