@<TRIPOS>MOLECULE
mol_data/noopt/geoms/mol2/13fa13fa-4fa13fa.out
 40 43 0 0 0
SMALL
GASTEIGER

@<TRIPOS>ATOM
      1 C           1.1215   -0.3259    0.0002 C.ar    1  LIG1        0.0442
      2 C           0.7176    0.9721   -0.0005 C.ar    1  LIG1        0.1347
      3 C          -0.7144    0.9744    0.0003 C.ar    1  LIG1        0.0067
      4 C          -1.1226   -0.3223   -0.0003 C.ar    1  LIG1        0.0701
      5 N          -0.0018   -1.1217    0.0001 N.ar    1  LIG1       -0.3564
      6 H          -0.0034   -2.1157   -0.0003 H       1  LIG1        0.1655
      7 H           2.3167   -0.8373    0.0007 H       1  LIG1        0.0844
      8 O           1.4918    2.0165   -0.0003 O.3     1  LIG1       -0.5053
      9 H           0.9557    2.8128   -0.0003 H       1  LIG1        0.2922
     10 H          -1.4853    2.0212    0.0010 H       1  LIG1        0.0676
     11 C          -2.3194   -0.8299   -0.0001 C.ar    1  LIG1        0.1054
     12 C          -2.7274   -2.1266   -0.0005 C.ar    1  LIG1        0.1440
     13 C          -4.1594   -2.1244    0.0011 C.ar    1  LIG1        0.0060
     14 C          -4.5635   -0.8264    0.0006 C.ar    1  LIG1        0.0540
     15 N          -3.4402   -0.0305    0.0003 N.ar    1  LIG1       -0.3500
     16 H          -3.4386    0.9635   -0.0001 H       1  LIG1        0.1661
     17 O          -1.9565   -3.1734   -0.0006 O.3     1  LIG1       -0.5046
     18 H          -1.0378   -2.8948   -0.0006 H       1  LIG1        0.2922
     19 H          -4.9336   -3.1687    0.0023 H       1  LIG1        0.0675
     20 C          -5.9236    1.0852    0.0026 C.ar    1  LIG1        0.1266
     21 C          -7.2385    1.5895    0.0050 C.ar    1  LIG1       -0.0103
     22 C          -5.7587   -0.3150    0.0014 C.ar    1  LIG1        0.0399
     23 C          -8.3419    0.7391    0.0056 C.ar    1  LIG1        0.0054
     24 H          -7.3885    2.6668    0.0062 H       1  LIG1        0.0661
     25 C          -6.8598   -1.1644    0.0020 C.ar    1  LIG1       -0.0485
     26 C          -8.1582   -0.6442    0.0040 C.ar    1  LIG1       -0.0517
     27 H          -6.7065   -2.2406    0.0011 H       1  LIG1        0.0625
     28 O          -4.9342    1.9286    0.0020 O.3     1  LIG1       -0.5061
     29 H          -5.2774    2.8251    0.0018 H       1  LIG1        0.2922
     30 H          -9.1838   -1.4431    0.0046 H       1  LIG1        0.0624
     31 C          -9.5420    1.2389    0.0077 C.ar    1  LIG1        0.0886
     32 C          -9.9585    2.5329    0.0088 C.ar    1  LIG1        0.1420
     33 C         -11.3904    2.5213    0.0122 C.ar    1  LIG1       -0.0022
     34 C         -11.7860    1.2207    0.0113 C.ar    1  LIG1        0.0057
     35 N         -10.6575    0.4322    0.0090 N.ar    1  LIG1       -0.3577
     36 H         -10.6495   -0.5617    0.0079 H       1  LIG1        0.1654
     37 H         -12.9778    0.7015    0.0134 H       1  LIG1        0.0808
     38 O          -9.1944    3.5847    0.0084 O.3     1  LIG1       -0.5046
     39 H          -9.7382    4.3758    0.0083 H       1  LIG1        0.2922
     40 H         -12.1714    3.5606    0.0152 H       1  LIG1        0.0669
@<TRIPOS>BOND
     1    18    17    1
     2    17    12    1
     3     2     8    1
     4     2     1   ar
     5     2     3   ar
     6    12    11   ar
     7    12    13   ar
     8     4    11    1
     9     4     5   ar
    10     4     3   ar
    11     6     5    1
    12     8     9    1
    13    16    15    1
    14    11    15   ar
    15     5     1   ar
    16     1     7    1
    17     3    10    1
    18    15    14   ar
    19    14    13   ar
    20    14    22    1
    21    13    19    1
    22    27    25    1
    23    22    25   ar
    24    22    20   ar
    25    29    28    1
    26    28    20    1
    27    25    26   ar
    28    20    21   ar
    29    26    30    1
    30    26    23   ar
    31    21    23   ar
    32    21    24    1
    33    23    31    1
    34    31    32   ar
    35    31    35   ar
    36    36    35    1
    37    39    38    1
    38    38    32    1
    39    32    33   ar
    40    35    34   ar
    41    34    33   ar
    42    34    37    1
    43    33    40    1
