@<TRIPOS>MOLECULE
mol_data/noopt/geoms/mol2/13fa6af-13di4ff-.out
 45 48 0 0 0
SMALL
GASTEIGER

@<TRIPOS>ATOM
      1 C           1.1215   -0.3259    0.0002 C.ar    1  LIG1        0.0441
      2 C           0.7176    0.9721   -0.0005 C.ar    1  LIG1        0.1347
      3 C          -0.7144    0.9744    0.0003 C.ar    1  LIG1        0.0052
      4 C          -1.1226   -0.3223   -0.0003 C.ar    1  LIG1        0.0516
      5 N          -0.0018   -1.1217    0.0001 N.ar    1  LIG1       -0.3575
      6 H          -0.0034   -2.1157   -0.0003 H       1  LIG1        0.1654
      7 H           2.3167   -0.8373    0.0007 H       1  LIG1        0.0844
      8 O           1.4918    2.0165   -0.0003 O.3     1  LIG1       -0.5053
      9 H           0.9557    2.8128   -0.0003 H       1  LIG1        0.2922
     10 H          -1.4853    2.0212    0.0010 H       1  LIG1        0.0675
     11 C          -2.5002   -2.2250   -0.0210 C.ar    1  LIG1        0.0377
     12 C          -2.3194   -0.8299   -0.0001 C.ar    1  LIG1        0.0200
     13 C          -3.4501   -0.0114    0.0210 C.ar    1  LIG1       -0.0074
     14 C          -4.7120   -0.6083    0.0204 C.ar    1  LIG1        0.1448
     15 C          -4.7903   -2.0130   -0.0016 C.ar    1  LIG1        0.1296
     16 N          -3.7099   -2.8177   -0.0220 N.ar    1  LIG1       -0.2491
     17 H          -3.3484    1.0830    0.0367 H       1  LIG1        0.0662
     18 H          -1.4783   -3.0283   -0.0410 H       1  LIG1        0.0836
     19 O          -5.7953    0.1100    0.0393 O.3     1  LIG1       -0.5045
     20 H          -6.5625   -0.4671    0.0440 H       1  LIG1        0.2922
     21 C          -5.9424   -2.6153   -0.0030 C.ar    1  LIG1        0.0868
     22 C          -7.2032   -2.1073    0.0122 C.ar    1  LIG1        0.0821
     23 C          -8.1107   -3.2151    0.0031 C.ar    1  LIG1       -0.0070
     24 C          -7.3645   -4.3512   -0.0191 C.ar    1  LIG1        0.0548
     25 N          -6.0364   -3.9886   -0.0225 N.ar    1  LIG1       -0.3515
     26 H          -5.2675   -4.6184   -0.0373 H       1  LIG1        0.1660
     27 N          -7.8039    0.2640    0.0512 N.1     1  LIG1       -0.1908
     28 C          -7.5224   -0.8473    0.0330 C.1     1  LIG1        0.1016
     29 C          -9.4093   -3.1502    0.0136 C.3     1  LIG1       -0.0365
     30 H          -9.8050   -4.0052    0.5209 H       1  LIG1        0.0279
     31 H          -9.7737   -3.1321   -0.9924 H       1  LIG1        0.0279
     32 H          -9.7179   -2.2600    0.5208 H       1  LIG1        0.0279
     33 C          -9.0983   -5.9316   -0.0209 C.ar    1  LIG1        0.1262
     34 C          -9.4406   -7.2976   -0.0371 C.ar    1  LIG1       -0.0161
     35 C          -7.7283   -5.5991   -0.0346 C.ar    1  LIG1        0.0434
     36 C          -8.4637   -8.2903   -0.0663 C.ar    1  LIG1       -0.0167
     37 H         -10.4920   -7.5764   -0.0267 H       1  LIG1        0.0655
     38 C          -6.7526   -6.5897   -0.0638 C.ar    1  LIG1       -0.0076
     39 C          -7.1127   -7.9412   -0.0799 C.ar    1  LIG1        0.1177
     40 H          -5.7028   -6.3078   -0.0738 H       1  LIG1        0.0662
     41 H          -8.8153   -9.5417   -0.0807 H       1  LIG1        0.0655
     42 O         -10.0545   -5.0513    0.0060 O.3     1  LIG1       -0.5061
     43 H         -10.9031   -5.5001    0.0126 H       1  LIG1        0.2922
     44 O          -6.1962   -8.8628   -0.1070 O.3     1  LIG1       -0.5067
     45 H          -5.3286   -8.4519   -0.1136 H       1  LIG1        0.2921
@<TRIPOS>BOND
     1    31    29    1
     2    45    44    1
     3    44    39    1
     4    41    36    1
     5    39    36   ar
     6    39    38   ar
     7    40    38    1
     8    36    34   ar
     9    38    35   ar
    10    18    11    1
    11    26    25    1
    12    34    37    1
    13    34    33   ar
    14    35    33   ar
    15    35    24    1
    16    25    24   ar
    17    25    21   ar
    18    16    11   ar
    19    16    15   ar
    20    11    12   ar
    21    33    42    1
    22    24    23   ar
    23    21    15    1
    24    21    22   ar
    25    15    14   ar
    26     2     8    1
    27     2     1   ar
    28     2     3   ar
    29     8     9    1
    30     6     5    1
    31     4    12    1
    32     4     5   ar
    33     4     3   ar
    34    12    13   ar
    35     5     1   ar
    36     1     7    1
    37     3    10    1
    38    23    22   ar
    39    23    29    1
    40    42    43    1
    41    22    28    1
    42    29    32    1
    43    29    30    1
    44    14    13   ar
    45    14    19    1
    46    13    17    1
    47    28    27    3
    48    19    20    1
