@<TRIPOS>MOLECULE
mol_data/noopt/geoms/mol2/13fd13fd-13fd.out
 32 34 0 0 0
SMALL
GASTEIGER

@<TRIPOS>ATOM
      1 C           1.1215   -0.3259    0.0002 C.ar    1  LIG1        0.0455
      2 C           0.7176    0.9721   -0.0005 C.ar    1  LIG1        0.1521
      3 C          -0.7144    0.9744    0.0003 C.ar    1  LIG1        0.1198
      4 C          -1.1226   -0.3223   -0.0003 C.ar    1  LIG1        0.0878
      5 N          -0.0018   -1.1217    0.0001 N.ar    1  LIG1       -0.3553
      6 H          -0.0034   -2.1157   -0.0003 H       1  LIG1        0.1655
      7 H           2.3167   -0.8373    0.0007 H       1  LIG1        0.0845
      8 O           1.4918    2.0165   -0.0003 O.3     1  LIG1       -0.5040
      9 H           0.9557    2.8128   -0.0003 H       1  LIG1        0.2923
     10 N          -2.1652    2.9444    0.0016 N.1     1  LIG1       -0.1907
     11 C          -1.4853    2.0212    0.0010 C.1     1  LIG1        0.1050
     12 C          -2.3194   -0.8299   -0.0001 C.ar    1  LIG1        0.1080
     13 C          -2.7274   -2.1266   -0.0005 C.ar    1  LIG1        0.1616
     14 C          -4.1594   -2.1244    0.0011 C.ar    1  LIG1        0.1205
     15 C          -4.5635   -0.8264    0.0006 C.ar    1  LIG1        0.0882
     16 N          -3.4402   -0.0305    0.0003 N.ar    1  LIG1       -0.3478
     17 H          -3.4386    0.9635   -0.0001 H       1  LIG1        0.1661
     18 O          -1.9565   -3.1734   -0.0006 O.3     1  LIG1       -0.5034
     19 H          -1.0378   -2.8948   -0.0006 H       1  LIG1        0.2923
     20 N          -5.6165   -4.0898    0.0034 N.1     1  LIG1       -0.1907
     21 C          -4.9336   -3.1687    0.0023 C.1     1  LIG1        0.1050
     22 C          -5.7587   -0.3150    0.0014 C.ar    1  LIG1        0.1076
     23 C          -6.1626    0.9830    0.0016 C.ar    1  LIG1        0.1609
     24 C          -7.5946    0.9853    0.0038 C.ar    1  LIG1        0.1110
     25 C          -8.0028   -0.3114    0.0030 C.ar    1  LIG1        0.0233
     26 N          -6.8820   -1.1108    0.0021 N.ar    1  LIG1       -0.3554
     27 H          -6.8836   -2.1048    0.0013 H       1  LIG1        0.1655
     28 H          -9.1996   -0.8190    0.0041 H       1  LIG1        0.0821
     29 O          -5.3884    2.0274    0.0015 O.3     1  LIG1       -0.5034
     30 H          -5.9245    2.8237    0.0015 H       1  LIG1        0.2923
     31 N          -9.0454    2.9553    0.0072 N.1     1  LIG1       -0.1907
     32 C          -8.3655    2.0321    0.0056 C.1     1  LIG1        0.1043
@<TRIPOS>BOND
     1    19    18    1
     2    18    13    1
     3     2     8    1
     4     2     1   ar
     5     2     3   ar
     6    13    12   ar
     7    13    14   ar
     8     4    12    1
     9     4     5   ar
    10     4     3   ar
    11     6     5    1
    12     8     9    1
    13    17    16    1
    14    12    16   ar
    15     5     1   ar
    16     1     7    1
    17     3    11    1
    18    16    15   ar
    19    15    14   ar
    20    15    22    1
    21    11    10    3
    22    14    21    1
    23    27    26    1
    24    22    23   ar
    25    22    26   ar
    26    30    29    1
    27    29    23    1
    28    23    24   ar
    29    26    25   ar
    30    21    20    3
    31    25    24   ar
    32    25    28    1
    33    24    32    1
    34    32    31    3
