@<TRIPOS>MOLECULE
mol_data/noopt/geoms/mol2/13fd13fd-13fd-13fd.out
 42 45 0 0 0
SMALL
GASTEIGER

@<TRIPOS>ATOM
      1 C           1.1215   -0.3259    0.0002 C.ar    1  LIG1        0.0455
      2 C           0.7176    0.9721   -0.0005 C.ar    1  LIG1        0.1521
      3 C          -0.7144    0.9744    0.0003 C.ar    1  LIG1        0.1198
      4 C          -1.1226   -0.3223   -0.0003 C.ar    1  LIG1        0.0878
      5 N          -0.0018   -1.1217    0.0001 N.ar    1  LIG1       -0.3553
      6 H          -0.0034   -2.1157   -0.0003 H       1  LIG1        0.1655
      7 H           2.3167   -0.8373    0.0007 H       1  LIG1        0.0845
      8 O           1.4918    2.0165   -0.0003 O.3     1  LIG1       -0.5040
      9 H           0.9557    2.8128   -0.0003 H       1  LIG1        0.2923
     10 N          -2.1652    2.9444    0.0016 N.1     1  LIG1       -0.1907
     11 C          -1.4853    2.0212    0.0010 C.1     1  LIG1        0.1050
     12 C          -2.3194   -0.8299   -0.0001 C.ar    1  LIG1        0.1080
     13 C          -2.7274   -2.1266   -0.0005 C.ar    1  LIG1        0.1616
     14 C          -4.1594   -2.1244    0.0011 C.ar    1  LIG1        0.1205
     15 C          -4.5635   -0.8264    0.0006 C.ar    1  LIG1        0.0883
     16 N          -3.4402   -0.0305    0.0003 N.ar    1  LIG1       -0.3478
     17 H          -3.4386    0.9635   -0.0001 H       1  LIG1        0.1661
     18 O          -1.9565   -3.1734   -0.0006 O.3     1  LIG1       -0.5034
     19 H          -1.0378   -2.8948   -0.0006 H       1  LIG1        0.2923
     20 N          -5.6165   -4.0898    0.0034 N.1     1  LIG1       -0.1907
     21 C          -4.9336   -3.1687    0.0023 C.1     1  LIG1        0.1050
     22 C          -5.7587   -0.3150    0.0014 C.ar    1  LIG1        0.1081
     23 C          -6.9765   -0.9191    0.0015 C.ar    1  LIG1        0.1616
     24 C          -7.9670    0.1151    0.0037 C.ar    1  LIG1        0.1205
     25 C          -7.3109    1.3057    0.0031 C.ar    1  LIG1        0.0882
     26 N          -5.9587    1.0470    0.0022 N.ar    1  LIG1       -0.3478
     27 H          -5.2408    1.7345    0.0016 H       1  LIG1        0.1661
     28 O          -7.1973   -2.2003    0.0012 O.3     1  LIG1       -0.5034
     29 H          -6.3599   -2.6697    0.0011 H       1  LIG1        0.2923
     30 N         -10.3937   -0.1958    0.0070 N.1     1  LIG1       -0.1907
     31 C          -9.2564   -0.0501    0.0054 C.1     1  LIG1        0.1050
     32 C          -7.7701    2.5219    0.0044 C.ar    1  LIG1        0.1076
     33 C          -7.1139    3.7125    0.0049 C.ar    1  LIG1        0.1609
     34 C          -8.1043    4.7467    0.0074 C.ar    1  LIG1        0.1110
     35 C          -9.3222    4.1427    0.0066 C.ar    1  LIG1        0.0233
     36 N          -9.1222    2.7807    0.0052 N.ar    1  LIG1       -0.3554
     37 H          -9.8401    2.0932    0.0043 H       1  LIG1        0.1655
     38 H         -10.5174    4.6541    0.0080 H       1  LIG1        0.0821
     39 O          -5.8244    3.8776    0.0047 O.3     1  LIG1       -0.5034
     40 H          -5.6216    4.8160    0.0046 H       1  LIG1        0.2923
     41 N          -7.6888    7.1578    0.0115 N.1     1  LIG1       -0.1907
     42 C          -7.8835    6.0278    0.0096 C.1     1  LIG1        0.1043
@<TRIPOS>BOND
     1    19    18    1
     2    18    13    1
     3     2     8    1
     4     2     1   ar
     5     2     3   ar
     6    13    12   ar
     7    13    14   ar
     8     4    12    1
     9     4     5   ar
    10     4     3   ar
    11     6     5    1
    12     8     9    1
    13    17    16    1
    14    12    16   ar
    15     5     1   ar
    16     1     7    1
    17     3    11    1
    18    16    15   ar
    19    15    14   ar
    20    15    22    1
    21    11    10    3
    22    14    21    1
    23    29    28    1
    24    28    23    1
    25    22    23   ar
    26    22    26   ar
    27    23    24   ar
    28    27    26    1
    29    26    25   ar
    30    21    20    3
    31    25    24   ar
    32    25    32    1
    33    24    31    1
    34    37    36    1
    35    32    33   ar
    36    32    36   ar
    37    40    39    1
    38    39    33    1
    39    33    34   ar
    40    36    35   ar
    41    31    30    3
    42    35    34   ar
    43    35    38    1
    44    34    42    1
    45    42    41    3
