@<TRIPOS>MOLECULE
mol_data/noopt/geoms/mol2/13fd13fd13fd13fd-.out
 42 45 0 0 0
SMALL
GASTEIGER

@<TRIPOS>ATOM
      1 C           1.1215   -0.3259    0.0002 C.ar    1  LIG1        0.0455
      2 C           0.7176    0.9721   -0.0005 C.ar    1  LIG1        0.1521
      3 C          -0.7144    0.9744    0.0003 C.ar    1  LIG1        0.1198
      4 C          -1.1226   -0.3223   -0.0003 C.ar    1  LIG1        0.0878
      5 N          -0.0018   -1.1217    0.0001 N.ar    1  LIG1       -0.3553
      6 H          -0.0034   -2.1157   -0.0003 H       1  LIG1        0.1655
      7 H           2.3167   -0.8373    0.0007 H       1  LIG1        0.0845
      8 O           1.4918    2.0165   -0.0003 O.3     1  LIG1       -0.5040
      9 H           0.9557    2.8128   -0.0003 H       1  LIG1        0.2923
     10 N          -2.1652    2.9444    0.0016 N.1     1  LIG1       -0.1907
     11 C          -1.4853    2.0212    0.0010 C.1     1  LIG1        0.1050
     12 C          -2.3194   -0.8299   -0.0001 C.ar    1  LIG1        0.1080
     13 C          -3.5353   -0.2219   -0.0003 C.ar    1  LIG1        0.1616
     14 C          -4.5290   -1.2530    0.0012 C.ar    1  LIG1        0.1205
     15 C          -3.8767   -2.4457    0.0005 C.ar    1  LIG1        0.0883
     16 N          -2.5238   -2.1913    0.0002 N.ar    1  LIG1       -0.3478
     17 H          -1.8081   -2.8811   -0.0004 H       1  LIG1        0.1661
     18 O          -3.7520    1.0599   -0.0003 O.3     1  LIG1       -0.5034
     19 H          -4.6977    1.2250   -0.0003 H       1  LIG1        0.2923
     20 N          -6.9548   -0.9344    0.0036 N.1     1  LIG1       -0.1907
     21 C          -5.8179   -1.0837    0.0025 C.1     1  LIG1        0.1050
     22 C          -4.3398   -3.6604    0.0012 C.ar    1  LIG1        0.1081
     23 C          -5.6206   -4.1160    0.0013 C.ar    1  LIG1        0.1616
     24 C          -5.5655   -5.5470    0.0033 C.ar    1  LIG1        0.1205
     25 C          -4.2535   -5.9029    0.0026 C.ar    1  LIG1        0.0882
     26 N          -3.4996   -4.7510    0.0018 N.ar    1  LIG1       -0.3478
     27 H          -2.5064   -4.7127    0.0010 H       1  LIG1        0.1661
     28 O          -6.6951   -3.3843    0.0012 O.3     1  LIG1       -0.5034
     29 H          -7.4693   -3.9519    0.0012 H       1  LIG1        0.2923
     30 N          -7.4758   -7.0756    0.0065 N.1     1  LIG1       -0.1907
     31 C          -6.5805   -6.3592    0.0050 C.1     1  LIG1        0.1050
     32 C          -3.6983   -7.0784    0.0036 C.ar    1  LIG1        0.1076
     33 C          -2.3863   -7.4341    0.0038 C.ar    1  LIG1        0.1609
     34 C          -2.3311   -8.8651    0.0062 C.ar    1  LIG1        0.1110
     35 C          -3.6119   -9.3208    0.0056 C.ar    1  LIG1        0.0233
     36 N          -4.4521   -8.2303    0.0045 N.ar    1  LIG1       -0.3554
     37 H          -5.4454   -8.2686    0.0038 H       1  LIG1        0.1655
     38 H          -4.0750  -10.5356    0.0070 H       1  LIG1        0.0821
     39 O          -1.3712   -6.6219    0.0035 O.3     1  LIG1       -0.5034
     40 H          -1.6865   -5.7151    0.0034 H       1  LIG1        0.2923
     41 N          -0.3089  -10.2422    0.0098 N.1     1  LIG1       -0.1907
     42 C          -1.2566   -9.5968    0.0081 C.1     1  LIG1        0.1043
@<TRIPOS>BOND
     1     2     8    1
     2     2     1   ar
     3     2     3   ar
     4    17    16    1
     5    13    18    1
     6    13    12   ar
     7    13    14   ar
     8     4    12    1
     9     4     5   ar
    10     4     3   ar
    11     6     5    1
    12     8     9    1
    13    18    19    1
    14    12    16   ar
    15     5     1   ar
    16    16    15   ar
    17     1     7    1
    18     3    11    1
    19    15    14   ar
    20    15    22    1
    21    27    26    1
    22    11    10    3
    23    14    21    1
    24    22    23   ar
    25    22    26   ar
    26    29    28    1
    27    28    23    1
    28    23    24   ar
    29    26    25   ar
    30    21    20    3
    31    25    24   ar
    32    25    32    1
    33    24    31    1
    34    40    39    1
    35    39    33    1
    36    32    33   ar
    37    32    36   ar
    38    37    36    1
    39    33    34   ar
    40    36    35   ar
    41    31    30    3
    42    35    34   ar
    43    35    38    1
    44    34    42    1
    45    42    41    3
