@<TRIPOS>MOLECULE
mol_data/noopt/geoms/mol2/13fd13ah(300)13ff(30)4he(280).out
 46 49 0 0 0
SMALL
GASTEIGER

@<TRIPOS>ATOM
      1 C           1.1215   -0.3259    0.0002 C.ar    1  LIG1        0.0455
      2 C           0.7176    0.9721   -0.0005 C.ar    1  LIG1        0.1521
      3 C          -0.7144    0.9744    0.0003 C.ar    1  LIG1        0.1197
      4 C          -1.1226   -0.3223   -0.0003 C.ar    1  LIG1        0.0842
      5 N          -0.0018   -1.1217    0.0001 N.ar    1  LIG1       -0.3554
      6 H          -0.0034   -2.1157   -0.0003 H       1  LIG1        0.1655
      7 H           2.3167   -0.8373    0.0007 H       1  LIG1        0.0845
      8 O           1.4918    2.0165   -0.0003 O.3     1  LIG1       -0.5040
      9 H           0.9557    2.8128   -0.0003 H       1  LIG1        0.2923
     10 N          -2.1652    2.9444    0.0016 N.1     1  LIG1       -0.1907
     11 C          -1.4853    2.0212    0.0010 C.1     1  LIG1        0.1050
     12 C          -2.3194   -0.8299   -0.0001 C.ar    1  LIG1        0.0665
     13 C          -3.3460   -0.6685   -0.8764 C.ar    1  LIG1       -0.0136
     14 C          -4.4428   -1.4564   -0.4001 C.ar    1  LIG1        0.0524
     15 C          -4.0376   -2.0661    0.7454 C.ar    1  LIG1        0.0880
     16 N          -2.7384   -1.6849    0.9942 N.ar    1  LIG1       -0.3503
     17 H          -2.1897   -1.9806    1.7685 H       1  LIG1        0.1660
     18 H          -3.3316    0.0678   -1.9477 H       1  LIG1        0.0658
     19 N          -5.6116   -1.5706   -0.9577 N.pl3   1  LIG1       -0.3563
     20 H          -5.7894   -0.7676   -1.5265 H       1  LIG1        0.1424
     21 H          -5.6307   -2.3928   -1.5266 H       1  LIG1        0.1424
     22 C          -4.6723   -2.8760    1.5399 C.ar    1  LIG1        0.1109
     23 C          -5.6393   -2.6285    2.4627 C.ar    1  LIG1        0.1863
     24 C          -5.9906   -3.8814    3.0605 C.ar    1  LIG1        0.1849
     25 C          -5.2242   -4.8397    2.4754 C.ar    1  LIG1        0.0946
     26 N          -4.4152   -4.2284    1.5442 N.ar    1  LIG1       -0.3470
     27 H          -3.7515   -4.6903    0.9662 H       1  LIG1        0.1662
     28 O          -6.1478   -1.4666    2.7484 O.3     1  LIG1       -0.5019
     29 H          -7.1021   -1.5431    2.8188 H       1  LIG1        0.2924
     30 O          -6.8785   -4.0716    3.9909 O.3     1  LIG1       -0.5019
     31 H          -6.9079   -5.0033    4.2202 H       1  LIG1        0.2924
     32 C          -5.3585   -7.0117    1.5988 C.ar    1  LIG1        0.0340
     33 C          -5.3005   -8.3922    1.8707 C.ar    1  LIG1       -0.0393
     34 C          -5.1776   -6.1229    2.6782 C.ar    1  LIG1        0.0238
     35 C          -5.0720   -8.8690    3.1596 C.ar    1  LIG1       -0.0446
     36 H          -5.4376   -9.0955    1.0524 H       1  LIG1        0.0636
     37 C          -4.9495   -6.5984    3.9651 C.ar    1  LIG1       -0.0353
     38 C          -4.8950   -7.9735    4.2150 C.ar    1  LIG1        0.0254
     39 H          -4.8131   -5.8929    4.7807 H       1  LIG1        0.0637
     40 H          -5.0246  -10.1502    3.3748 H       1  LIG1        0.0630
     41 N          -5.5744   -6.6274    0.3758 N.pl3   1  LIG1       -0.3575
     42 H          -4.7007   -6.5154   -0.0976 H       1  LIG1        0.1423
     43 H          -6.1242   -7.3155   -0.0976 H       1  LIG1        0.1423
     44 C          -4.6816   -8.4122    5.4200 C.1     1  LIG1       -0.0696
     45 C          -4.4844   -8.8175    6.5334 C.1     1  LIG1       -0.1139
     46 H          -4.3088   -9.1785    7.5253 H       1  LIG1        0.1232
@<TRIPOS>BOND
     1    18    13    1
     2    21    19    1
     3    20    19    1
     4    19    14    1
     5    13    14   ar
     6    13    12   ar
     7    14    15   ar
     8    43    41    1
     9    42    41    1
    10     2     8    1
    11     2     1   ar
    12     2     3   ar
    13     4    12    1
    14     4     5   ar
    15     4     3   ar
    16     6     5    1
    17     8     9    1
    18    12    16   ar
    19     5     1   ar
    20     1     7    1
    21     3    11    1
    22    11    10    3
    23    41    32    1
    24    15    16   ar
    25    15    22    1
    26    27    26    1
    27    16    17    1
    28    36    33    1
    29    22    26   ar
    30    22    23   ar
    31    26    25   ar
    32    32    33   ar
    33    32    34   ar
    34    33    35   ar
    35    23    28    1
    36    23    24   ar
    37    25    34    1
    38    25    24   ar
    39    34    37   ar
    40    28    29    1
    41    24    30    1
    42    35    40    1
    43    35    38   ar
    44    37    38   ar
    45    37    39    1
    46    30    31    1
    47    38    44    1
    48    44    45    3
    49    45    46    1
