@<TRIPOS>MOLECULE
mol_data/noopt/geoms/mol2/13fd6dd(110)13al(150)13li(30).out
 50 53 0 0 0
SMALL
GASTEIGER

@<TRIPOS>ATOM
      1 C           1.1215   -0.3259    0.0002 C.ar    1  LIG1        0.0455
      2 C           0.7176    0.9721   -0.0005 C.ar    1  LIG1        0.1520
      3 C          -0.7144    0.9744    0.0003 C.ar    1  LIG1        0.1183
      4 C          -1.1226   -0.3223   -0.0003 C.ar    1  LIG1        0.0705
      5 N          -0.0018   -1.1217    0.0001 N.ar    1  LIG1       -0.3565
      6 H          -0.0034   -2.1157   -0.0003 H       1  LIG1        0.1655
      7 H           2.3167   -0.8373    0.0007 H       1  LIG1        0.0845
      8 O           1.4918    2.0165   -0.0003 O.3     1  LIG1       -0.5040
      9 H           0.9557    2.8128   -0.0003 H       1  LIG1        0.2923
     10 N          -2.1652    2.9444    0.0016 N.1     1  LIG1       -0.1907
     11 C          -1.4853    2.0212    0.0010 C.1     1  LIG1        0.1050
     12 C          -3.1364   -0.7252   -1.1407 C.ar    1  LIG1        0.1499
     13 C          -2.3194   -0.8299   -0.0001 C.ar    1  LIG1        0.0368
     14 C          -2.8235   -1.4883    1.1230 C.ar    1  LIG1       -0.0303
     15 C          -4.1152   -2.0151    1.0697 C.ar    1  LIG1        0.0798
     16 C          -4.8554   -1.8595   -0.1166 C.ar    1  LIG1        0.1060
     17 N          -4.3846   -1.2275   -1.2094 N.ar    1  LIG1       -0.2329
     18 H          -2.2148   -1.5888    2.0328 H       1  LIG1        0.0638
     19 N          -2.3367    0.4109   -3.1545 N.1     1  LIG1       -0.1893
     20 C          -2.7115   -0.1216   -2.2107 C.1     1  LIG1        0.1198
     21 N          -5.0842   -3.1848    2.9877 N.1     1  LIG1       -0.1908
     22 C          -4.6300   -2.6366    2.0888 C.1     1  LIG1        0.1014
     23 C          -6.0623   -2.3326   -0.2149 C.ar    1  LIG1        0.0703
     24 C          -6.5818   -3.5174    0.2028 C.ar    1  LIG1        0.0076
     25 C          -7.9669   -3.5287   -0.1605 C.ar    1  LIG1        0.1474
     26 C          -8.2333   -2.3497   -0.7827 C.ar    1  LIG1        0.1092
     27 N          -7.0698   -1.6146   -0.8185 N.ar    1  LIG1       -0.3488
     28 H          -6.9729   -0.7089   -1.2164 H       1  LIG1        0.1661
     29 H          -5.9365   -4.4640    0.8172 H       1  LIG1        0.0676
     30 O          -8.8162   -4.4875    0.0622 O.3     1  LIG1       -0.4929
     31 C         -10.1371   -3.9456    0.1439 C.3     1  LIG1        0.0789
     32 H         -10.8358   -4.7350    0.3271 H       1  LIG1        0.0660
     33 H         -10.1828   -3.2362    0.9437 H       1  LIG1        0.0660
     34 H         -10.3811   -3.4601   -0.7778 H       1  LIG1        0.0660
     35 C          -9.3405   -1.8948   -1.2899 C.ar    1  LIG1        0.1090
     36 C          -9.9194   -0.6691   -1.1874 C.ar    1  LIG1        0.1497
     37 C         -11.1354   -0.7060   -1.9428 C.ar    1  LIG1        0.0092
     38 C         -11.2453   -1.9521   -2.4749 C.ar    1  LIG1        0.0087
     39 N         -10.1487   -2.6833   -2.0773 N.ar    1  LIG1       -0.3562
     40 H          -9.9688   -3.6301   -2.3208 H       1  LIG1        0.1655
     41 H         -12.1685   -2.4682   -3.2308 H       1  LIG1        0.0811
     42 O          -9.4527    0.3466   -0.5237 O.3     1  LIG1       -0.4927
     43 C          -8.0564    0.1568   -0.2801 C.3     1  LIG1        0.0789
     44 H          -7.6727    0.9931    0.2660 H       1  LIG1        0.0660
     45 H          -7.9120   -0.7376    0.2893 H       1  LIG1        0.0660
     46 H          -7.5397    0.0728   -1.2133 H       1  LIG1        0.0660
     47 C         -11.9808    0.2702   -2.0944 C.3     1  LIG1       -0.0348
     48 H         -12.9117    0.0106   -1.6350 H       1  LIG1        0.0279
     49 H         -12.1358    0.4491   -3.1379 H       1  LIG1        0.0279
     50 H         -11.5908    1.1544   -1.6350 H       1  LIG1        0.0279
@<TRIPOS>BOND
     1    41    38    1
     2    19    20    3
     3    49    47    1
     4    38    39   ar
     5    38    37   ar
     6    40    39    1
     7    20    12    1
     8    47    37    1
     9    47    50    1
    10    47    48    1
    11    39    35   ar
    12    37    36   ar
    13    35    36   ar
    14    35    26    1
    15    28    27    1
    16    46    43    1
    17    17    12   ar
    18    17    16   ar
    19    36    42    1
    20    12    13   ar
    21    27    26   ar
    22    27    23   ar
    23    26    25   ar
    24    34    31    1
    25    42    43    1
    26    43    44    1
    27    43    45    1
    28    23    16    1
    29    23    24   ar
    30    25    30    1
    31    25    24   ar
    32    16    15   ar
    33     2     8    1
    34     2     1   ar
    35     2     3   ar
    36     6     5    1
    37     8     9    1
    38     4    13    1
    39     4     5   ar
    40     4     3   ar
    41    13    14   ar
    42     5     1   ar
    43     1     7    1
    44     3    11    1
    45    11    10    3
    46    30    31    1
    47    31    32    1
    48    31    33    1
    49    24    29    1
    50    15    14   ar
    51    15    22    1
    52    14    18    1
    53    22    21    3
