@<TRIPOS>MOLECULE
mol_data/noopt/geoms/mol2/13fd13hf-6fe-6hd-.out
 47 50 0 0 0
SMALL
GASTEIGER

@<TRIPOS>ATOM
      1 C           1.1215   -0.3259    0.0002 C.ar    1  LIG1        0.0455
      2 C           0.7176    0.9721   -0.0005 C.ar    1  LIG1        0.1521
      3 C          -0.7144    0.9744    0.0003 C.ar    1  LIG1        0.1197
      4 C          -1.1226   -0.3223   -0.0003 C.ar    1  LIG1        0.0861
      5 N          -0.0018   -1.1217    0.0001 N.ar    1  LIG1       -0.3554
      6 H          -0.0034   -2.1157   -0.0003 H       1  LIG1        0.1655
      7 H           2.3167   -0.8373    0.0007 H       1  LIG1        0.0845
      8 O           1.4918    2.0165   -0.0003 O.3     1  LIG1       -0.5040
      9 H           0.9557    2.8128   -0.0003 H       1  LIG1        0.2923
     10 N          -2.1652    2.9444    0.0016 N.1     1  LIG1       -0.1907
     11 C          -1.4853    2.0212    0.0010 C.1     1  LIG1        0.1050
     12 C          -2.3194   -0.8299   -0.0001 C.ar    1  LIG1        0.0893
     13 C          -3.5353   -0.2219   -0.0003 C.ar    1  LIG1        0.0944
     14 C          -4.5290   -1.2530    0.0012 C.ar    1  LIG1        0.1637
     15 C          -3.8767   -2.4457    0.0005 C.ar    1  LIG1        0.0960
     16 N          -2.5238   -2.1913    0.0002 N.ar    1  LIG1       -0.3484
     17 H          -1.8081   -2.8811   -0.0004 H       1  LIG1        0.1661
     18 N          -3.7520    1.0599   -0.0003 N.pl3   1  LIG1       -0.3534
     19 H          -3.0025    1.5247   -0.4717 H       1  LIG1        0.1425
     20 H          -4.6126    1.2525   -0.4717 H       1  LIG1        0.1425
     21 O          -5.8180   -1.0837    0.0025 O.3     1  LIG1       -0.5031
     22 H          -6.2535   -1.9392    0.0028 H       1  LIG1        0.2923
     23 C          -3.4590   -4.7573   -0.0194 C.ar    1  LIG1        0.2224
     24 C          -4.3398   -3.6604    0.0012 C.ar    1  LIG1        0.0645
     25 C          -5.7134   -3.9088    0.0226 C.ar    1  LIG1       -0.0299
     26 C          -6.1571   -5.2323    0.0224 C.ar    1  LIG1        0.0516
     27 C          -5.1985   -6.2619    0.0007 C.ar    1  LIG1        0.0935
     28 N          -3.8696   -6.0403   -0.0199 N.ar    1  LIG1       -0.2111
     29 H          -6.4321   -3.0772    0.0381 H       1  LIG1        0.0639
     30 O          -2.1717   -4.5769   -0.0397 O.3     1  LIG1       -0.4919
     31 H          -1.9800   -3.6363   -0.0446 H       1  LIG1        0.2937
     32 C          -7.4257   -5.5159    0.0417 C.1     1  LIG1       -0.0675
     33 C          -8.5978   -5.7779    0.0595 C.1     1  LIG1       -0.1138
     34 H          -9.6419   -6.0113    0.0753 H       1  LIG1        0.1232
     35 C          -4.5959   -8.5323   -0.0218 C.ar    1  LIG1        0.1255
     36 C          -5.5622   -7.5100   -0.0002 C.ar    1  LIG1        0.0424
     37 C          -6.9114   -7.8682    0.0202 C.ar    1  LIG1       -0.0304
     38 C          -7.2471   -9.2231    0.0184 C.ar    1  LIG1        0.0706
     39 C          -6.2086  -10.1721   -0.0042 C.ar    1  LIG1        0.0471
     40 N          -4.9019   -9.8442   -0.0239 N.ar    1  LIG1       -0.2388
     41 H          -7.6948   -7.0972    0.0364 H       1  LIG1        0.0638
     42 H          -6.4706  -11.4454   -0.0067 H       1  LIG1        0.0843
     43 N          -3.3273   -8.2488   -0.0412 N.pl3   1  LIG1       -0.3426
     44 H          -2.8309   -8.9745   -0.5175 H       1  LIG1        0.1437
     45 H          -3.1870   -7.3809   -0.5176 H       1  LIG1        0.1437
     46 N          -9.5838   -9.9474    0.0529 N.1     1  LIG1       -0.1908
     47 C          -8.4887   -9.6080    0.0367 C.1     1  LIG1        0.1007
@<TRIPOS>BOND
     1    45    43    1
     2    44    43    1
     3    20    18    1
     4    19    18    1
     5    31    30    1
     6    43    35    1
     7    30    23    1
     8    40    35   ar
     9    40    39   ar
    10    35    36   ar
    11    28    23   ar
    12    28    27   ar
    13    23    24   ar
    14    42    39    1
    15    39    38   ar
    16     2     8    1
    17     2     1   ar
    18     2     3   ar
    19    17    16    1
    20    13    18    1
    21    13    12   ar
    22    13    14   ar
    23     4    12    1
    24     4     5   ar
    25     4     3   ar
    26     6     5    1
    27     8     9    1
    28    36    27    1
    29    36    37   ar
    30    12    16   ar
    31     5     1   ar
    32    16    15   ar
    33     1     7    1
    34     3    11    1
    35    15    14   ar
    36    15    24    1
    37    27    26   ar
    38    11    10    3
    39    14    21    1
    40    24    25   ar
    41    21    22    1
    42    38    37   ar
    43    38    47    1
    44    37    41    1
    45    26    25   ar
    46    26    32    1
    47    25    29    1
    48    47    46    3
    49    32    33    3
    50    33    34    1
