@<TRIPOS>MOLECULE
mol_data/noopt/geoms/mol2/13fd13fd.out
 22 23 0 0 0
SMALL
GASTEIGER

@<TRIPOS>ATOM
      1 C           1.1215   -0.3259    0.0002 C.ar    1  LIG1        0.0455
      2 C           0.7176    0.9721   -0.0005 C.ar    1  LIG1        0.1521
      3 C          -0.7144    0.9744    0.0003 C.ar    1  LIG1        0.1198
      4 C          -1.1226   -0.3223   -0.0003 C.ar    1  LIG1        0.0878
      5 N          -0.0018   -1.1217    0.0001 N.ar    1  LIG1       -0.3553
      6 H          -0.0034   -2.1157   -0.0003 H       1  LIG1        0.1655
      7 H           2.3167   -0.8373    0.0007 H       1  LIG1        0.0845
      8 O           1.4918    2.0165   -0.0003 O.3     1  LIG1       -0.5040
      9 H           0.9557    2.8128   -0.0003 H       1  LIG1        0.2923
     10 N          -2.1652    2.9444    0.0016 N.1     1  LIG1       -0.1907
     11 C          -1.4853    2.0212    0.0010 C.1     1  LIG1        0.1050
     12 C          -2.3194   -0.8299   -0.0001 C.ar    1  LIG1        0.1076
     13 C          -3.5353   -0.2219   -0.0003 C.ar    1  LIG1        0.1609
     14 C          -4.5290   -1.2530    0.0012 C.ar    1  LIG1        0.1110
     15 C          -3.8767   -2.4457    0.0005 C.ar    1  LIG1        0.0233
     16 N          -2.5238   -2.1913    0.0002 N.ar    1  LIG1       -0.3554
     17 H          -1.8081   -2.8811   -0.0004 H       1  LIG1        0.1655
     18 H          -4.3398   -3.6604    0.0012 H       1  LIG1        0.0821
     19 O          -3.7520    1.0599   -0.0003 O.3     1  LIG1       -0.5034
     20 H          -4.6977    1.2250   -0.0003 H       1  LIG1        0.2923
     21 N          -6.9548   -0.9344    0.0036 N.1     1  LIG1       -0.1907
     22 C          -5.8179   -1.0837    0.0025 C.1     1  LIG1        0.1043
@<TRIPOS>BOND
     1     2     8    1
     2     2     1   ar
     3     2     3   ar
     4    17    16    1
     5    13    19    1
     6    13    12   ar
     7    13    14   ar
     8     4    12    1
     9     4     5   ar
    10     4     3   ar
    11     6     5    1
    12     8     9    1
    13    19    20    1
    14    12    16   ar
    15     5     1   ar
    16    16    15   ar
    17     1     7    1
    18     3    11    1
    19    15    14   ar
    20    15    18    1
    21    11    10    3
    22    14    22    1
    23    22    21    3
