@<TRIPOS>MOLECULE
mol_data/noopt/geoms/mol2/13fd13fd13fd-13fd.out
 42 45 0 0 0
SMALL
GASTEIGER

@<TRIPOS>ATOM
      1 C           1.1215   -0.3259    0.0002 C.ar    1  LIG1        0.0455
      2 C           0.7176    0.9721   -0.0005 C.ar    1  LIG1        0.1521
      3 C          -0.7144    0.9744    0.0003 C.ar    1  LIG1        0.1198
      4 C          -1.1226   -0.3223   -0.0003 C.ar    1  LIG1        0.0878
      5 N          -0.0018   -1.1217    0.0001 N.ar    1  LIG1       -0.3553
      6 H          -0.0034   -2.1157   -0.0003 H       1  LIG1        0.1655
      7 H           2.3167   -0.8373    0.0007 H       1  LIG1        0.0845
      8 O           1.4918    2.0165   -0.0003 O.3     1  LIG1       -0.5040
      9 H           0.9557    2.8128   -0.0003 H       1  LIG1        0.2923
     10 N          -2.1652    2.9444    0.0016 N.1     1  LIG1       -0.1907
     11 C          -1.4853    2.0212    0.0010 C.1     1  LIG1        0.1050
     12 C          -2.3194   -0.8299   -0.0001 C.ar    1  LIG1        0.1080
     13 C          -3.5353   -0.2219   -0.0003 C.ar    1  LIG1        0.1616
     14 C          -4.5290   -1.2530    0.0012 C.ar    1  LIG1        0.1205
     15 C          -3.8767   -2.4457    0.0005 C.ar    1  LIG1        0.0883
     16 N          -2.5238   -2.1913    0.0002 N.ar    1  LIG1       -0.3478
     17 H          -1.8081   -2.8811   -0.0004 H       1  LIG1        0.1661
     18 O          -3.7520    1.0599   -0.0003 O.3     1  LIG1       -0.5034
     19 H          -4.6977    1.2250   -0.0003 H       1  LIG1        0.2923
     20 N          -6.9548   -0.9344    0.0036 N.1     1  LIG1       -0.1907
     21 C          -5.8179   -1.0837    0.0025 C.1     1  LIG1        0.1050
     22 C          -4.3398   -3.6604    0.0012 C.ar    1  LIG1        0.1081
     23 C          -3.6874   -4.8530    0.0012 C.ar    1  LIG1        0.1616
     24 C          -4.6811   -5.8841    0.0032 C.ar    1  LIG1        0.1205
     25 C          -5.8970   -5.2763    0.0027 C.ar    1  LIG1        0.0882
     26 N          -5.6927   -3.9149    0.0019 N.ar    1  LIG1       -0.3478
     27 H          -6.4084   -3.2251    0.0013 H       1  LIG1        0.1661
     28 O          -2.3984   -5.0223    0.0009 O.3     1  LIG1       -0.5034
     29 H          -1.9629   -4.1668    0.0009 H       1  LIG1        0.2923
     30 N          -4.2732   -8.2965    0.0063 N.1     1  LIG1       -0.1907
     31 C          -4.4643   -7.1660    0.0049 C.1     1  LIG1        0.1050
     32 C          -7.0939   -5.7839    0.0038 C.ar    1  LIG1        0.1076
     33 C          -8.3097   -5.1759    0.0043 C.ar    1  LIG1        0.1609
     34 C          -9.3034   -6.2070    0.0067 C.ar    1  LIG1        0.1110
     35 C          -8.6511   -7.3997    0.0060 C.ar    1  LIG1        0.0233
     36 N          -7.2982   -7.1453    0.0047 N.ar    1  LIG1       -0.3554
     37 H          -6.5825   -7.8351    0.0038 H       1  LIG1        0.1655
     38 H          -9.1142   -8.6144    0.0073 H       1  LIG1        0.0821
     39 O          -8.5264   -3.8941    0.0041 O.3     1  LIG1       -0.5034
     40 H          -9.4721   -3.7290    0.0040 H       1  LIG1        0.2923
     41 N         -11.7292   -5.8884    0.0107 N.1     1  LIG1       -0.1907
     42 C         -10.5924   -6.0377    0.0089 C.1     1  LIG1        0.1043
@<TRIPOS>BOND
     1     2     8    1
     2     2     1   ar
     3     2     3   ar
     4    17    16    1
     5    13    18    1
     6    13    12   ar
     7    13    14   ar
     8     4    12    1
     9     4     5   ar
    10     4     3   ar
    11     6     5    1
    12     8     9    1
    13    18    19    1
    14    12    16   ar
    15     5     1   ar
    16    16    15   ar
    17     1     7    1
    18     3    11    1
    19    15    14   ar
    20    15    22    1
    21    29    28    1
    22    28    23    1
    23    11    10    3
    24    23    22   ar
    25    23    24   ar
    26    14    21    1
    27    22    26   ar
    28    27    26    1
    29    26    25   ar
    30    21    20    3
    31    25    24   ar
    32    25    32    1
    33    24    31    1
    34    37    36    1
    35    32    33   ar
    36    32    36   ar
    37    40    39    1
    38    39    33    1
    39    33    34   ar
    40    36    35   ar
    41    31    30    3
    42    35    34   ar
    43    35    38    1
    44    34    42    1
    45    42    41    3
