@<TRIPOS>MOLECULE
mol_data/noopt/geoms/mol2/13fe13fe-13fe13fe-.out
 46 49 0 0 0
SMALL
GASTEIGER

@<TRIPOS>ATOM
      1 C           1.1215   -0.3259    0.0002 C.ar    1  LIG1        0.0454
      2 C           0.7176    0.9721   -0.0005 C.ar    1  LIG1        0.1501
      3 C          -0.7144    0.9744    0.0003 C.ar    1  LIG1        0.0928
      4 C          -1.1226   -0.3223   -0.0003 C.ar    1  LIG1        0.0857
      5 N          -0.0018   -1.1217    0.0001 N.ar    1  LIG1       -0.3554
      6 H          -0.0034   -2.1157   -0.0003 H       1  LIG1        0.1655
      7 H           2.3167   -0.8373    0.0007 H       1  LIG1        0.0845
      8 O           1.4918    2.0165   -0.0003 O.3     1  LIG1       -0.5040
      9 H           0.9557    2.8128   -0.0003 H       1  LIG1        0.2923
     10 C          -1.4853    2.0212    0.0010 C.1     1  LIG1       -0.0638
     11 C          -2.1976    2.9884    0.0016 C.1     1  LIG1       -0.1137
     12 H          -2.8321    3.8500    0.0022 H       1  LIG1        0.1232
     13 C          -2.3194   -0.8299   -0.0001 C.ar    1  LIG1        0.1079
     14 C          -2.7274   -2.1266   -0.0005 C.ar    1  LIG1        0.1596
     15 C          -4.1594   -2.1244    0.0011 C.ar    1  LIG1        0.0935
     16 C          -4.5635   -0.8264    0.0006 C.ar    1  LIG1        0.0862
     17 N          -3.4402   -0.0305    0.0003 N.ar    1  LIG1       -0.3478
     18 H          -3.4386    0.9635   -0.0001 H       1  LIG1        0.1661
     19 O          -1.9565   -3.1734   -0.0006 O.3     1  LIG1       -0.5034
     20 H          -1.0378   -2.8948   -0.0006 H       1  LIG1        0.2923
     21 C          -4.9336   -3.1687    0.0023 C.1     1  LIG1       -0.0638
     22 C          -5.6490   -4.1337    0.0035 C.1     1  LIG1       -0.1137
     23 H          -6.2862   -4.9932    0.0045 H       1  LIG1        0.1232
     24 C          -5.7587   -0.3150    0.0014 C.ar    1  LIG1        0.1079
     25 C          -6.1626    0.9830    0.0016 C.ar    1  LIG1        0.1596
     26 C          -7.5946    0.9853    0.0038 C.ar    1  LIG1        0.0935
     27 C          -8.0028   -0.3114    0.0030 C.ar    1  LIG1        0.0862
     28 N          -6.8820   -1.1108    0.0021 N.ar    1  LIG1       -0.3478
     29 H          -6.8836   -2.1048    0.0013 H       1  LIG1        0.1661
     30 O          -5.3884    2.0274    0.0015 O.3     1  LIG1       -0.5034
     31 H          -5.9245    2.8237    0.0015 H       1  LIG1        0.2923
     32 C          -8.3655    2.0321    0.0056 C.1     1  LIG1       -0.0638
     33 C          -9.0778    2.9993    0.0073 C.1     1  LIG1       -0.1137
     34 H          -9.7123    3.8609    0.0088 H       1  LIG1        0.1232
     35 C          -9.1996   -0.8190    0.0041 C.ar    1  LIG1        0.1074
     36 C          -9.6076   -2.1157    0.0044 C.ar    1  LIG1        0.1589
     37 C         -11.0396   -2.1135    0.0069 C.ar    1  LIG1        0.0840
     38 C         -11.4437   -0.8155    0.0063 C.ar    1  LIG1        0.0213
     39 N         -10.3204   -0.0196    0.0051 N.ar    1  LIG1       -0.3554
     40 H         -10.3188    0.9744    0.0043 H       1  LIG1        0.1655
     41 H         -12.6389   -0.3041    0.0077 H       1  LIG1        0.0820
     42 O          -8.8367   -3.1625    0.0040 O.3     1  LIG1       -0.5035
     43 H          -7.9181   -2.8839    0.0040 H       1  LIG1        0.2923
     44 C         -11.8138   -3.1578    0.0089 C.1     1  LIG1       -0.0645
     45 C         -12.5292   -4.1227    0.0107 C.1     1  LIG1       -0.1137
     46 H         -13.1664   -4.9823    0.0124 H       1  LIG1        0.1232
@<TRIPOS>BOND
     1    20    19    1
     2    19    14    1
     3     2     8    1
     4     2     1   ar
     5     2     3   ar
     6    14    13   ar
     7    14    15   ar
     8     4    13    1
     9     4     5   ar
    10     4     3   ar
    11     6     5    1
    12     8     9    1
    13    18    17    1
    14    13    17   ar
    15     5     1   ar
    16     1     7    1
    17     3    10    1
    18    17    16   ar
    19    16    15   ar
    20    16    24    1
    21    10    11    3
    22    15    21    1
    23    29    28    1
    24    24    25   ar
    25    24    28   ar
    26    31    30    1
    27    30    25    1
    28    25    26   ar
    29    11    12    1
    30    28    27   ar
    31    21    22    3
    32    27    26   ar
    33    27    35    1
    34    22    23    1
    35    26    32    1
    36    43    42    1
    37    42    36    1
    38    35    36   ar
    39    35    39   ar
    40    40    39    1
    41    36    37   ar
    42    39    38   ar
    43    32    33    3
    44    38    37   ar
    45    38    41    1
    46    37    44    1
    47    33    34    1
    48    44    45    3
    49    45    46    1
