@<TRIPOS>MOLECULE
mol_data/noopt/geoms/mol2/13fe13fe13fe-13fe.out
 46 49 0 0 0
SMALL
GASTEIGER

@<TRIPOS>ATOM
      1 C           1.1215   -0.3259    0.0002 C.ar    1  LIG1        0.0454
      2 C           0.7176    0.9721   -0.0005 C.ar    1  LIG1        0.1501
      3 C          -0.7144    0.9744    0.0003 C.ar    1  LIG1        0.0928
      4 C          -1.1226   -0.3223   -0.0003 C.ar    1  LIG1        0.0857
      5 N          -0.0018   -1.1217    0.0001 N.ar    1  LIG1       -0.3554
      6 H          -0.0034   -2.1157   -0.0003 H       1  LIG1        0.1655
      7 H           2.3167   -0.8373    0.0007 H       1  LIG1        0.0845
      8 O           1.4918    2.0165   -0.0003 O.3     1  LIG1       -0.5040
      9 H           0.9557    2.8128   -0.0003 H       1  LIG1        0.2923
     10 C          -1.4853    2.0212    0.0010 C.1     1  LIG1       -0.0638
     11 C          -2.1976    2.9884    0.0016 C.1     1  LIG1       -0.1137
     12 H          -2.8321    3.8500    0.0022 H       1  LIG1        0.1232
     13 C          -2.3194   -0.8299   -0.0001 C.ar    1  LIG1        0.1079
     14 C          -3.5353   -0.2219   -0.0003 C.ar    1  LIG1        0.1596
     15 C          -4.5290   -1.2530    0.0012 C.ar    1  LIG1        0.0935
     16 C          -3.8767   -2.4457    0.0005 C.ar    1  LIG1        0.0862
     17 N          -2.5238   -2.1913    0.0002 N.ar    1  LIG1       -0.3478
     18 H          -1.8081   -2.8811   -0.0004 H       1  LIG1        0.1661
     19 O          -3.7520    1.0599   -0.0003 O.3     1  LIG1       -0.5034
     20 H          -4.6977    1.2250   -0.0003 H       1  LIG1        0.2923
     21 C          -5.8179   -1.0837    0.0025 C.1     1  LIG1       -0.0638
     22 C          -7.0089   -0.9273    0.0037 C.1     1  LIG1       -0.1137
     23 H          -8.0698   -0.7879    0.0048 H       1  LIG1        0.1232
     24 C          -4.3398   -3.6604    0.0012 C.ar    1  LIG1        0.1079
     25 C          -3.6874   -4.8530    0.0012 C.ar    1  LIG1        0.1596
     26 C          -4.6811   -5.8841    0.0032 C.ar    1  LIG1        0.0935
     27 C          -5.8970   -5.2763    0.0027 C.ar    1  LIG1        0.0862
     28 N          -5.6927   -3.9149    0.0019 N.ar    1  LIG1       -0.3478
     29 H          -6.4084   -3.2251    0.0013 H       1  LIG1        0.1661
     30 O          -2.3984   -5.0223    0.0009 O.3     1  LIG1       -0.5034
     31 H          -1.9629   -4.1668    0.0009 H       1  LIG1        0.2923
     32 C          -4.4643   -7.1660    0.0049 C.1     1  LIG1       -0.0638
     33 C          -4.2641   -8.3503    0.0064 C.1     1  LIG1       -0.1137
     34 H          -4.0857   -9.4054    0.0077 H       1  LIG1        0.1232
     35 C          -7.0939   -5.7839    0.0038 C.ar    1  LIG1        0.1074
     36 C          -8.3097   -5.1759    0.0043 C.ar    1  LIG1        0.1589
     37 C          -9.3034   -6.2070    0.0067 C.ar    1  LIG1        0.0840
     38 C          -8.6511   -7.3997    0.0060 C.ar    1  LIG1        0.0213
     39 N          -7.2982   -7.1453    0.0047 N.ar    1  LIG1       -0.3554
     40 H          -6.5825   -7.8351    0.0038 H       1  LIG1        0.1655
     41 H          -9.1142   -8.6144    0.0073 H       1  LIG1        0.0820
     42 O          -8.5264   -3.8941    0.0041 O.3     1  LIG1       -0.5035
     43 H          -9.4721   -3.7290    0.0040 H       1  LIG1        0.2923
     44 C         -10.5924   -6.0377    0.0089 C.1     1  LIG1       -0.0645
     45 C         -11.7833   -5.8813    0.0108 C.1     1  LIG1       -0.1137
     46 H         -12.8442   -5.7420    0.0126 H       1  LIG1        0.1232
@<TRIPOS>BOND
     1     2     8    1
     2     2     1   ar
     3     2     3   ar
     4    18    17    1
     5    14    19    1
     6    14    13   ar
     7    14    15   ar
     8     4    13    1
     9     4     5   ar
    10     4     3   ar
    11     6     5    1
    12     8     9    1
    13    19    20    1
    14    13    17   ar
    15     5     1   ar
    16    17    16   ar
    17     1     7    1
    18     3    10    1
    19    16    15   ar
    20    16    24    1
    21    31    30    1
    22    30    25    1
    23    10    11    3
    24    25    24   ar
    25    25    26   ar
    26    15    21    1
    27    24    28   ar
    28    29    28    1
    29    11    12    1
    30    28    27   ar
    31    21    22    3
    32    27    26   ar
    33    27    35    1
    34    26    32    1
    35    22    23    1
    36    40    39    1
    37    35    36   ar
    38    35    39   ar
    39    43    42    1
    40    42    36    1
    41    36    37   ar
    42    39    38   ar
    43    32    33    3
    44    38    37   ar
    45    38    41    1
    46    33    34    1
    47    37    44    1
    48    44    45    3
    49    45    46    1
