@<TRIPOS>MOLECULE
mol_data/noopt/geoms/mol2/13fe4ai4fl12ah6ha13ih-13df-4fl-.out
 99 102 0 0 0
SMALL
GASTEIGER

@<TRIPOS>ATOM
      1 C           1.1215   -0.3259    0.0002 C.ar    1  LIG1        0.0454
      2 C           0.7176    0.9721   -0.0005 C.ar    1  LIG1        0.1500
      3 C          -0.7144    0.9744    0.0003 C.ar    1  LIG1        0.0912
      4 C          -1.1226   -0.3223   -0.0003 C.ar    1  LIG1        0.0657
      5 N          -0.0018   -1.1217    0.0001 N.ar    1  LIG1       -0.3566
      6 H          -0.0034   -2.1157   -0.0003 H       1  LIG1        0.1655
      7 H           2.3167   -0.8373    0.0007 H       1  LIG1        0.0845
      8 O           1.4918    2.0165   -0.0003 O.3     1  LIG1       -0.5040
      9 H           0.9557    2.8128   -0.0003 H       1  LIG1        0.2923
     10 C          -1.4853    2.0212    0.0010 C.1     1  LIG1       -0.0639
     11 C          -2.1976    2.9884    0.0016 C.1     1  LIG1       -0.1137
     12 H          -2.8321    3.8500    0.0022 H       1  LIG1        0.1232
     13 C          -3.4434    0.0212    0.0008 C.ar    1  LIG1       -0.0520
     14 C          -4.7180   -0.5776    0.0025 C.ar    1  LIG1       -0.0530
     15 C          -2.3194   -0.8299   -0.0001 C.ar    1  LIG1       -0.0001
     16 C          -4.8692   -1.9625    0.0027 C.ar    1  LIG1       -0.0113
     17 H          -5.5988    0.0606    0.0034 H       1  LIG1        0.0624
     18 C          -2.4697   -2.2124    0.0001 C.ar    1  LIG1       -0.0491
     19 C          -3.7444   -2.7884    0.0015 C.ar    1  LIG1       -0.0420
     20 H          -1.5874   -2.8474   -0.0005 H       1  LIG1        0.0627
     21 H          -3.3661    1.3189    0.0004 H       1  LIG1        0.0624
     22 C          -3.8788   -4.0817    0.0018 C.3     1  LIG1       -0.0391
     23 H          -3.0467   -4.5266    0.5064 H       1  LIG1        0.0278
     24 H          -3.9157   -4.4368   -1.0069 H       1  LIG1        0.0278
     25 H          -4.7847   -4.3460    0.5063 H       1  LIG1        0.0278
     26 C          -7.1931   -1.6414    0.0058 C.ar    1  LIG1        0.1253
     27 C          -8.4619   -2.2526    0.0089 C.ar    1  LIG1       -0.0082
     28 C          -6.0609   -2.4816    0.0042 C.ar    1  LIG1        0.0275
     29 C          -8.5996   -3.6389    0.0099 C.ar    1  LIG1        0.0329
     30 H          -9.3489   -1.6230    0.0104 H       1  LIG1        0.0661
     31 C          -6.1979   -3.8656    0.0051 C.ar    1  LIG1       -0.0031
     32 C          -7.4669   -4.4538    0.0079 C.ar    1  LIG1        0.1874
     33 H          -5.3095   -4.4920    0.0040 H       1  LIG1        0.0663
     34 O          -7.1285   -0.3430    0.0048 O.3     1  LIG1       -0.5061
     35 H          -8.0164    0.0220    0.0046 H       1  LIG1        0.2922
     36 O          -7.5888   -5.7481    0.0089 O.3     1  LIG1       -0.2872
     37 C          -8.9756   -6.0970    0.0092 C.3     2  LIG2       -0.0309
     38 H          -9.0754   -7.1623    0.0098 H       3  UNK3        0.0000
     39 H          -9.4445   -5.6943    0.8826 H       0  HOH0        0.2052
     40 H          -9.4446   -5.6954   -0.8647 H       0  HOH0        0.2052
     41 C          -9.7864   -4.1696    0.0127 C.2     1  LIG1       -0.0045
     42 C         -11.0789   -3.6880    0.0296 C.2     1  LIG1       -0.0320
     43 C         -11.9521   -4.8431    0.0216 C.2     1  LIG1        0.0337
     44 C         -11.1348   -5.9545    0.0003 C.2     1  LIG1        0.0157
     45 O          -9.7950   -5.5650   -0.0057 O.3     4  HOH4       -0.4105
     46 H         -11.4654   -2.4469    0.0491 H       1  LIG1        0.0642
     47 N         -13.2517   -4.8106    0.0327 N.pl3   1  LIG1       -0.3575
     48 H         -13.5685   -3.9859   -0.4358 H       1  LIG1        0.1423
     49 H         -13.6094   -5.6184   -0.4359 H       1  LIG1        0.1423
     50 C         -10.2214   -8.1186   -0.0232 C.ar    1  LIG1        0.1434
     51 C         -11.3210   -7.2410   -0.0150 C.ar    1  LIG1        0.0257
     52 C         -12.6072   -7.7837   -0.0233 C.ar    1  LIG1       -0.0486
     53 C         -12.7507   -9.1722   -0.0396 C.ar    1  LIG1       -0.0335
     54 C         -11.5898   -9.9671   -0.0470 C.ar    1  LIG1        0.0896
     55 N         -10.3415   -9.4603   -0.0389 N.ar    1  LIG1       -0.2287
     56 H         -13.4906   -7.1295   -0.0183 H       1  LIG1        0.0625
     57 N          -9.0046   -7.6611   -0.0159 N.pl3   1  LIG1       -0.2488
     58 H          -8.4027   -8.3071   -0.4854 H       1  LIG1        0.1715
     59 H          -8.9774   -6.7786   -0.4854 H       1  LIG1        0.0309
     60 H         -13.9266   -9.7263   -0.0481 H       1  LIG1        0.0640
     61 C         -11.6718  -11.2645   -0.0620 C.ar    1  LIG1        0.0702
     62 C         -12.7596  -12.0796   -0.0560 C.ar    1  LIG1       -0.0024
     63 C         -12.2826  -13.4296   -0.0790 C.ar    1  LIG1        0.0553
     64 C         -10.9242  -13.3801   -0.0998 C.ar    1  LIG1        0.0859
     65 N         -10.5461  -12.0564   -0.0890 N.ar    1  LIG1       -0.3501
     66 H          -9.6089  -11.7251   -0.0998 H       1  LIG1        0.1661
     67 C         -14.0030  -11.6997   -0.0321 C.3     1  LIG1       -0.0359
     68 H         -14.5905  -12.4337    0.4788 H       1  LIG1        0.0279
     69 H         -14.3618  -11.5901   -1.0342 H       1  LIG1        0.0279
     70 H         -14.0798  -10.7626    0.4787 H       1  LIG1        0.0279
     71 N         -13.0110  -14.5064   -0.0802 N.pl3   1  LIG1       -0.3561
     72 H         -13.8738  -14.3247   -0.5519 H       1  LIG1        0.1424
     73 H         -12.5212  -15.2396   -0.5520 H       1  LIG1        0.1424
     74 C         -10.0455  -14.3378   -0.1247 C.ar    1  LIG1        0.0864
     75 C         -10.2115  -15.6869   -0.1420 C.ar    1  LIG1        0.1204
     76 C          -8.9075  -16.2780   -0.1659 C.ar    1  LIG1        0.1602
     77 C          -8.0019  -15.2641   -0.1640 C.ar    1  LIG1        0.0939
     78 N          -8.6943  -14.0745   -0.1383 N.ar    1  LIG1       -0.3489
     79 H          -8.2838  -13.1693   -0.1314 H       1  LIG1        0.1661
     80 N         -12.3481  -16.8788   -0.1310 N.1     1  LIG1       -0.1907
     81 C         -11.3468  -16.3202   -0.1361 C.1     1  LIG1        0.1050
     82 O          -8.6357  -17.5492   -0.1863 O.3     1  LIG1       -0.5034
     83 H          -7.6837  -17.6732   -0.1913 H       1  LIG1        0.2923
     84 C          -6.0278  -16.5317   -0.1677 C.ar    1  LIG1        0.1263
     85 C          -4.6197  -16.5102   -0.1852 C.ar    1  LIG1       -0.0161
     86 C          -6.7024  -15.2938   -0.1807 C.ar    1  LIG1        0.0468
     87 C          -3.9126  -15.3104   -0.2150 C.ar    1  LIG1       -0.0165
     88 H          -4.0793  -17.4542   -0.1754 H       1  LIG1        0.0655
     89 C          -5.9969  -14.0957   -0.2105 C.ar    1  LIG1       -0.0072
     90 C          -4.5983  -14.0951   -0.2280 C.ar    1  LIG1        0.1209
     91 H          -6.5400  -13.1541   -0.2200 H       1  LIG1        0.0662
     92 H          -2.6128  -15.3274   -0.2307 H       1  LIG1        0.0655
     93 O          -6.6317  -17.6827   -0.1402 O.3     1  LIG1       -0.5061
     94 H          -5.9793  -18.3868   -0.1335 H       1  LIG1        0.2922
     95 O          -3.9441  -12.9719   -0.2556 O.3     1  LIG1       -0.4951
     96 C          -2.5391  -13.2380   -0.2659 C.3     1  LIG1        0.0788
     97 H          -2.0011  -12.3134   -0.2888 H       1  LIG1        0.0660
     98 H          -2.2730  -13.7837    0.6153 H       1  LIG1        0.0660
     99 H          -2.2919  -13.8161   -1.1316 H       1  LIG1        0.0660
@<TRIPOS>BOND
     1    99    96    1
     2    69    67    1
     3    24    22    1
     4    40    45    1
     5    73    71    1
     6    72    71    1
     7    59    37    1
     8    58    57    1
     9    49    47    1
    10    48    47    1
    11    97    96    1
    12    96    95    1
    13    96    98    1
    14    95    90    1
    15    92    87    1
    16    90    87   ar
    17    90    89   ar
    18    91    89    1
    19    87    85   ar
    20    89    86   ar
    21    83    82    1
    22    82    76    1
    23    85    88    1
    24    85    84   ar
    25    86    84   ar
    26    86    77    1
    27    84    93    1
    28    76    77   ar
    29    76    75   ar
    30    77    78   ar
    31    75    81    1
    32    75    74   ar
    33    93    94    1
    34    78    79    1
    35    78    74   ar
    36    81    80    3
    37    74    64    1
    38    64    65   ar
    39    64    63   ar
    40    66    65    1
    41    65    61   ar
    42    71    63    1
    43    63    62   ar
    44    61    62   ar
    45    61    54    1
    46    62    67    1
    47    60    53    1
    48    54    53   ar
    49    54    55   ar
    50    53    52   ar
    51    55    50   ar
    52    67    70    1
    53    67    68    1
    54    52    56    1
    55    52    51   ar
    56    50    57    1
    57    50    51   ar
    58    51    44    1
    59    45    39    1
    60     2     8    1
    61     2     1   ar
    62     2     3   ar
    63    20    18    1
    64     8     9    1
    65     4    15    1
    66     4     5   ar
    67     4     3   ar
    68     6     5    1
    69    15    18   ar
    70    15    13   ar
    71     5     1   ar
    72    18    19   ar
    73     1     7    1
    74    44    43    2
    75     3    10    1
    76    21    13    1
    77    13    14   ar
    78    10    11    3
    79    19    22    1
    80    19    16   ar
    81    11    12    1
    82    22    25    1
    83    22    23    1
    84    14    16   ar
    85    14    17    1
    86    16    28    1
    87    33    31    1
    88    28    31   ar
    89    28    26   ar
    90    35    34    1
    91    34    26    1
    92    31    32   ar
    93    26    27   ar
    94    32    36    1
    95    32    29   ar
    96    27    29   ar
    97    27    30    1
    98    29    41    1
    99    41    42    2
   100    43    42    1
   101    43    47    1
   102    42    46    1
