@<TRIPOS>MOLECULE
mol_data/noopt/geoms/mol2/13fe4df(350)12hf(220)4de(200).out
 48 52 0 0 0
SMALL
GASTEIGER

@<TRIPOS>ATOM
      1 C           1.1215   -0.3259    0.0002 C.2     1  LIG1        0.0335
      2 C           0.7176    0.9721   -0.0005 C.2     1  LIG1        0.1435
      3 C          -0.7144    0.9744    0.0003 C.2     1  LIG1        0.0688
      4 C          -1.1226   -0.3223   -0.0003 C.3     1  LIG1        0.1240
      5 N          -0.0018   -1.1217    0.0001 N.pl3   1  LIG1       -0.3308
      6 H          -0.0034   -2.1157   -0.0003 H       1  LIG1        0.1469
      7 H           2.3167   -0.8373    0.0007 H       1  LIG1        0.0816
      8 O           1.4918    2.0165   -0.0003 O.2     1  LIG1       -0.5046
      9 H           0.9557    2.8128   -0.0003 H       1  LIG1        0.2922
     10 C          -1.4853    2.0212    0.0010 C.1     1  LIG1       -0.0934
     11 C          -2.1976    2.9884    0.0016 C.2     1  LIG1        0.0549
     12 H          -2.8321    3.8500    0.0022 H       1  LIG1        0.0888
     13 C          -3.4362    0.0042   -0.2115 C.ar    1  LIG1       -0.0108
     14 C          -4.7112   -0.5936   -0.2005 C.ar    1  LIG1       -0.0417
     15 C          -2.3194   -0.8299   -0.0001 C.ar    1  LIG1       -0.0075
     16 C          -4.8696   -1.9614    0.0109 C.ar    1  LIG1        0.0609
     17 H          -5.5866    0.0317   -0.3614 H       1  LIG1        0.0629
     18 C          -2.4769   -2.1954    0.2109 C.ar    1  LIG1       -0.0135
     19 C          -3.7518   -2.7707    0.2179 C.ar    1  LIG1        0.1279
     20 H          -1.6001   -2.8175    0.3717 H       1  LIG1        0.0658
     21 N          -3.2778    2.4158   -0.5928 N.pl3   1  LIG1       -0.2336
     22 C          -3.3520    1.2856   -0.4141 C.3     1  LIG1        0.1376
     23 O          -3.8930   -4.0478    0.4159 O.3     1  LIG1       -0.5060
     24 H          -3.0283   -4.4620    0.4646 H       1  LIG1        0.2922
     25 C          -6.0616   -2.4802    0.0145 C.ar    1  LIG1        0.1635
     26 C          -6.6536   -3.5881   -0.5557 C.ar    1  LIG1        0.1139
     27 C          -8.0403   -3.5781   -0.1386 C.ar    1  LIG1        0.1845
     28 C          -8.2037   -2.4644    0.6592 C.ar    1  LIG1        0.1801
     29 O          -6.9977   -1.7713    0.7688 O.2     1  LIG1       -0.4490
     30 N          -6.0995   -4.4812   -1.3207 N.pl3   1  LIG1       -0.3522
     31 H          -6.7975   -4.9049   -1.8980 H       1  LIG1        0.1425
     32 H          -5.4099   -4.0441   -1.8980 H       1  LIG1        0.1425
     33 O          -8.9367   -4.4606   -0.4672 O.3     1  LIG1       -0.5020
     34 H          -8.5227   -5.3230   -0.5481 H       1  LIG1        0.2924
     35 C         -10.4583   -2.5506    1.3022 C.ar    1  LIG1        0.0626
     36 C         -11.4971   -1.9307    2.0232 C.ar    1  LIG1       -0.0425
     37 C          -9.1926   -1.9295    1.3117 C.ar    1  LIG1        0.0395
     38 C         -11.2872   -0.7453    2.7240 C.ar    1  LIG1       -0.0451
     39 H         -12.4817   -2.3930    2.0290 H       1  LIG1        0.0631
     40 C          -8.9824   -0.7460    2.0112 C.ar    1  LIG1       -0.0343
     41 C         -10.0271   -0.1458    2.7219 C.ar    1  LIG1        0.0254
     42 H          -7.9974   -0.2864    2.0032 H       1  LIG1        0.0637
     43 H         -12.2689   -0.2003    3.3792 H       1  LIG1        0.0630
     44 N         -10.9417   -4.6308    0.1085 N.1     1  LIG1       -0.1908
     45 C         -10.7151   -3.6559    0.6679 C.1     1  LIG1        0.0999
     46 C          -9.8248    0.9606    3.3738 C.1     1  LIG1       -0.0696
     47 C          -9.6378    1.9829    3.9761 C.1     1  LIG1       -0.1139
     48 H          -9.4713    2.8936    4.5127 H       1  LIG1        0.1232
@<TRIPOS>BOND
     1    32    30    1
     2    31    30    1
     3    30    26    1
     4    21    22    1
     5    21    11    1
     6    26    27   ar
     7    26    25   ar
     8    34    33    1
     9    33    27    1
    10    22    13    1
    11    17    14    1
    12    13    14   ar
    13    13    15   ar
    14    14    16   ar
    15    27    28   ar
    16     2     8    1
    17     2     1    2
    18     2     3    1
    19     8     9    1
    20     6     5    1
    21     4    15    1
    22     4     5    1
    23     4     3    1
    24    15    18   ar
    25     5     1    1
    26     1     7    1
    27     3    10    2
    28    10    11    2
    29    11    12    1
    30    16    25    1
    31    16    19   ar
    32    25    29   ar
    33    44    45    3
    34    18    19   ar
    35    18    20    1
    36    19    23    1
    37    23    24    1
    38    28    29   ar
    39    28    37    1
    40    45    35    1
    41    35    37   ar
    42    35    36   ar
    43    37    40   ar
    44    42    40    1
    45    40    41   ar
    46    36    39    1
    47    36    38   ar
    48    41    38   ar
    49    41    46    1
    50    38    43    1
    51    46    47    3
    52    47    48    1
