@<TRIPOS>MOLECULE
mol_data/noopt/geoms/mol2/13fe13fd4eh-13il.out
 52 56 0 0 0
SMALL
GASTEIGER

@<TRIPOS>ATOM
      1 C           1.1215   -0.3259    0.0002 C.ar    1  LIG1        0.0454
      2 C           0.7176    0.9721   -0.0005 C.ar    1  LIG1        0.1501
      3 C          -0.7144    0.9744    0.0003 C.ar    1  LIG1        0.0928
      4 C          -1.1226   -0.3223   -0.0003 C.ar    1  LIG1        0.0857
      5 N          -0.0018   -1.1217    0.0001 N.ar    1  LIG1       -0.3554
      6 H          -0.0034   -2.1157   -0.0003 H       1  LIG1        0.1655
      7 H           2.3167   -0.8373    0.0007 H       1  LIG1        0.0845
      8 O           1.4918    2.0165   -0.0003 O.3     1  LIG1       -0.5040
      9 H           0.9557    2.8128   -0.0003 H       1  LIG1        0.2923
     10 C          -1.4853    2.0212    0.0010 C.1     1  LIG1       -0.0638
     11 C          -2.1976    2.9884    0.0016 C.1     1  LIG1       -0.1137
     12 H          -2.8321    3.8500    0.0022 H       1  LIG1        0.1232
     13 C          -2.3194   -0.8299   -0.0001 C.ar    1  LIG1        0.1070
     14 C          -3.5352   -0.2220    0.0163 C.ar    1  LIG1        0.1495
     15 C          -4.5290   -1.2531    0.0088 C.ar    1  LIG1        0.0501
     16 C          -3.8768   -2.4456   -0.0136 C.ar    1  LIG1        0.0570
     17 N          -2.5238   -2.1911   -0.0187 N.ar    1  LIG1       -0.3497
     18 H          -1.8082   -2.8808   -0.0339 H       1  LIG1        0.1661
     19 O          -3.7519    1.0597    0.0366 O.3     1  LIG1       -0.5042
     20 H          -4.6976    1.2247    0.0416 H       1  LIG1        0.2922
     21 N          -6.9547   -0.9346    0.0312 N.pl3   1  LIG1       -0.2334
     22 C          -5.8179   -1.0839    0.0207 C.3     1  LIG1        0.1430
     23 C          -5.7322   -3.8813   -0.0137 C.2     1  LIG1        0.0276
     24 C          -6.1835   -5.2152   -0.0286 C.2     1  LIG1       -0.0390
     25 C          -4.3399   -3.6602   -0.0280 C.2     1  LIG1        0.0118
     26 C          -5.2897   -6.2834   -0.0572 C.2     1  LIG1        0.0035
     27 H          -7.2539   -5.4084   -0.0178 H       1  LIG1        0.0634
     28 C          -3.4472   -4.7262   -0.0565 C.2     1  LIG1       -0.0472
     29 C          -3.9150   -6.0443   -0.0714 C.3     1  LIG1        0.0896
     30 H          -2.3781   -4.5297   -0.0670 H       1  LIG1        0.0601
     31 C          -6.6144   -2.9268    0.0127 C.1     1  LIG1       -0.0947
     32 C          -7.4296   -2.0448    0.0371 C.2     1  LIG1        0.0551
     33 H          -8.1557   -1.2592    0.0588 H       1  LIG1        0.0888
     34 N          -3.0757   -7.0368   -0.0980 N.3     1  LIG1       -0.3158
     35 H          -3.4903   -7.8111   -0.5761 H       1  LIG1        0.1194
     36 H          -2.2433   -6.7567   -0.5761 H       1  LIG1        0.1194
     37 C          -5.7410   -7.5025   -0.0705 C.ar    1  LIG1        0.0512
     38 C          -7.0173   -7.9704   -0.0799 C.ar    1  LIG1        0.0162
     39 C          -6.9484   -9.4007   -0.0920 C.ar    1  LIG1        0.1408
     40 C          -5.6330   -9.7439   -0.0913 C.ar    1  LIG1        0.0446
     41 N          -4.8903   -8.5848   -0.0777 N.ar    1  LIG1       -0.3576
     42 H          -3.8975   -8.5370   -0.0743 H       1  LIG1        0.1654
     43 H          -5.0665  -10.9139   -0.1000 H       1  LIG1        0.0844
     44 C          -8.0991   -7.2489   -0.0767 C.3     1  LIG1       -0.0342
     45 H          -8.8796   -7.7785    0.4286 H       1  LIG1        0.0279
     46 H          -8.3979   -7.0497   -1.0847 H       1  LIG1        0.0279
     47 H          -7.9100   -6.3248    0.4285 H       1  LIG1        0.0279
     48 O          -7.9556  -10.2226   -0.1024 O.3     1  LIG1       -0.4933
     49 C          -9.1776   -9.4800   -0.1062 C.3     1  LIG1        0.0789
     50 H         -10.0063  -10.1569   -0.1149 H       1  LIG1        0.0660
     51 H          -9.2260   -8.8682    0.7703 H       1  LIG1        0.0660
     52 H          -9.2151   -8.8593   -0.9769 H       1  LIG1        0.0660
@<TRIPOS>BOND
     1    46    44    1
     2    52    49    1
     3    36    34    1
     4    35    34    1
     5    50    49    1
     6    49    48    1
     7    49    51    1
     8    48    39    1
     9    43    40    1
    10    34    29    1
    11    39    40   ar
    12    39    38   ar
    13    40    41   ar
    14    38    44    1
    15    38    37   ar
    16    41    42    1
    17    41    37   ar
    18    44    47    1
    19    44    45    1
    20    29    26    1
    21    29    28    1
    22    37    26    1
    23    30    28    1
    24    26    24    2
    25    28    25    2
    26    18    17    1
    27    24    27    1
    28    24    23    1
    29    25    23    1
    30    25    16    1
    31    17    16   ar
    32    17    13   ar
    33    23    31    2
    34    16    15   ar
    35     2     8    1
    36     2     1   ar
    37     2     3   ar
    38     4    13    1
    39     4     5   ar
    40     4     3   ar
    41     6     5    1
    42     8     9    1
    43    13    14   ar
    44     5     1   ar
    45     1     7    1
    46     3    10    1
    47    10    11    3
    48    11    12    1
    49    15    14   ar
    50    15    22    1
    51    31    32    2
    52    14    19    1
    53    22    21    1
    54    21    32    1
    55    19    20    1
    56    32    33    1
