@<TRIPOS>MOLECULE
mol_data/noopt/geoms/mol2/13fe4fh(190)4li(50)13fi(190).out
 55 58 0 0 0
SMALL
GASTEIGER

@<TRIPOS>ATOM
      1 C           1.1215   -0.3259    0.0002 C.ar    1  LIG1        0.0454
      2 C           0.7176    0.9721   -0.0005 C.ar    1  LIG1        0.1500
      3 C          -0.7144    0.9744    0.0003 C.ar    1  LIG1        0.0913
      4 C          -1.1226   -0.3223   -0.0003 C.ar    1  LIG1        0.0693
      5 N          -0.0018   -1.1217    0.0001 N.ar    1  LIG1       -0.3565
      6 H          -0.0034   -2.1157   -0.0003 H       1  LIG1        0.1655
      7 H           2.3167   -0.8373    0.0007 H       1  LIG1        0.0845
      8 O           1.4918    2.0165   -0.0003 O.3     1  LIG1       -0.5040
      9 H           0.9557    2.8128   -0.0003 H       1  LIG1        0.2923
     10 C          -1.4853    2.0212    0.0010 C.1     1  LIG1       -0.0639
     11 C          -2.1976    2.9884    0.0016 C.1     1  LIG1       -0.1137
     12 H          -2.8321    3.8500    0.0022 H       1  LIG1        0.1232
     13 C          -2.4961   -2.2124   -0.2130 C.ar    1  LIG1        0.1267
     14 C          -3.8124   -2.7130   -0.2050 C.ar    1  LIG1       -0.0099
     15 C          -2.3194   -0.8299   -0.0001 C.ar    1  LIG1        0.0428
     16 C          -4.9058   -1.8761    0.0061 C.ar    1  LIG1        0.0097
     17 H          -3.9713   -3.7767   -0.3674 H       1  LIG1        0.0661
     18 C          -3.4106    0.0061    0.2107 C.ar    1  LIG1       -0.0278
     19 C          -4.7105   -0.5103    0.2154 C.ar    1  LIG1        0.0333
     20 H          -3.2483    1.0687    0.3724 H       1  LIG1        0.0644
     21 O          -1.5163   -3.0426   -0.4150 O.3     1  LIG1       -0.5061
     22 H          -0.6898   -2.5569   -0.4647 H       1  LIG1        0.2922
     23 N          -5.7268    0.2760    0.4128 N.pl3   1  LIG1       -0.3575
     24 H          -5.5443    1.1672   -0.0025 H       1  LIG1        0.1423
     25 H          -6.5436   -0.1244   -0.0025 H       1  LIG1        0.1423
     26 C          -7.0556   -1.9138    0.9447 C.ar    1  LIG1        0.1285
     27 C          -8.3429   -2.4836    0.9058 C.ar    1  LIG1       -0.0099
     28 C          -6.1074   -2.3720    0.0072 C.ar    1  LIG1        0.0259
     29 C          -8.6739   -3.4659   -0.0249 C.ar    1  LIG1        0.0083
     30 H          -9.0897   -2.1448    1.6204 H       1  LIG1        0.0661
     31 C          -6.4374   -3.3526   -0.9221 C.ar    1  LIG1       -0.0469
     32 C          -7.7217   -3.9061   -0.9451 C.ar    1  LIG1       -0.0404
     33 H          -5.6886   -3.6892   -1.6346 H       1  LIG1        0.0628
     34 O          -6.8064   -1.0009    1.8361 O.3     1  LIG1       -0.4945
     35 C          -5.4145   -1.0206    2.1633 C.3     1  LIG1        0.0788
     36 H          -5.2098   -0.2690    2.8969 H       1  LIG1        0.0660
     37 H          -5.1537   -1.9816    2.5551 H       1  LIG1        0.0660
     38 H          -4.8383   -0.8260    1.2830 H       1  LIG1        0.0660
     39 C          -8.0244   -4.8228   -1.8163 C.3     1  LIG1       -0.0391
     40 H          -7.3838   -5.6691   -1.6807 H       1  LIG1        0.0278
     41 H          -7.8954   -4.4324   -2.8042 H       1  LIG1        0.0278
     42 H          -9.0430   -5.1211   -1.6808 H       1  LIG1        0.0278
     43 C          -9.8720   -3.9702   -0.0326 C.ar    1  LIG1        0.0891
     44 C         -10.2878   -5.2532   -0.2030 C.ar    1  LIG1        0.1449
     45 C         -11.7175   -5.2537   -0.1223 C.ar    1  LIG1        0.0089
     46 C         -12.1125   -3.9713    0.0956 C.ar    1  LIG1        0.0087
     47 N         -10.9858   -3.1821    0.1507 N.ar    1  LIG1       -0.3575
     48 H         -10.9777   -2.1994    0.2999 H       1  LIG1        0.1655
     49 H         -13.3024   -3.4680    0.2397 H       1  LIG1        0.0811
     50 O          -9.5250   -6.2866   -0.4036 O.3     1  LIG1       -0.5044
     51 H          -8.6089   -6.0039   -0.4531 H       1  LIG1        0.2922
     52 C         -12.4975   -6.2879   -0.2355 C.3     1  LIG1       -0.0348
     53 H         -12.0404   -7.1328    0.2359 H       1  LIG1        0.0279
     54 H         -12.6585   -6.5015   -1.2716 H       1  LIG1        0.0279
     55 H         -13.4355   -6.0806    0.2358 H       1  LIG1        0.0279
@<TRIPOS>BOND
     1    41    39    1
     2    39    42    1
     3    39    40    1
     4    39    32    1
     5    33    31    1
     6    54    52    1
     7    32    31   ar
     8    32    29   ar
     9    31    28   ar
    10    22    21    1
    11    51    50    1
    12    21    13    1
    13    50    44    1
    14    17    14    1
    15    52    45    1
    16    52    55    1
    17    52    53    1
    18    13    14   ar
    19    13    15   ar
    20    14    16   ar
    21    44    45   ar
    22    44    43   ar
    23    45    46   ar
    24    43    29    1
    25    43    47   ar
    26    29    27   ar
    27    25    23    1
    28    24    23    1
    29     2     8    1
    30     2     1   ar
    31     2     3   ar
    32     8     9    1
    33     6     5    1
    34     4    15    1
    35     4     5   ar
    36     4     3   ar
    37    15    18   ar
    38     5     1   ar
    39     1     7    1
    40     3    10    1
    41    10    11    3
    42    11    12    1
    43    16    28    1
    44    16    19   ar
    45    28    26   ar
    46    46    47   ar
    47    46    49    1
    48    47    48    1
    49    18    19   ar
    50    18    20    1
    51    19    23    1
    52    27    26   ar
    53    27    30    1
    54    26    34    1
    55    38    35    1
    56    34    35    1
    57    35    37    1
    58    35    36    1
