@<TRIPOS>MOLECULE
mol_data/noopt/geoms/mol2/13fe13fe-.out
 24 25 0 0 0
SMALL
GASTEIGER

@<TRIPOS>ATOM
      1 C           1.1215   -0.3259    0.0002 C.ar    1  LIG1        0.0454
      2 C           0.7176    0.9721   -0.0005 C.ar    1  LIG1        0.1501
      3 C          -0.7144    0.9744    0.0003 C.ar    1  LIG1        0.0928
      4 C          -1.1226   -0.3223   -0.0003 C.ar    1  LIG1        0.0857
      5 N          -0.0018   -1.1217    0.0001 N.ar    1  LIG1       -0.3554
      6 H          -0.0034   -2.1157   -0.0003 H       1  LIG1        0.1655
      7 H           2.3167   -0.8373    0.0007 H       1  LIG1        0.0845
      8 O           1.4918    2.0165   -0.0003 O.3     1  LIG1       -0.5040
      9 H           0.9557    2.8128   -0.0003 H       1  LIG1        0.2923
     10 C          -1.4853    2.0212    0.0010 C.1     1  LIG1       -0.0638
     11 C          -2.1976    2.9884    0.0016 C.1     1  LIG1       -0.1137
     12 H          -2.8321    3.8500    0.0022 H       1  LIG1        0.1232
     13 C          -2.3194   -0.8299   -0.0001 C.ar    1  LIG1        0.1074
     14 C          -2.7274   -2.1266   -0.0005 C.ar    1  LIG1        0.1589
     15 C          -4.1594   -2.1244    0.0011 C.ar    1  LIG1        0.0840
     16 C          -4.5635   -0.8264    0.0006 C.ar    1  LIG1        0.0213
     17 N          -3.4402   -0.0305    0.0003 N.ar    1  LIG1       -0.3554
     18 H          -3.4386    0.9635   -0.0001 H       1  LIG1        0.1655
     19 H          -5.7587   -0.3150    0.0014 H       1  LIG1        0.0820
     20 O          -1.9565   -3.1734   -0.0006 O.3     1  LIG1       -0.5035
     21 H          -1.0378   -2.8948   -0.0006 H       1  LIG1        0.2923
     22 C          -4.9336   -3.1687    0.0023 C.1     1  LIG1       -0.0645
     23 C          -5.6490   -4.1337    0.0035 C.1     1  LIG1       -0.1137
     24 H          -6.2862   -4.9932    0.0045 H       1  LIG1        0.1232
@<TRIPOS>BOND
     1    21    20    1
     2    20    14    1
     3     2     8    1
     4     2     1   ar
     5     2     3   ar
     6    14    13   ar
     7    14    15   ar
     8     4    13    1
     9     4     5   ar
    10     4     3   ar
    11     6     5    1
    12     8     9    1
    13    18    17    1
    14    13    17   ar
    15     5     1   ar
    16     1     7    1
    17     3    10    1
    18    17    16   ar
    19    16    15   ar
    20    16    19    1
    21    10    11    3
    22    15    22    1
    23    11    12    1
    24    22    23    3
    25    23    24    1
