@<TRIPOS>MOLECULE
mol_data/noopt/geoms/mol2/13fe13fe-4fe13fe.out
 48 51 0 0 0
SMALL
GASTEIGER

@<TRIPOS>ATOM
      1 C           1.1215   -0.3259    0.0002 C.ar    1  LIG1        0.0454
      2 C           0.7176    0.9721   -0.0005 C.ar    1  LIG1        0.1501
      3 C          -0.7144    0.9744    0.0003 C.ar    1  LIG1        0.0928
      4 C          -1.1226   -0.3223   -0.0003 C.ar    1  LIG1        0.0857
      5 N          -0.0018   -1.1217    0.0001 N.ar    1  LIG1       -0.3554
      6 H          -0.0034   -2.1157   -0.0003 H       1  LIG1        0.1655
      7 H           2.3167   -0.8373    0.0007 H       1  LIG1        0.0845
      8 O           1.4918    2.0165   -0.0003 O.3     1  LIG1       -0.5040
      9 H           0.9557    2.8128   -0.0003 H       1  LIG1        0.2923
     10 C          -1.4853    2.0212    0.0010 C.1     1  LIG1       -0.0638
     11 C          -2.1976    2.9884    0.0016 C.1     1  LIG1       -0.1137
     12 H          -2.8321    3.8500    0.0022 H       1  LIG1        0.1232
     13 C          -2.3194   -0.8299   -0.0001 C.ar    1  LIG1        0.1079
     14 C          -2.7274   -2.1266   -0.0005 C.ar    1  LIG1        0.1595
     15 C          -4.1594   -2.1244    0.0011 C.ar    1  LIG1        0.0920
     16 C          -4.5635   -0.8264    0.0006 C.ar    1  LIG1        0.0697
     17 N          -3.4402   -0.0305    0.0003 N.ar    1  LIG1       -0.3490
     18 H          -3.4386    0.9635   -0.0001 H       1  LIG1        0.1661
     19 O          -1.9565   -3.1734   -0.0006 O.3     1  LIG1       -0.5034
     20 H          -1.0378   -2.8948   -0.0006 H       1  LIG1        0.2923
     21 C          -4.9336   -3.1687    0.0023 C.1     1  LIG1       -0.0638
     22 C          -5.6490   -4.1337    0.0035 C.1     1  LIG1       -0.1137
     23 H          -6.2862   -4.9932    0.0045 H       1  LIG1        0.1232
     24 C          -5.9236    1.0852    0.0026 C.ar    1  LIG1        0.1267
     25 C          -7.2385    1.5895    0.0050 C.ar    1  LIG1       -0.0091
     26 C          -5.7587   -0.3150    0.0014 C.ar    1  LIG1        0.0422
     27 C          -8.3419    0.7391    0.0056 C.ar    1  LIG1        0.0208
     28 H          -7.3885    2.6668    0.0062 H       1  LIG1        0.0661
     29 C          -6.8598   -1.1644    0.0020 C.ar    1  LIG1       -0.0330
     30 C          -8.1582   -0.6442    0.0040 C.ar    1  LIG1        0.0347
     31 H          -6.7065   -2.2406    0.0011 H       1  LIG1        0.0638
     32 O          -4.9342    1.9286    0.0020 O.3     1  LIG1       -0.5061
     33 H          -5.2774    2.8251    0.0018 H       1  LIG1        0.2922
     34 C          -9.1838   -1.4431    0.0046 C.1     1  LIG1       -0.0690
     35 C         -10.1314   -2.1813    0.0053 C.1     1  LIG1       -0.1139
     36 H         -10.9755   -2.8388    0.0058 H       1  LIG1        0.1232
     37 C          -9.5420    1.2389    0.0077 C.ar    1  LIG1        0.0910
     38 C          -9.9585    2.5329    0.0088 C.ar    1  LIG1        0.1574
     39 C         -11.3904    2.5213    0.0122 C.ar    1  LIG1        0.0839
     40 C         -11.7860    1.2207    0.0113 C.ar    1  LIG1        0.0213
     41 N         -10.6575    0.4322    0.0090 N.ar    1  LIG1       -0.3566
     42 H         -10.6495   -0.5617    0.0079 H       1  LIG1        0.1655
     43 H         -12.9778    0.7015    0.0134 H       1  LIG1        0.0820
     44 O          -9.1944    3.5847    0.0084 O.3     1  LIG1       -0.5035
     45 H          -9.7382    4.3758    0.0083 H       1  LIG1        0.2923
     46 C         -12.1714    3.5606    0.0152 C.1     1  LIG1       -0.0645
     47 C         -12.8930    4.5208    0.0179 C.1     1  LIG1       -0.1137
     48 H         -13.5359    5.3762    0.0203 H       1  LIG1        0.1232
@<TRIPOS>BOND
     1    20    19    1
     2    19    14    1
     3     2     8    1
     4     2     1   ar
     5     2     3   ar
     6    14    13   ar
     7    14    15   ar
     8     4    13    1
     9     4     5   ar
    10     4     3   ar
    11     6     5    1
    12     8     9    1
    13    18    17    1
    14    13    17   ar
    15     5     1   ar
    16     1     7    1
    17     3    10    1
    18    17    16   ar
    19    16    15   ar
    20    16    26    1
    21    10    11    3
    22    15    21    1
    23    31    29    1
    24    26    29   ar
    25    26    24   ar
    26    11    12    1
    27    33    32    1
    28    32    24    1
    29    29    30   ar
    30    21    22    3
    31    24    25   ar
    32    22    23    1
    33    30    34    1
    34    30    27   ar
    35    34    35    3
    36    25    27   ar
    37    25    28    1
    38    35    36    1
    39    27    37    1
    40    37    38   ar
    41    37    41   ar
    42    42    41    1
    43    45    44    1
    44    44    38    1
    45    38    39   ar
    46    41    40   ar
    47    40    39   ar
    48    40    43    1
    49    39    46    1
    50    46    47    3
    51    47    48    1
