@<TRIPOS>MOLECULE
mol_data/noopt/geoms/mol2/13ff4aa(70)4ld(180)12dd(230).out
 46 49 0 0 0
SMALL
GASTEIGER

@<TRIPOS>ATOM
      1 C           1.1215   -0.3259    0.0002 C.ar    1  LIG1        0.0479
      2 C           0.7176    0.9721   -0.0005 C.ar    1  LIG1        0.1766
      3 C          -0.7144    0.9744    0.0003 C.ar    1  LIG1        0.1841
      4 C          -1.1226   -0.3223   -0.0003 C.ar    1  LIG1        0.0923
      5 N          -0.0018   -1.1217    0.0001 N.ar    1  LIG1       -0.3546
      6 H          -0.0034   -2.1157   -0.0003 H       1  LIG1        0.1656
      7 H           2.3167   -0.8373    0.0007 H       1  LIG1        0.0845
      8 O           1.4918    2.0165   -0.0003 O.3     1  LIG1       -0.5023
      9 H           0.9557    2.8128   -0.0003 H       1  LIG1        0.2923
     10 O          -1.4853    2.0212    0.0010 O.3     1  LIG1       -0.5019
     11 H          -2.4040    1.7426    0.0012 H       1  LIG1        0.2924
     12 C          -3.1289   -0.7198    1.1490 C.ar    1  LIG1       -0.0519
     13 C          -4.4167   -1.2875    1.0993 C.ar    1  LIG1       -0.0533
     14 C          -2.3194   -0.8299   -0.0001 C.ar    1  LIG1        0.0020
     15 C          -4.8804   -1.9360   -0.0431 C.ar    1  LIG1       -0.0143
     16 H          -5.0578   -1.2141    1.9750 H       1  LIG1        0.0624
     17 C          -2.7817   -1.4772   -1.1408 C.ar    1  LIG1       -0.0519
     18 C          -4.0644   -2.0344   -1.1707 C.ar    1  LIG1       -0.0533
     19 H          -2.1385   -1.5491   -2.0141 H       1  LIG1        0.0624
     20 H          -2.7524   -0.1271    2.2431 H       1  LIG1        0.0624
     21 H          -4.4911   -2.6385   -2.2398 H       1  LIG1        0.0624
     22 C          -6.2383   -3.8491   -0.0611 C.ar    1  LIG1        0.1285
     23 C          -7.5526   -4.3548   -0.0747 C.ar    1  LIG1       -0.0074
     24 C          -6.0749   -2.4487   -0.0543 C.ar    1  LIG1        0.0250
     25 C          -8.6569   -3.5056   -0.0807 C.ar    1  LIG1        0.0394
     26 H          -7.7014   -5.4322   -0.0804 H       1  LIG1        0.0662
     27 C          -7.1770   -1.6005   -0.0603 C.ar    1  LIG1       -0.0324
     28 C          -8.4748   -2.1221   -0.0734 C.ar    1  LIG1        0.0632
     29 H          -7.0249   -0.5241   -0.0549 H       1  LIG1        0.0638
     30 O          -5.2480   -4.6914   -0.0558 O.3     1  LIG1       -0.4945
     31 C          -5.7579   -6.0274   -0.0539 C.3     1  LIG1        0.0788
     32 H          -4.9425   -6.7203   -0.0497 H       1  LIG1        0.0660
     33 H          -6.3589   -6.1786    0.8184 H       1  LIG1        0.0660
     34 H          -6.3537   -6.1830   -0.9289 H       1  LIG1        0.0660
     35 N         -10.4065   -0.6206   -0.0842 N.1     1  LIG1       -0.1908
     36 C          -9.5012   -1.3243   -0.0791 C.1     1  LIG1        0.0999
     37 C          -9.8564   -4.0066   -0.0932 C.ar    1  LIG1        0.1547
     38 C         -10.4996   -5.0006   -0.8013 C.ar    1  LIG1        0.1147
     39 C         -11.8608   -5.0458   -0.3094 C.ar    1  LIG1        0.1074
     40 C         -11.9591   -4.0761    0.6672 C.ar    1  LIG1        0.1112
     41 O         -10.7361   -3.4218    0.8188 O.2     1  LIG1       -0.4602
     42 H         -12.9004   -3.6458    1.4537 H       1  LIG1        0.1043
     43 N          -9.5692   -6.4331   -2.5529 N.1     1  LIG1       -0.1907
     44 C         -10.0052   -5.7617   -1.7320 C.1     1  LIG1        0.1043
     45 N         -13.6099   -6.5670   -1.0921 N.1     1  LIG1       -0.1907
     46 C         -12.7902   -5.8541   -0.7253 C.1     1  LIG1        0.1036
@<TRIPOS>BOND
     1    43    44    3
     2    21    18    1
     3    19    17    1
     4    44    38    1
     5    18    17   ar
     6    18    15   ar
     7    17    14   ar
     8    45    46    3
     9    34    31    1
    10    38    39   ar
    11    38    37   ar
    12    46    39    1
    13    39    40   ar
    14    37    25    1
    15    37    41   ar
    16    35    36    3
    17    25    23   ar
    18    25    28   ar
    19    26    23    1
    20    36    28    1
    21    23    22   ar
    22    28    27   ar
    23    22    30    1
    24    22    24   ar
    25    27    29    1
    26    27    24   ar
    27    30    31    1
    28    24    15    1
    29    31    32    1
    30    31    33    1
    31    15    13   ar
    32     2     8    1
    33     2     1   ar
    34     2     3   ar
    35     4    14    1
    36     4     5   ar
    37     4     3   ar
    38     6     5    1
    39     8     9    1
    40    14    12   ar
    41     5     1   ar
    42     1     7    1
    43     3    10    1
    44    10    11    1
    45    40    41   ar
    46    40    42    1
    47    13    12   ar
    48    13    16    1
    49    12    20    1
