@<TRIPOS>MOLECULE
mol_data/noopt/geoms/mol2/13ff6fi(160)12fd(170)4ld(310).out
 49 52 0 0 0
SMALL
GASTEIGER

@<TRIPOS>ATOM
      1 C           1.1215   -0.3259    0.0002 C.ar    1  LIG1        0.0479
      2 C           0.7176    0.9721   -0.0005 C.ar    1  LIG1        0.1766
      3 C          -0.7144    0.9744    0.0003 C.ar    1  LIG1        0.1843
      4 C          -1.1226   -0.3223   -0.0003 C.ar    1  LIG1        0.0974
      5 N          -0.0018   -1.1217    0.0001 N.ar    1  LIG1       -0.3545
      6 H          -0.0034   -2.1157   -0.0003 H       1  LIG1        0.1656
      7 H           2.3167   -0.8373    0.0007 H       1  LIG1        0.0845
      8 O           1.4918    2.0165   -0.0003 O.3     1  LIG1       -0.5023
      9 H           0.9557    2.8128   -0.0003 H       1  LIG1        0.2923
     10 O          -1.4853    2.0212    0.0010 O.3     1  LIG1       -0.5019
     11 H          -2.4040    1.7426    0.0012 H       1  LIG1        0.2924
     12 C          -3.4196   -0.0574   -0.4150 C.ar    1  LIG1        0.2224
     13 C          -2.3194   -0.8299   -0.0001 C.ar    1  LIG1        0.0636
     14 C          -2.5448   -2.1457    0.4083 C.ar    1  LIG1       -0.0424
     15 C          -3.8497   -2.6411    0.3890 C.ar    1  LIG1       -0.0205
     16 C          -4.8845   -1.7910   -0.0424 C.ar    1  LIG1        0.1164
     17 N          -4.6849   -0.5192   -0.4400 N.ar    1  LIG1       -0.2090
     18 H          -1.7101   -2.7793    0.7401 H       1  LIG1        0.0629
     19 O          -3.2602    1.1728   -0.8043 O.3     1  LIG1       -0.4919
     20 H          -4.1184    1.5922   -0.9002 H       1  LIG1        0.2937
     21 C          -4.1117   -3.8596    0.7599 C.3     1  LIG1       -0.0376
     22 H          -3.2993   -4.2368    1.3451 H       1  LIG1        0.0278
     23 H          -4.2440   -4.4751   -0.1054 H       1  LIG1        0.0278
     24 H          -5.0075   -3.8695    1.3450 H       1  LIG1        0.0278
     25 C          -6.1158   -2.2064   -0.0782 C.ar    1  LIG1        0.1966
     26 C          -6.7454   -3.4279    0.0424 C.ar    1  LIG1        0.1826
     27 C          -8.1648   -3.1786   -0.0990 C.ar    1  LIG1        0.1396
     28 C          -8.3085   -1.8207   -0.2967 C.ar    1  LIG1        0.1603
     29 O          -7.0591   -1.1995   -0.2878 O.2     1  LIG1       -0.4480
     30 O          -6.1970   -4.5893    0.2436 O.3     1  LIG1       -0.5023
     31 H          -5.2435   -4.4892    0.2931 H       1  LIG1        0.2923
     32 N          -9.9270   -4.8729    0.0011 N.1     1  LIG1       -0.1906
     33 C          -9.1012   -4.0789   -0.0458 C.1     1  LIG1        0.1067
     34 C          -9.2519   -0.0486   -1.5106 C.ar    1  LIG1        0.1308
     35 C         -10.3612    0.8040   -1.6712 C.ar    1  LIG1       -0.0180
     36 C          -9.3095   -1.0127   -0.4834 C.ar    1  LIG1        0.0615
     37 C         -11.4798    0.7025   -0.8470 C.ar    1  LIG1       -0.0409
     38 H         -10.3376    1.5552   -2.4575 H       1  LIG1        0.0655
     39 C         -10.4259   -1.1144    0.3396 C.ar    1  LIG1       -0.0301
     40 C         -11.5182   -0.2585    0.1640 C.ar    1  LIG1        0.0527
     41 H         -10.4463   -1.8660    1.1247 H       1  LIG1        0.0639
     42 H         -12.4865    1.5060   -1.0234 H       1  LIG1        0.0631
     43 O          -8.2372    0.0940   -2.3106 O.3     1  LIG1       -0.4944
     44 C          -7.6770   -1.1885   -2.6044 C.3     1  LIG1        0.0788
     45 H          -6.8420   -1.0707   -3.2630 H       1  LIG1        0.0660
     46 H          -7.3525   -1.6525   -1.6964 H       1  LIG1        0.0660
     47 H          -8.4175   -1.8021   -3.0735 H       1  LIG1        0.0660
     48 N         -13.4771   -0.4460    1.6178 N.1     1  LIG1       -0.1909
     49 C         -12.5591   -0.3581    0.9365 C.1     1  LIG1        0.0992
@<TRIPOS>BOND
     1    45    44    1
     2    47    44    1
     3    44    43    1
     4    44    46    1
     5    38    35    1
     6    43    34    1
     7    35    34   ar
     8    35    37   ar
     9    34    36   ar
    10    42    37    1
    11    20    19    1
    12    37    40   ar
    13    19    12    1
    14    36    28    1
    15    36    39   ar
    16    17    12   ar
    17    17    16   ar
    18    12    13   ar
    19    28    29   ar
    20    28    27   ar
    21    29    25   ar
    22    23    21    1
    23    27    33    1
    24    27    26   ar
    25    25    16    1
    26    25    26   ar
    27    33    32    3
    28    16    15   ar
    29     2     8    1
    30     2     1   ar
    31     2     3   ar
    32     8     9    1
    33     6     5    1
    34     4    13    1
    35     4     5   ar
    36     4     3   ar
    37    13    14   ar
    38     5     1   ar
    39     1     7    1
    40     3    10    1
    41    10    11    1
    42    26    30    1
    43    40    39   ar
    44    40    49    1
    45    30    31    1
    46    39    41    1
    47    15    14   ar
    48    15    21    1
    49    14    18    1
    50    21    24    1
    51    21    22    1
    52    49    48    3
