@<TRIPOS>MOLECULE
mol_data/noopt/geoms/mol2/13ff13ff-4ff13ff.out
 44 47 0 0 0
SMALL
GASTEIGER

@<TRIPOS>ATOM
      1 C           1.1215   -0.3259    0.0002 C.ar    1  LIG1        0.0480
      2 C           0.7176    0.9721   -0.0005 C.ar    1  LIG1        0.1767
      3 C          -0.7144    0.9744    0.0003 C.ar    1  LIG1        0.1857
      4 C          -1.1226   -0.3223   -0.0003 C.ar    1  LIG1        0.1124
      5 N          -0.0018   -1.1217    0.0001 N.ar    1  LIG1       -0.3534
      6 H          -0.0034   -2.1157   -0.0003 H       1  LIG1        0.1656
      7 H           2.3167   -0.8373    0.0007 H       1  LIG1        0.0845
      8 O           1.4918    2.0165   -0.0003 O.3     1  LIG1       -0.5023
      9 H           0.9557    2.8128   -0.0003 H       1  LIG1        0.2923
     10 O          -1.4853    2.0212    0.0010 O.3     1  LIG1       -0.5019
     11 H          -2.4040    1.7426    0.0012 H       1  LIG1        0.2924
     12 C          -2.3194   -0.8299   -0.0001 C.ar    1  LIG1        0.1128
     13 C          -2.7274   -2.1266   -0.0005 C.ar    1  LIG1        0.1864
     14 C          -4.1594   -2.1244    0.0011 C.ar    1  LIG1        0.1850
     15 C          -4.5635   -0.8264    0.0006 C.ar    1  LIG1        0.0964
     16 N          -3.4402   -0.0305    0.0003 N.ar    1  LIG1       -0.3469
     17 H          -3.4386    0.9635   -0.0001 H       1  LIG1        0.1662
     18 O          -1.9565   -3.1734   -0.0006 O.3     1  LIG1       -0.5019
     19 H          -1.0378   -2.8948   -0.0006 H       1  LIG1        0.2924
     20 O          -4.9337   -3.1687    0.0023 O.3     1  LIG1       -0.5019
     21 H          -4.3975   -3.9651    0.0026 H       1  LIG1        0.2924
     22 C          -5.9236    1.0852    0.0026 C.ar    1  LIG1        0.1269
     23 C          -7.2385    1.5895    0.0050 C.ar    1  LIG1       -0.0068
     24 C          -5.7587   -0.3150    0.0014 C.ar    1  LIG1        0.0469
     25 C          -8.3419    0.7391    0.0056 C.ar    1  LIG1        0.0469
     26 H          -7.3885    2.6668    0.0062 H       1  LIG1        0.0662
     27 C          -6.8598   -1.1644    0.0020 C.ar    1  LIG1       -0.0068
     28 C          -8.1582   -0.6442    0.0040 C.ar    1  LIG1        0.1269
     29 H          -6.7065   -2.2406    0.0011 H       1  LIG1        0.0662
     30 O          -4.9342    1.9286    0.0020 O.3     1  LIG1       -0.5061
     31 H          -5.2774    2.8251    0.0018 H       1  LIG1        0.2922
     32 O          -9.1838   -1.4431    0.0046 O.3     1  LIG1       -0.5061
     33 H          -8.8805   -2.3539    0.0048 H       1  LIG1        0.2922
     34 C          -9.5420    1.2389    0.0077 C.ar    1  LIG1        0.0959
     35 C          -9.9585    2.5329    0.0088 C.ar    1  LIG1        0.1842
     36 C         -11.3904    2.5213    0.0122 C.ar    1  LIG1        0.1766
     37 C         -11.7860    1.2207    0.0113 C.ar    1  LIG1        0.0479
     38 N         -10.6575    0.4322    0.0090 N.ar    1  LIG1       -0.3546
     39 H         -10.6495   -0.5617    0.0079 H       1  LIG1        0.1656
     40 H         -12.9778    0.7015    0.0134 H       1  LIG1        0.0845
     41 O          -9.1944    3.5847    0.0084 O.3     1  LIG1       -0.5019
     42 H          -9.7382    4.3758    0.0083 H       1  LIG1        0.2924
     43 O         -12.1714    3.5606    0.0152 O.3     1  LIG1       -0.5023
     44 H         -13.0874    3.2731    0.0159 H       1  LIG1        0.2923
@<TRIPOS>BOND
     1    19    18    1
     2    18    13    1
     3     2     8    1
     4     2     1   ar
     5     2     3   ar
     6    13    12   ar
     7    13    14   ar
     8     4    12    1
     9     4     5   ar
    10     4     3   ar
    11     6     5    1
    12     8     9    1
    13    17    16    1
    14    12    16   ar
    15     5     1   ar
    16     1     7    1
    17     3    10    1
    18    16    15   ar
    19    15    14   ar
    20    15    24    1
    21    10    11    1
    22    14    20    1
    23    29    27    1
    24    24    27   ar
    25    24    22   ar
    26    31    30    1
    27    30    22    1
    28    27    28   ar
    29    20    21    1
    30    22    23   ar
    31    28    32    1
    32    28    25   ar
    33    32    33    1
    34    23    25   ar
    35    23    26    1
    36    25    34    1
    37    34    35   ar
    38    34    38   ar
    39    39    38    1
    40    42    41    1
    41    41    35    1
    42    35    36   ar
    43    38    37   ar
    44    37    36   ar
    45    37    40    1
    46    36    43    1
    47    43    44    1
