@<TRIPOS>MOLECULE
mol_data/noopt/geoms/mol2/13ff4fd-12fi13de-.out
 46 49 0 0 0
SMALL
GASTEIGER

@<TRIPOS>ATOM
      1 C           1.1215   -0.3259    0.0002 C.ar    1  LIG1        0.0479
      2 C           0.7176    0.9721   -0.0005 C.ar    1  LIG1        0.1766
      3 C          -0.7144    0.9744    0.0003 C.ar    1  LIG1        0.1842
      4 C          -1.1226   -0.3223   -0.0003 C.ar    1  LIG1        0.0958
      5 N          -0.0018   -1.1217    0.0001 N.ar    1  LIG1       -0.3546
      6 H          -0.0034   -2.1157   -0.0003 H       1  LIG1        0.1656
      7 H           2.3167   -0.8373    0.0007 H       1  LIG1        0.0845
      8 O           1.4918    2.0165   -0.0003 O.3     1  LIG1       -0.5023
      9 H           0.9557    2.8128   -0.0003 H       1  LIG1        0.2923
     10 O          -1.4853    2.0212    0.0010 O.3     1  LIG1       -0.5019
     11 H          -2.4040    1.7426    0.0012 H       1  LIG1        0.2924
     12 C          -3.4433    0.0211    0.0221 C.ar    1  LIG1        0.1268
     13 C          -4.7179   -0.5778    0.0229 C.ar    1  LIG1       -0.0075
     14 C          -2.3194   -0.8299   -0.0001 C.ar    1  LIG1        0.0446
     15 C          -4.8691   -1.9625    0.0019 C.ar    1  LIG1        0.0418
     16 H          -5.5986    0.0603    0.0400 H       1  LIG1        0.0662
     17 C          -2.4698   -2.2123   -0.0211 C.ar    1  LIG1       -0.0309
     18 C          -3.7445   -2.7882   -0.0203 C.ar    1  LIG1        0.0634
     19 H          -1.5876   -2.8471   -0.0379 H       1  LIG1        0.0638
     20 O          -3.3660    1.3186    0.0420 O.3     1  LIG1       -0.5061
     21 H          -4.2503    1.6923    0.0469 H       1  LIG1        0.2922
     22 N          -3.9975   -5.2214   -0.0570 N.1     1  LIG1       -0.1908
     23 C          -3.8789   -4.0811   -0.0398 C.1     1  LIG1        0.0999
     24 C          -6.0610   -2.4817    0.0032 C.ar    1  LIG1        0.1785
     25 C          -7.3488   -1.9876    0.0190 C.ar    1  LIG1        0.1663
     26 C          -8.2332   -3.1342    0.0095 C.ar    1  LIG1        0.0389
     27 C          -7.4266   -4.2535   -0.0115 C.ar    1  LIG1        0.1596
     28 O          -6.0831   -3.8770   -0.0159 O.2     1  LIG1       -0.4492
     29 O          -7.7233   -0.7428    0.0386 O.3     1  LIG1       -0.5030
     30 H          -8.6822   -0.6967    0.0435 H       1  LIG1        0.2923
     31 C          -9.5327   -3.0891    0.0192 C.3     1  LIG1       -0.0325
     32 H          -9.9157   -3.9500    0.5263 H       1  LIG1        0.0280
     33 H          -9.8967   -3.0766   -0.9869 H       1  LIG1        0.0280
     34 H          -9.8550   -2.2037    0.5263 H       1  LIG1        0.0280
     35 C          -7.6252   -5.5381   -0.0276 C.ar    1  LIG1        0.1013
     36 C          -8.7822   -6.2518   -0.0223 C.ar    1  LIG1        0.0953
     37 C          -8.4289   -7.6393   -0.0463 C.ar    1  LIG1        0.0600
     38 C          -7.0716   -7.7125   -0.0670 C.ar    1  LIG1        0.0190
     39 N          -6.5755   -6.4283   -0.0552 N.ar    1  LIG1       -0.3561
     40 H          -5.6124   -6.1829   -0.0656 H       1  LIG1        0.1655
     41 H          -6.2828   -8.7455   -0.0927 H       1  LIG1        0.0820
     42 N         -11.0476   -5.3289    0.0231 N.1     1  LIG1       -0.1908
     43 C          -9.9859   -5.7614    0.0019 C.1     1  LIG1        0.1026
     44 C          -9.2514   -8.6461   -0.0485 C.1     1  LIG1       -0.0669
     45 C         -10.0113   -9.5763   -0.0505 C.1     1  LIG1       -0.1138
     46 H         -10.6883  -10.4049   -0.0523 H       1  LIG1        0.1232
@<TRIPOS>BOND
     1    33    31    1
     2    41    38    1
     3    38    39   ar
     4    38    37   ar
     5    40    39    1
     6    22    23    3
     7    39    35   ar
     8    46    45    1
     9    45    44    3
    10    44    37    1
    11    37    36   ar
    12    23    18    1
    13    19    17    1
    14    35    36   ar
    15    35    27    1
    16    36    43    1
    17    17    18   ar
    18    17    14   ar
    19    18    15   ar
    20    28    27   ar
    21    28    24   ar
    22    27    26   ar
    23     2     8    1
    24     2     1   ar
    25     2     3   ar
    26     6     5    1
    27     4    14    1
    28     4     5   ar
    29     4     3   ar
    30     8     9    1
    31    14    12   ar
    32     5     1   ar
    33     1     7    1
    34     3    10    1
    35    10    11    1
    36    43    42    3
    37    15    24    1
    38    15    13   ar
    39    24    25   ar
    40    26    25   ar
    41    26    31    1
    42    25    29    1
    43    31    34    1
    44    31    32    1
    45    12    13   ar
    46    12    20    1
    47    13    16    1
    48    29    30    1
    49    20    21    1
