@<TRIPOS>MOLECULE
mol_data/noopt/geoms/mol2/13ff12di(60)12ef(30)13de(30).out
 44 47 0 0 0
SMALL
GASTEIGER

@<TRIPOS>ATOM
      1 C           1.1215   -0.3259    0.0002 C.ar    1  LIG1        0.0480
      2 C           0.7176    0.9721   -0.0005 C.ar    1  LIG1        0.1767
      3 C          -0.7144    0.9744    0.0003 C.ar    1  LIG1        0.1872
      4 C          -1.1226   -0.3223   -0.0003 C.ar    1  LIG1        0.1291
      5 N          -0.0018   -1.1217    0.0001 N.ar    1  LIG1       -0.3522
      6 H          -0.0034   -2.1157   -0.0003 H       1  LIG1        0.1656
      7 H           2.3167   -0.8373    0.0007 H       1  LIG1        0.0845
      8 O           1.4918    2.0165   -0.0003 O.3     1  LIG1       -0.5023
      9 H           0.9557    2.8128   -0.0003 H       1  LIG1        0.2923
     10 O          -1.4853    2.0212    0.0010 O.3     1  LIG1       -0.5018
     11 H          -2.4040    1.7426    0.0012 H       1  LIG1        0.2924
     12 C          -2.3194   -0.8299   -0.0001 C.ar    1  LIG1        0.1732
     13 C          -3.4325   -0.7237    0.8078 C.ar    1  LIG1        0.1026
     14 C          -4.4505   -1.5728    0.2251 C.ar    1  LIG1        0.0165
     15 C          -3.8918   -2.1417   -0.9008 C.ar    1  LIG1        0.1762
     16 O          -2.5783   -1.6990   -1.0609 O.2     1  LIG1       -0.4485
     17 N          -3.6877    0.6201    2.8364 N.1     1  LIG1       -0.1907
     18 C          -3.5681   -0.0097    1.8857 C.1     1  LIG1        0.1033
     19 C          -5.6511   -1.7470    0.6933 C.3     1  LIG1       -0.0348
     20 H          -5.6753   -2.6333    1.2923 H       1  LIG1        0.0279
     21 H          -6.3398   -1.8470   -0.1195 H       1  LIG1        0.0279
     22 H          -5.9261   -0.9040    1.2922 H       1  LIG1        0.0279
     23 C          -4.2958   -2.9697   -1.8179 C.ar    1  LIG1        0.1899
     24 C          -5.5124   -3.4943   -2.2022 C.ar    1  LIG1        0.1156
     25 C          -5.2494   -4.3758   -3.3206 C.ar    1  LIG1        0.1806
     26 C          -3.8888   -4.3313   -3.5456 C.ar    1  LIG1        0.1956
     27 O          -3.2790   -3.4710   -2.6319 O.2     1  LIG1       -0.4451
     28 C          -6.6801   -3.2607   -1.6808 C.1     1  LIG1       -0.0621
     29 C          -7.7590   -3.0448   -1.1989 C.1     1  LIG1       -0.1137
     30 H          -8.7201   -2.8525   -0.7697 H       1  LIG1        0.1232
     31 O          -6.1415   -5.0641   -3.9690 O.3     1  LIG1       -0.5023
     32 H          -5.8087   -5.9502   -4.1288 H       1  LIG1        0.2923
     33 C          -3.0705   -4.8896   -4.3874 C.ar    1  LIG1        0.1046
     34 C          -2.7708   -6.2001   -4.5890 C.ar    1  LIG1        0.0954
     35 C          -1.8020   -6.2603   -5.6418 C.ar    1  LIG1        0.0600
     36 C          -1.5535   -4.9840   -6.0384 C.ar    1  LIG1        0.0190
     37 N          -2.3277   -4.1416   -5.2728 N.ar    1  LIG1       -0.3560
     38 H          -2.3476   -3.1507   -5.3478 H       1  LIG1        0.1655
     39 H          -0.7548   -4.5264   -6.9564 H       1  LIG1        0.0820
     40 N          -3.7147   -8.1007   -3.3713 N.1     1  LIG1       -0.1908
     41 C          -3.2724   -7.2100   -3.9419 C.1     1  LIG1        0.1026
     42 C          -1.2585   -7.3352   -6.1310 C.1     1  LIG1       -0.0669
     43 C          -0.7563   -8.3283   -6.5830 C.1     1  LIG1       -0.1138
     44 H          -0.3089   -9.2130   -6.9856 H       1  LIG1        0.1232
@<TRIPOS>BOND
     1    44    43    1
     2    39    36    1
     3    43    42    3
     4    42    35    1
     5    36    35   ar
     6    36    37   ar
     7    35    34   ar
     8    38    37    1
     9    37    33   ar
    10    34    33   ar
    11    34    41    1
    12    33    26    1
    13    32    31    1
    14    31    25    1
    15    41    40    3
    16    26    25   ar
    17    26    27   ar
    18    25    24   ar
    19    27    23   ar
    20    24    23   ar
    21    24    28    1
    22    23    15    1
    23    28    29    3
    24    29    30    1
    25    16    15   ar
    26    16    12   ar
    27    15    14   ar
    28    21    19    1
    29     2     8    1
    30     2     1   ar
    31     2     3   ar
    32     8     9    1
    33     6     5    1
    34     4    12    1
    35     4     5   ar
    36     4     3   ar
    37    12    13   ar
    38     5     1   ar
    39     1     7    1
    40     3    10    1
    41    10    11    1
    42    14    19    1
    43    14    13   ar
    44    19    22    1
    45    19    20    1
    46    13    18    1
    47    18    17    3
