@<TRIPOS>MOLECULE
mol_data/noopt/geoms/mol2/13ff13ff-13ff.out
 32 34 0 0 0
SMALL
GASTEIGER

@<TRIPOS>ATOM
      1 C           1.1215   -0.3259    0.0002 C.ar    1  LIG1        0.0480
      2 C           0.7176    0.9721   -0.0005 C.ar    1  LIG1        0.1767
      3 C          -0.7144    0.9744    0.0003 C.ar    1  LIG1        0.1857
      4 C          -1.1226   -0.3223   -0.0003 C.ar    1  LIG1        0.1124
      5 N          -0.0018   -1.1217    0.0001 N.ar    1  LIG1       -0.3534
      6 H          -0.0034   -2.1157   -0.0003 H       1  LIG1        0.1656
      7 H           2.3167   -0.8373    0.0007 H       1  LIG1        0.0845
      8 O           1.4918    2.0165   -0.0003 O.3     1  LIG1       -0.5023
      9 H           0.9557    2.8128   -0.0003 H       1  LIG1        0.2923
     10 O          -1.4853    2.0212    0.0010 O.3     1  LIG1       -0.5019
     11 H          -2.4040    1.7426    0.0012 H       1  LIG1        0.2924
     12 C          -2.3194   -0.8299   -0.0001 C.ar    1  LIG1        0.1129
     13 C          -2.7274   -2.1266   -0.0005 C.ar    1  LIG1        0.1864
     14 C          -4.1594   -2.1244    0.0011 C.ar    1  LIG1        0.1864
     15 C          -4.5635   -0.8264    0.0006 C.ar    1  LIG1        0.1129
     16 N          -3.4402   -0.0305    0.0003 N.ar    1  LIG1       -0.3458
     17 H          -3.4386    0.9635   -0.0001 H       1  LIG1        0.1662
     18 O          -1.9565   -3.1734   -0.0006 O.3     1  LIG1       -0.5019
     19 H          -1.0378   -2.8948   -0.0006 H       1  LIG1        0.2924
     20 O          -4.9337   -3.1687    0.0023 O.3     1  LIG1       -0.5019
     21 H          -4.3975   -3.9651    0.0026 H       1  LIG1        0.2924
     22 C          -5.7587   -0.3150    0.0014 C.ar    1  LIG1        0.1124
     23 C          -6.1626    0.9830    0.0016 C.ar    1  LIG1        0.1857
     24 C          -7.5946    0.9853    0.0038 C.ar    1  LIG1        0.1767
     25 C          -8.0028   -0.3114    0.0030 C.ar    1  LIG1        0.0480
     26 N          -6.8820   -1.1108    0.0021 N.ar    1  LIG1       -0.3534
     27 H          -6.8836   -2.1048    0.0013 H       1  LIG1        0.1656
     28 H          -9.1996   -0.8190    0.0041 H       1  LIG1        0.0845
     29 O          -5.3884    2.0274    0.0015 O.3     1  LIG1       -0.5019
     30 H          -5.9245    2.8237    0.0015 H       1  LIG1        0.2924
     31 O          -8.3655    2.0321    0.0056 O.3     1  LIG1       -0.5023
     32 H          -9.2842    1.7535    0.0060 H       1  LIG1        0.2923
@<TRIPOS>BOND
     1    19    18    1
     2    18    13    1
     3     2     8    1
     4     2     1   ar
     5     2     3   ar
     6    13    12   ar
     7    13    14   ar
     8     4    12    1
     9     4     5   ar
    10     4     3   ar
    11     6     5    1
    12     8     9    1
    13    17    16    1
    14    12    16   ar
    15     5     1   ar
    16     1     7    1
    17     3    10    1
    18    16    15   ar
    19    15    14   ar
    20    15    22    1
    21    10    11    1
    22    14    20    1
    23    27    26    1
    24    22    23   ar
    25    22    26   ar
    26    30    29    1
    27    29    23    1
    28    23    24   ar
    29    26    25   ar
    30    20    21    1
    31    25    24   ar
    32    25    28    1
    33    24    31    1
    34    31    32    1
