@<TRIPOS>MOLECULE
mol_data/noopt/geoms/mol2/13ff12hf(70)13lh(70)4dd(20).out
 48 51 0 0 0
SMALL
GASTEIGER

@<TRIPOS>ATOM
      1 C           1.1215   -0.3259    0.0002 C.ar    1  LIG1        0.0480
      2 C           0.7176    0.9721   -0.0005 C.ar    1  LIG1        0.1767
      3 C          -0.7144    0.9744    0.0003 C.ar    1  LIG1        0.1873
      4 C          -1.1226   -0.3223   -0.0003 C.ar    1  LIG1        0.1298
      5 N          -0.0018   -1.1217    0.0001 N.ar    1  LIG1       -0.3522
      6 H          -0.0034   -2.1157   -0.0003 H       1  LIG1        0.1656
      7 H           2.3167   -0.8373    0.0007 H       1  LIG1        0.0845
      8 O           1.4918    2.0165   -0.0003 O.3     1  LIG1       -0.5023
      9 H           0.9557    2.8128   -0.0003 H       1  LIG1        0.2923
     10 O          -1.4853    2.0212    0.0010 O.3     1  LIG1       -0.5018
     11 H          -2.4040    1.7426    0.0012 H       1  LIG1        0.2924
     12 C          -2.3194   -0.8299   -0.0001 C.ar    1  LIG1        0.1798
     13 C          -3.3695   -0.8721    0.8935 C.ar    1  LIG1        0.1154
     14 C          -4.4330   -1.6141    0.2490 C.ar    1  LIG1        0.1861
     15 C          -3.9620   -1.9762   -0.9963 C.ar    1  LIG1        0.1986
     16 O          -2.6610   -1.5041   -1.1733 O.2     1  LIG1       -0.4459
     17 N          -3.4211   -0.3560    2.0856 N.pl3   1  LIG1       -0.3521
     18 H          -2.6649    0.2876    2.2031 H       1  LIG1        0.1425
     19 H          -4.2898    0.1252    2.2032 H       1  LIG1        0.1425
     20 O          -5.5969   -1.8742    0.7666 O.3     1  LIG1       -0.5019
     21 H          -5.6863   -2.8215    0.8942 H       1  LIG1        0.2924
     22 C          -4.4375   -2.6357   -2.0106 C.ar    1  LIG1        0.1303
     23 C          -5.5080   -3.4690   -2.0973 C.ar    1  LIG1        0.1696
     24 C          -5.5835   -3.9289   -3.4513 C.ar    1  LIG1        0.0933
     25 C          -4.5568   -3.3551   -4.1330 C.ar    1  LIG1        0.0729
     26 N          -3.8524   -2.5629   -3.2546 N.ar    1  LIG1       -0.3472
     27 H          -3.0493   -2.0235   -3.4826 H       1  LIG1        0.1662
     28 O          -6.3120   -3.7885   -1.1269 O.3     1  LIG1       -0.4910
     29 C          -7.1050   -2.6531   -0.7707 C.3     1  LIG1        0.0790
     30 H          -7.7667   -2.9165    0.0278 H       1  LIG1        0.0660
     31 H          -6.4649   -1.8558   -0.4552 H       1  LIG1        0.0660
     32 H          -7.6768   -2.3373   -1.6182 H       1  LIG1        0.0660
     33 N          -6.4691   -4.7443   -3.9421 N.pl3   1  LIG1       -0.3535
     34 H          -7.1183   -4.2322   -4.5044 H       1  LIG1        0.1425
     35 H          -6.0123   -5.4335   -4.5044 H       1  LIG1        0.1425
     36 C          -3.9741   -4.7364   -5.9375 C.ar    1  LIG1        0.0610
     37 C          -3.5973   -4.7992   -7.2930 C.ar    1  LIG1       -0.0425
     38 C          -4.2083   -3.4624   -5.3807 C.ar    1  LIG1        0.0188
     39 C          -3.4599   -3.6459   -8.0622 C.ar    1  LIG1       -0.0431
     40 H          -3.4115   -5.7721   -7.7426 H       1  LIG1        0.0631
     41 C          -4.0713   -2.3108   -6.1482 C.ar    1  LIG1       -0.0339
     42 C          -3.6966   -2.3939   -7.4932 C.ar    1  LIG1        0.0525
     43 H          -4.2575   -1.3400   -5.6958 H       1  LIG1        0.0637
     44 H          -3.1106   -3.7407   -9.3109 H       1  LIG1        0.0631
     45 N          -4.1851   -6.8266   -4.6836 N.1     1  LIG1       -0.1908
     46 C          -4.0862   -5.8470   -5.2712 C.1     1  LIG1        0.0998
     47 N          -3.4582   -0.3614   -8.8341 N.1     1  LIG1       -0.1909
     48 C          -3.5699   -1.3139   -8.2057 C.1     1  LIG1        0.0992
@<TRIPOS>BOND
     1    44    39    1
     2    47    48    3
     3    48    42    1
     4    39    42   ar
     5    39    37   ar
     6    40    37    1
     7    42    41   ar
     8    37    36   ar
     9    41    43    1
    10    41    38   ar
    11    36    38   ar
    12    36    46    1
    13    38    25    1
    14    46    45    3
    15    35    33    1
    16    34    33    1
    17    25    24   ar
    18    25    26   ar
    19    33    24    1
    20    27    26    1
    21    24    23   ar
    22    26    22   ar
    23    23    22   ar
    24    23    28    1
    25    22    15    1
    26    32    29    1
    27    16    15   ar
    28    16    12   ar
    29    28    29    1
    30    15    14   ar
    31    29    31    1
    32    29    30    1
    33     2     8    1
    34     2     1   ar
    35     2     3   ar
    36     4    12    1
    37     4     5   ar
    38     4     3   ar
    39     6     5    1
    40     8     9    1
    41    12    13   ar
    42     5     1   ar
    43     1     7    1
    44     3    10    1
    45    10    11    1
    46    14    20    1
    47    14    13   ar
    48    20    21    1
    49    13    17    1
    50    17    18    1
    51    17    19    1
