@<TRIPOS>MOLECULE
mol_data/noopt/geoms/mol2/13ff13ff13ff.out
 32 34 0 0 0
SMALL
GASTEIGER

@<TRIPOS>ATOM
      1 C           1.1215   -0.3259    0.0002 C.ar    1  LIG1        0.0480
      2 C           0.7176    0.9721   -0.0005 C.ar    1  LIG1        0.1767
      3 C          -0.7144    0.9744    0.0003 C.ar    1  LIG1        0.1857
      4 C          -1.1226   -0.3223   -0.0003 C.ar    1  LIG1        0.1124
      5 N          -0.0018   -1.1217    0.0001 N.ar    1  LIG1       -0.3534
      6 H          -0.0034   -2.1157   -0.0003 H       1  LIG1        0.1656
      7 H           2.3167   -0.8373    0.0007 H       1  LIG1        0.0845
      8 O           1.4918    2.0165   -0.0003 O.3     1  LIG1       -0.5023
      9 H           0.9557    2.8128   -0.0003 H       1  LIG1        0.2923
     10 O          -1.4853    2.0212    0.0010 O.3     1  LIG1       -0.5019
     11 H          -2.4040    1.7426    0.0012 H       1  LIG1        0.2924
     12 C          -2.3194   -0.8299   -0.0001 C.ar    1  LIG1        0.1129
     13 C          -3.5353   -0.2219   -0.0003 C.ar    1  LIG1        0.1864
     14 C          -4.5290   -1.2530    0.0012 C.ar    1  LIG1        0.1864
     15 C          -3.8767   -2.4457    0.0005 C.ar    1  LIG1        0.1129
     16 N          -2.5238   -2.1913    0.0002 N.ar    1  LIG1       -0.3458
     17 H          -1.8081   -2.8811   -0.0004 H       1  LIG1        0.1662
     18 O          -3.7520    1.0599   -0.0003 O.3     1  LIG1       -0.5019
     19 H          -4.6977    1.2250   -0.0003 H       1  LIG1        0.2924
     20 O          -5.8180   -1.0837    0.0025 O.3     1  LIG1       -0.5019
     21 H          -6.2535   -1.9392    0.0028 H       1  LIG1        0.2924
     22 C          -4.3398   -3.6604    0.0012 C.ar    1  LIG1        0.1124
     23 C          -5.6206   -4.1160    0.0013 C.ar    1  LIG1        0.1857
     24 C          -5.5655   -5.5470    0.0033 C.ar    1  LIG1        0.1767
     25 C          -4.2535   -5.9029    0.0026 C.ar    1  LIG1        0.0480
     26 N          -3.4996   -4.7510    0.0018 N.ar    1  LIG1       -0.3534
     27 H          -2.5064   -4.7127    0.0010 H       1  LIG1        0.1656
     28 H          -3.6983   -7.0784    0.0036 H       1  LIG1        0.0845
     29 O          -6.6951   -3.3843    0.0012 O.3     1  LIG1       -0.5019
     30 H          -7.4693   -3.9519    0.0012 H       1  LIG1        0.2924
     31 O          -6.5806   -6.3592    0.0050 O.3     1  LIG1       -0.5023
     32 H          -6.2653   -7.2660    0.0054 H       1  LIG1        0.2923
@<TRIPOS>BOND
     1     2     8    1
     2     2     1   ar
     3     2     3   ar
     4    17    16    1
     5    13    18    1
     6    13    12   ar
     7    13    14   ar
     8     4    12    1
     9     4     5   ar
    10     4     3   ar
    11     6     5    1
    12     8     9    1
    13    18    19    1
    14    12    16   ar
    15     5     1   ar
    16    16    15   ar
    17     1     7    1
    18     3    10    1
    19    15    14   ar
    20    15    22    1
    21    27    26    1
    22    10    11    1
    23    14    20    1
    24    22    23   ar
    25    22    26   ar
    26    30    29    1
    27    29    23    1
    28    23    24   ar
    29    26    25   ar
    30    20    21    1
    31    25    24   ar
    32    25    28    1
    33    24    31    1
    34    31    32    1
