@<TRIPOS>MOLECULE
mol_data/noopt/geoms/mol2/13fg13fg-13fg13fg-.out
 42 42 0 0 0
SMALL
GASTEIGER

@<TRIPOS>ATOM
      1 C           1.1215   -0.3259    0.0002 C.2     1  LIG1        0.0370
      2 C           0.7176    0.9721   -0.0005 C.2     1  LIG1        0.1465
      3 C          -0.7144    0.9744    0.0003 C.2     1  LIG1        0.0841
      4 C          -1.1226   -0.3223   -0.0003 C.2     1  LIG1        0.0672
      5 N          -0.0018   -1.1217    0.0001 N.pl3   1  LIG1       -0.3154
      6 H          -0.0034   -2.1157   -0.0003 H       1  LIG1        0.1518
      7 H           2.3167   -0.8373    0.0007 H       1  LIG1        0.0819
      8 O           1.4918    2.0165   -0.0003 O.2     1  LIG1       -0.5043
      9 H           0.9557    2.8128   -0.0003 H       1  LIG1        0.2922
     10 S          -1.4853    2.0211    0.0010 S.2     1  LIG1       -0.0462
     11 H          -2.7389    1.6410    0.0012 H       0  HOH0        0.2052
     12 C          -2.3194   -0.8299   -0.0001 C.2     1  LIG1        0.0445
     13 C          -3.5353   -0.2219   -0.0003 C.3     1  LIG1        0.0771
     14 C          -4.5290   -1.2530    0.0012 C.2     1  LIG1        0.0334
     15 C          -3.8767   -2.4457    0.0005 C.2     1  LIG1        0.0604
     16 N          -2.5238   -2.1913    0.0002 N.pl3   1  LIG1       -0.3137
     17 H          -1.8081   -2.8811   -0.0004 H       1  LIG1        0.1520
     18 O          -3.7520    1.0599   -0.0003 O.3     2  HOH2       -0.4105
     19 H          -4.6977    1.2250   -0.0003 H       0  HOH0        0.2052
     20 S          -5.8179   -1.0837    0.0025 S.2     1  LIG1       -0.0537
     21 H          -6.4122   -2.2511    0.0029 H       0  HOH0        0.2052
     22 C          -4.3398   -3.6604    0.0012 C.2     1  LIG1        0.0406
     23 C          -5.6206   -4.1160    0.0013 C.3     1  LIG1        0.0731
     24 C          -5.5655   -5.5470    0.0033 C.2     1  LIG1        0.0203
     25 C          -4.2535   -5.9029    0.0026 C.3     1  LIG1        0.1333
     26 N          -3.4996   -4.7510    0.0018 N.pl3   1  LIG1       -0.3280
     27 H          -2.5064   -4.7127    0.0010 H       1  LIG1        0.1472
     28 O          -6.6951   -3.3843    0.0012 O.3     3  HOH3       -0.4105
     29 H          -7.4693   -3.9519    0.0012 H       0  HOH0        0.2052
     30 S          -6.5805   -6.3592    0.0050 S.2     1  LIG1       -0.0576
     31 H          -6.1504   -7.5965    0.0056 H       0  HOH0        0.2052
     32 C          -3.6983   -7.0784    0.0036 C.ar    1  LIG1        0.0563
     33 C          -4.2571   -8.3176    0.0039 C.ar    1  LIG1        0.0212
     34 C          -3.1870   -9.2693    0.0063 C.ar    1  LIG1        0.0302
     35 C          -2.0214   -8.5697    0.0055 C.ar    1  LIG1        0.0158
     36 N          -2.3298   -7.2280    0.0043 N.ar    1  LIG1       -0.3609
     37 H          -1.6693   -6.4852    0.0035 H       1  LIG1        0.1651
     38 H          -0.7891   -8.9837    0.0068 H       1  LIG1        0.0818
     39 O          -5.5292   -8.5856    0.0038 O.3     4  HOH4       -0.4105
     40 H          -5.6562   -9.5371    0.0037 H       0  HOH0        0.2052
     41 S          -3.3045  -10.5639    0.0083 S.3     1  LIG1       -0.1406
     42 H          -2.1142  -11.1110    0.0090 H       1  LIG1        0.1072
@<TRIPOS>BOND
     1     2     8    1
     2     2     1    2
     3     2     3    1
     4    17    16    1
     5    13    12    1
     6    13    14    1
     7     4    12    2
     8     4     5    1
     9     4     3    1
    10     6     5    1
    11     8     9    1
    12    18    19    1
    13    18    11    1
    14    12    16    1
    15     5     1    1
    16    16    15    1
    17     1     7    1
    18     3    10    2
    19    15    14    1
    20    15    22    2
    21    27    26    1
    22    14    20    2
    23    22    23    1
    24    22    26    1
    25    29    28    1
    26    28    21    1
    27    23    24    1
    28    26    25    1
    29    25    24    1
    30    25    32    1
    31    24    30    2
    32    37    36    1
    33    32    33   ar
    34    32    36   ar
    35    40    39    1
    36    39    31    1
    37    33    34   ar
    38    36    35   ar
    39    35    34   ar
    40    35    38    1
    41    34    41    1
    42    41    42    1
