@<TRIPOS>MOLECULE
mol_data/noopt/geoms/mol2/13fg13fg-13fg-.out
 32 32 0 0 0
SMALL
GASTEIGER

@<TRIPOS>ATOM
      1 C           1.1215   -0.3259    0.0002 C.2     1  LIG1        0.0370
      2 C           0.7176    0.9721   -0.0005 C.2     1  LIG1        0.1465
      3 C          -0.7144    0.9744    0.0003 C.2     1  LIG1        0.0841
      4 C          -1.1226   -0.3223   -0.0003 C.2     1  LIG1        0.0669
      5 N          -0.0018   -1.1217    0.0001 N.pl3   1  LIG1       -0.3154
      6 H          -0.0034   -2.1157   -0.0003 H       1  LIG1        0.1518
      7 H           2.3167   -0.8373    0.0007 H       1  LIG1        0.0819
      8 O           1.4918    2.0165   -0.0003 O.2     1  LIG1       -0.5043
      9 H           0.9557    2.8128   -0.0003 H       1  LIG1        0.2922
     10 S          -1.4853    2.0211    0.0010 S.2     1  LIG1       -0.0462
     11 H          -2.7389    1.6410    0.0012 H       0  HOH0        0.2052
     12 C          -2.3194   -0.8299   -0.0001 C.2     1  LIG1        0.0410
     13 C          -3.5353   -0.2219   -0.0003 C.3     1  LIG1        0.0731
     14 C          -4.5290   -1.2530    0.0012 C.2     1  LIG1        0.0203
     15 C          -3.8767   -2.4457    0.0005 C.3     1  LIG1        0.1333
     16 N          -2.5238   -2.1913    0.0002 N.pl3   1  LIG1       -0.3280
     17 H          -1.8081   -2.8811   -0.0004 H       1  LIG1        0.1472
     18 O          -3.7520    1.0599   -0.0003 O.3     2  HOH2       -0.4105
     19 H          -4.6977    1.2250   -0.0003 H       0  HOH0        0.2052
     20 S          -5.8179   -1.0837    0.0025 S.2     1  LIG1       -0.0576
     21 H          -6.4122   -2.2511    0.0029 H       0  HOH0        0.2052
     22 C          -4.3398   -3.6604    0.0012 C.ar    1  LIG1        0.0563
     23 C          -5.6205   -4.1161    0.0179 C.ar    1  LIG1        0.0212
     24 C          -5.5654   -5.5470    0.0109 C.ar    1  LIG1        0.0302
     25 C          -4.2536   -5.9029   -0.0115 C.ar    1  LIG1        0.0158
     26 N          -3.4998   -4.7509   -0.0171 N.ar    1  LIG1       -0.3609
     27 H          -2.5066   -4.7126   -0.0325 H       1  LIG1        0.1651
     28 H          -3.6985   -7.0783   -0.0256 H       1  LIG1        0.0818
     29 O          -6.6948   -3.3844    0.0381 O.3     3  HOH3       -0.4105
     30 H          -7.4690   -3.9520    0.0431 H       0  HOH0        0.2052
     31 S          -6.5803   -6.3592    0.0232 S.3     1  LIG1       -0.1406
     32 H          -6.1501   -7.5966    0.0273 H       1  LIG1        0.1072
@<TRIPOS>BOND
     1    27    26    1
     2    28    25    1
     3    26    25   ar
     4    26    22   ar
     5    25    24   ar
     6     2     8    1
     7     2     1    2
     8     2     3    1
     9    17    16    1
    10    13    12    1
    11    13    14    1
    12     4    12    2
    13     4     5    1
    14     4     3    1
    15     6     5    1
    16     8     9    1
    17    18    19    1
    18    18    11    1
    19    12    16    1
    20     5     1    1
    21    16    15    1
    22     1     7    1
    23     3    10    2
    24    15    14    1
    25    15    22    1
    26    14    20    2
    27    22    23   ar
    28    21    29    1
    29    24    23   ar
    30    24    31    1
    31    31    32    1
    32    29    30    1
