@<TRIPOS>MOLECULE
mol_data/noopt/geoms/mol2/13fg13fg13fg-13fg.out
 42 42 0 0 0
SMALL
GASTEIGER

@<TRIPOS>ATOM
      1 C           1.1215   -0.3259    0.0002 C.2     1  LIG1        0.0370
      2 C           0.7176    0.9721   -0.0005 C.2     1  LIG1        0.1465
      3 C          -0.7144    0.9744    0.0003 C.2     1  LIG1        0.0841
      4 C          -1.1226   -0.3223   -0.0003 C.2     1  LIG1        0.0672
      5 N          -0.0018   -1.1217    0.0001 N.pl3   1  LIG1       -0.3154
      6 H          -0.0034   -2.1157   -0.0003 H       1  LIG1        0.1518
      7 H           2.3167   -0.8373    0.0007 H       1  LIG1        0.0819
      8 O           1.4918    2.0165   -0.0003 O.2     1  LIG1       -0.5043
      9 H           0.9557    2.8128   -0.0003 H       1  LIG1        0.2922
     10 S          -1.4853    2.0211    0.0010 S.2     1  LIG1       -0.0462
     11 H          -2.7389    1.6410    0.0012 H       0  HOH0        0.2052
     12 C          -2.3194   -0.8299   -0.0001 C.2     1  LIG1        0.0445
     13 C          -3.5352   -0.2220    0.0163 C.3     1  LIG1        0.0771
     14 C          -4.5290   -1.2531    0.0088 C.2     1  LIG1        0.0334
     15 C          -3.8768   -2.4456   -0.0136 C.2     1  LIG1        0.0604
     16 N          -2.5238   -2.1911   -0.0187 N.pl3   1  LIG1       -0.3137
     17 H          -1.8082   -2.8808   -0.0339 H       1  LIG1        0.1520
     18 O          -3.7519    1.0597    0.0366 O.3     2  HOH2       -0.4105
     19 H          -4.6976    1.2247    0.0416 H       0  HOH0        0.2052
     20 S          -5.8178   -1.0839    0.0207 S.2     1  LIG1       -0.0537
     21 H          -6.4121   -2.2513    0.0247 H       0  HOH0        0.2052
     22 C          -4.3399   -3.6602   -0.0280 C.2     1  LIG1        0.0406
     23 C          -5.6206   -4.1159   -0.0215 C.3     1  LIG1        0.0731
     24 C          -5.5656   -5.5467   -0.0437 C.2     1  LIG1        0.0203
     25 C          -4.2537   -5.9024   -0.0646 C.3     1  LIG1        0.1333
     26 N          -3.4998   -4.7505   -0.0546 N.pl3   1  LIG1       -0.3280
     27 H          -2.5066   -4.7122   -0.0655 H       1  LIG1        0.1472
     28 O          -6.6950   -3.3844    0.0022 O.3     3  HOH3       -0.4105
     29 H          -7.4692   -3.9521    0.0081 H       0  HOH0        0.2052
     30 S          -6.5806   -6.3589   -0.0444 S.2     1  LIG1       -0.0576
     31 H          -6.1504   -7.5963   -0.0446 H       0  HOH0        0.2052
     32 C          -3.6986   -7.0777   -0.0891 C.ar    1  LIG1        0.0563
     33 C          -4.2572   -8.3170   -0.0894 C.ar    1  LIG1        0.0212
     34 C          -3.1874   -9.2683   -0.1219 C.ar    1  LIG1        0.0302
     35 C          -2.0221   -8.5685   -0.1418 C.ar    1  LIG1        0.0158
     36 N          -2.3305   -7.2269   -0.1213 N.ar    1  LIG1       -0.3609
     37 H          -1.6702   -6.4840   -0.1292 H       1  LIG1        0.1651
     38 H          -0.7901   -8.9822   -0.1732 H       1  LIG1        0.0818
     39 O          -5.5290   -8.5853   -0.0634 O.3     4  HOH4       -0.4105
     40 H          -5.6557   -9.5369   -0.0570 H       0  HOH0        0.2052
     41 S          -3.3048  -10.5629   -0.1313 S.3     1  LIG1       -0.1406
     42 H          -2.1144  -11.1099   -0.1344 H       1  LIG1        0.1072
@<TRIPOS>BOND
     1    38    35    1
     2    35    34   ar
     3    35    36   ar
     4    42    41    1
     5    41    34    1
     6    37    36    1
     7    34    33   ar
     8    36    32   ar
     9    33    32   ar
    10    32    25    1
    11    27    26    1
    12    25    26    1
    13    25    24    1
    14    39    40    1
    15    39    31    1
    16    26    22    1
    17    30    24    2
    18    24    23    1
    19    17    16    1
    20    22    23    1
    21    22    15    2
    22    16    15    1
    23    16    12    1
    24    15    14    1
    25     2     8    1
    26     2     1    2
    27     2     3    1
    28     4    12    2
    29     4     5    1
    30     4     3    1
    31     8     9    1
    32     6     5    1
    33    12    13    1
    34     5     1    1
    35     1     7    1
    36     3    10    2
    37    11    18    1
    38    28    29    1
    39    28    21    1
    40    14    13    1
    41    14    20    2
    42    18    19    1
