@<TRIPOS>MOLECULE
mol_data/noopt/geoms/mol2/13fg13fg13fg-.out
 32 32 0 0 0
SMALL
GASTEIGER

@<TRIPOS>ATOM
      1 C           1.1215   -0.3259    0.0002 C.2     1  LIG1        0.0370
      2 C           0.7176    0.9721   -0.0005 C.2     1  LIG1        0.1465
      3 C          -0.7144    0.9744    0.0003 C.2     1  LIG1        0.0841
      4 C          -1.1226   -0.3223   -0.0003 C.2     1  LIG1        0.0669
      5 N          -0.0018   -1.1217    0.0001 N.pl3   1  LIG1       -0.3154
      6 H          -0.0034   -2.1157   -0.0003 H       1  LIG1        0.1518
      7 H           2.3167   -0.8373    0.0007 H       1  LIG1        0.0819
      8 O           1.4918    2.0165   -0.0003 O.2     1  LIG1       -0.5043
      9 H           0.9557    2.8128   -0.0003 H       1  LIG1        0.2922
     10 S          -1.4853    2.0211    0.0010 S.2     1  LIG1       -0.0462
     11 H          -2.7389    1.6410    0.0012 H       0  HOH0        0.2052
     12 C          -2.3194   -0.8299   -0.0001 C.2     1  LIG1        0.0410
     13 C          -3.5352   -0.2220    0.0163 C.3     1  LIG1        0.0731
     14 C          -4.5290   -1.2531    0.0088 C.2     1  LIG1        0.0203
     15 C          -3.8768   -2.4456   -0.0136 C.3     1  LIG1        0.1333
     16 N          -2.5238   -2.1911   -0.0187 N.pl3   1  LIG1       -0.3280
     17 H          -1.8082   -2.8808   -0.0339 H       1  LIG1        0.1472
     18 O          -3.7519    1.0597    0.0366 O.3     2  HOH2       -0.4105
     19 H          -4.6976    1.2247    0.0416 H       0  HOH0        0.2052
     20 S          -5.8178   -1.0839    0.0207 S.2     1  LIG1       -0.0576
     21 H          -6.4121   -2.2513    0.0247 H       0  HOH0        0.2052
     22 C          -4.3399   -3.6602   -0.0280 C.ar    1  LIG1        0.0563
     23 C          -5.6206   -4.1159   -0.0215 C.ar    1  LIG1        0.0212
     24 C          -5.5656   -5.5467   -0.0437 C.ar    1  LIG1        0.0302
     25 C          -4.2537   -5.9024   -0.0646 C.ar    1  LIG1        0.0158
     26 N          -3.4998   -4.7505   -0.0546 N.ar    1  LIG1       -0.3609
     27 H          -2.5066   -4.7122   -0.0655 H       1  LIG1        0.1651
     28 H          -3.6986   -7.0777   -0.0891 H       1  LIG1        0.0818
     29 O          -6.6950   -3.3844    0.0022 O.3     3  HOH3       -0.4105
     30 H          -7.4692   -3.9521    0.0081 H       0  HOH0        0.2052
     31 S          -6.5806   -6.3589   -0.0444 S.3     1  LIG1       -0.1406
     32 H          -6.1504   -7.5963   -0.0446 H       1  LIG1        0.1072
@<TRIPOS>BOND
     1    28    25    1
     2    27    26    1
     3    25    26   ar
     4    25    24   ar
     5    26    22   ar
     6    32    31    1
     7    31    24    1
     8    24    23   ar
     9    17    16    1
    10    22    23   ar
    11    22    15    1
    12    16    15    1
    13    16    12    1
    14    15    14    1
    15     2     8    1
    16     2     1    2
    17     2     3    1
    18     4    12    2
    19     4     5    1
    20     4     3    1
    21     6     5    1
    22     8     9    1
    23    12    13    1
    24     5     1    1
    25     1     7    1
    26     3    10    2
    27    11    18    1
    28    29    30    1
    29    29    21    1
    30    14    13    1
    31    14    20    2
    32    18    19    1
