@<TRIPOS>MOLECULE
mol_data/noopt/geoms/mol2/13fg13fg-.out
 22 22 0 0 0
SMALL
GASTEIGER

@<TRIPOS>ATOM
      1 C           1.1215   -0.3259    0.0002 C.2     1  LIG1        0.0334
      2 C           0.7176    0.9721   -0.0005 C.2     1  LIG1        0.1430
      3 C          -0.7144    0.9744    0.0003 C.2     1  LIG1        0.0710
      4 C          -1.1226   -0.3223   -0.0003 C.3     1  LIG1        0.1397
      5 N          -0.0018   -1.1217    0.0001 N.pl3   1  LIG1       -0.3297
      6 H          -0.0034   -2.1157   -0.0003 H       1  LIG1        0.1469
      7 H           2.3167   -0.8373    0.0007 H       1  LIG1        0.0816
      8 O           1.4918    2.0165   -0.0003 O.2     1  LIG1       -0.5046
      9 H           0.9557    2.8128   -0.0003 H       1  LIG1        0.2922
     10 S          -1.4853    2.0211    0.0010 S.2     1  LIG1       -0.0501
     11 H          -2.7389    1.6410    0.0012 H       0  HOH0        0.2052
     12 C          -2.3194   -0.8299   -0.0001 C.ar    1  LIG1        0.0567
     13 C          -3.5353   -0.2219   -0.0003 C.ar    1  LIG1        0.0212
     14 C          -4.5290   -1.2530    0.0012 C.ar    1  LIG1        0.0302
     15 C          -3.8767   -2.4457    0.0005 C.ar    1  LIG1        0.0158
     16 N          -2.5238   -2.1913    0.0002 N.ar    1  LIG1       -0.3608
     17 H          -1.8081   -2.8811   -0.0004 H       1  LIG1        0.1651
     18 H          -4.3398   -3.6604    0.0012 H       1  LIG1        0.0818
     19 O          -3.7520    1.0599   -0.0003 O.3     2  HOH2       -0.4105
     20 H          -4.6977    1.2250   -0.0003 H       0  HOH0        0.2052
     21 S          -5.8179   -1.0837    0.0025 S.3     1  LIG1       -0.1406
     22 H          -6.4122   -2.2511    0.0029 H       1  LIG1        0.1072
@<TRIPOS>BOND
     1     2     8    1
     2     2     1    2
     3     2     3    1
     4    17    16    1
     5    13    12   ar
     6    13    14   ar
     7     4    12    1
     8     4     5    1
     9     4     3    1
    10     6     5    1
    11     8     9    1
    12    19    20    1
    13    19    11    1
    14    12    16   ar
    15     5     1    1
    16    16    15   ar
    17     1     7    1
    18     3    10    2
    19    15    14   ar
    20    15    18    1
    21    14    21    1
    22    21    22    1
