@<TRIPOS>MOLECULE
mol_data/noopt/geoms/mol2/13fg13fg-13fg13fg.out
 42 42 0 0 0
SMALL
GASTEIGER

@<TRIPOS>ATOM
      1 C           1.1215   -0.3259    0.0002 C.2     1  LIG1        0.0370
      2 C           0.7176    0.9721   -0.0005 C.2     1  LIG1        0.1465
      3 C          -0.7144    0.9744    0.0003 C.2     1  LIG1        0.0841
      4 C          -1.1226   -0.3223   -0.0003 C.2     1  LIG1        0.0672
      5 N          -0.0018   -1.1217    0.0001 N.pl3   1  LIG1       -0.3154
      6 H          -0.0034   -2.1157   -0.0003 H       1  LIG1        0.1518
      7 H           2.3167   -0.8373    0.0007 H       1  LIG1        0.0819
      8 O           1.4918    2.0165   -0.0003 O.2     1  LIG1       -0.5043
      9 H           0.9557    2.8128   -0.0003 H       1  LIG1        0.2922
     10 S          -1.4853    2.0211    0.0010 S.2     1  LIG1       -0.0462
     11 H          -2.7389    1.6410    0.0012 H       0  HOH0        0.2052
     12 C          -2.3194   -0.8299   -0.0001 C.2     1  LIG1        0.0445
     13 C          -3.5353   -0.2219   -0.0003 C.3     1  LIG1        0.0771
     14 C          -4.5290   -1.2530    0.0012 C.2     1  LIG1        0.0334
     15 C          -3.8767   -2.4457    0.0005 C.2     1  LIG1        0.0604
     16 N          -2.5238   -2.1913    0.0002 N.pl3   1  LIG1       -0.3137
     17 H          -1.8081   -2.8811   -0.0004 H       1  LIG1        0.1520
     18 O          -3.7520    1.0599   -0.0003 O.3     2  HOH2       -0.4105
     19 H          -4.6977    1.2250   -0.0003 H       0  HOH0        0.2052
     20 S          -5.8179   -1.0837    0.0025 S.2     1  LIG1       -0.0537
     21 H          -6.4122   -2.2511    0.0029 H       0  HOH0        0.2052
     22 C          -4.3398   -3.6604    0.0012 C.2     1  LIG1        0.0406
     23 C          -5.6206   -4.1160    0.0013 C.3     1  LIG1        0.0731
     24 C          -5.5655   -5.5470    0.0033 C.2     1  LIG1        0.0203
     25 C          -4.2535   -5.9029    0.0026 C.3     1  LIG1        0.1333
     26 N          -3.4996   -4.7510    0.0018 N.pl3   1  LIG1       -0.3280
     27 H          -2.5064   -4.7127    0.0010 H       1  LIG1        0.1472
     28 O          -6.6951   -3.3843    0.0012 O.3     3  HOH3       -0.4105
     29 H          -7.4693   -3.9519    0.0012 H       0  HOH0        0.2052
     30 S          -6.5805   -6.3592    0.0050 S.2     1  LIG1       -0.0576
     31 H          -6.1504   -7.5965    0.0056 H       0  HOH0        0.2052
     32 C          -3.6983   -7.0784    0.0036 C.ar    1  LIG1        0.0563
     33 C          -4.2570   -8.3176    0.0205 C.ar    1  LIG1        0.0212
     34 C          -3.1869   -9.2692    0.0139 C.ar    1  LIG1        0.0302
     35 C          -2.0215   -8.5697   -0.0086 C.ar    1  LIG1        0.0158
     36 N          -2.3300   -7.2281   -0.0145 N.ar    1  LIG1       -0.3609
     37 H          -1.6695   -6.4854   -0.0300 H       1  LIG1        0.1651
     38 H          -0.7893   -8.9838   -0.0224 H       1  LIG1        0.0818
     39 O          -5.5290   -8.5854    0.0407 O.3     4  HOH4       -0.4105
     40 H          -5.6560   -9.5370    0.0457 H       0  HOH0        0.2052
     41 S          -3.3044  -10.5638    0.0265 S.3     1  LIG1       -0.1406
     42 H          -2.1140  -11.1108    0.0307 H       1  LIG1        0.1072
@<TRIPOS>BOND
     1    37    36    1
     2    38    35    1
     3    36    35   ar
     4    36    32   ar
     5    35    34   ar
     6     2     8    1
     7     2     1    2
     8     2     3    1
     9    17    16    1
    10    13    12    1
    11    13    14    1
    12     4    12    2
    13     4     5    1
    14     4     3    1
    15     8     9    1
    16     6     5    1
    17    18    19    1
    18    18    11    1
    19    12    16    1
    20     5     1    1
    21    16    15    1
    22     1     7    1
    23     3    10    2
    24    15    14    1
    25    15    22    2
    26    27    26    1
    27    14    20    2
    28    22    23    1
    29    22    26    1
    30    29    28    1
    31    28    21    1
    32    23    24    1
    33    26    25    1
    34    25    24    1
    35    25    32    1
    36    24    30    2
    37    32    33   ar
    38    31    39    1
    39    34    33   ar
    40    34    41    1
    41    41    42    1
    42    39    40    1
