@<TRIPOS>MOLECULE
mol_data/noopt/geoms/mol2/13fg13fg-13fg-13fg-.out
 42 42 0 0 0
SMALL
GASTEIGER

@<TRIPOS>ATOM
      1 C           1.1215   -0.3259    0.0002 C.2     1  LIG1        0.0370
      2 C           0.7176    0.9721   -0.0005 C.2     1  LIG1        0.1465
      3 C          -0.7144    0.9744    0.0003 C.2     1  LIG1        0.0841
      4 C          -1.1226   -0.3223   -0.0003 C.2     1  LIG1        0.0672
      5 N          -0.0018   -1.1217    0.0001 N.pl3   1  LIG1       -0.3154
      6 H          -0.0034   -2.1157   -0.0003 H       1  LIG1        0.1518
      7 H           2.3167   -0.8373    0.0007 H       1  LIG1        0.0819
      8 O           1.4918    2.0165   -0.0003 O.2     1  LIG1       -0.5043
      9 H           0.9557    2.8128   -0.0003 H       1  LIG1        0.2922
     10 S          -1.4853    2.0211    0.0010 S.2     1  LIG1       -0.0462
     11 H          -2.7389    1.6410    0.0012 H       0  HOH0        0.2052
     12 C          -2.3194   -0.8299   -0.0001 C.2     1  LIG1        0.0445
     13 C          -3.5353   -0.2219   -0.0003 C.3     1  LIG1        0.0771
     14 C          -4.5290   -1.2530    0.0012 C.2     1  LIG1        0.0334
     15 C          -3.8767   -2.4457    0.0005 C.2     1  LIG1        0.0604
     16 N          -2.5238   -2.1913    0.0002 N.pl3   1  LIG1       -0.3137
     17 H          -1.8081   -2.8811   -0.0004 H       1  LIG1        0.1520
     18 O          -3.7520    1.0599   -0.0003 O.3     2  HOH2       -0.4105
     19 H          -4.6977    1.2250   -0.0003 H       0  HOH0        0.2052
     20 S          -5.8179   -1.0837    0.0025 S.2     1  LIG1       -0.0537
     21 H          -6.4122   -2.2511    0.0029 H       0  HOH0        0.2052
     22 C          -4.3398   -3.6604    0.0012 C.2     1  LIG1        0.0406
     23 C          -5.6205   -4.1161    0.0179 C.3     1  LIG1        0.0731
     24 C          -5.5654   -5.5470    0.0109 C.2     1  LIG1        0.0203
     25 C          -4.2536   -5.9029   -0.0115 C.3     1  LIG1        0.1333
     26 N          -3.4998   -4.7509   -0.0171 N.pl3   1  LIG1       -0.3280
     27 H          -2.5066   -4.7126   -0.0325 H       1  LIG1        0.1472
     28 O          -6.6948   -3.3844    0.0381 O.3     3  HOH3       -0.4105
     29 H          -7.4690   -3.9520    0.0431 H       0  HOH0        0.2052
     30 S          -6.5803   -6.3592    0.0232 S.2     1  LIG1       -0.0576
     31 H          -6.1501   -7.5966    0.0273 H       0  HOH0        0.2052
     32 C          -3.6985   -7.0783   -0.0256 C.ar    1  LIG1        0.0563
     33 C          -4.2574   -8.3175   -0.0355 C.ar    1  LIG1        0.0212
     34 C          -3.1874   -9.2691   -0.0484 C.ar    1  LIG1        0.0302
     35 C          -2.0218   -8.5696   -0.0476 C.ar    1  LIG1        0.0158
     36 N          -2.3301   -7.2280   -0.0332 N.ar    1  LIG1       -0.3609
     37 H          -1.6695   -6.4853   -0.0295 H       1  LIG1        0.1651
     38 H          -0.7895   -8.9837   -0.0567 H       1  LIG1        0.0818
     39 O          -5.5295   -8.5854   -0.0321 O.3     4  HOH4       -0.4105
     40 H          -5.6566   -9.5369   -0.0313 H       0  HOH0        0.2052
     41 S          -3.3050  -10.5637   -0.0593 S.3     1  LIG1       -0.1406
     42 H          -2.1148  -11.1109   -0.0630 H       1  LIG1        0.1072
@<TRIPOS>BOND
     1    42    41    1
     2    41    34    1
     3    38    35    1
     4    34    35   ar
     5    34    33   ar
     6    35    36   ar
     7    33    32   ar
     8    36    37    1
     9    36    32   ar
    10    27    26    1
    11    39    40    1
    12    39    31    1
    13    32    25    1
    14    26    25    1
    15    26    22    1
    16    25    24    1
    17     2     8    1
    18     2     1    2
    19     2     3    1
    20    17    16    1
    21    13    12    1
    22    13    14    1
    23     8     9    1
    24     6     5    1
    25     4    12    2
    26     4     5    1
    27     4     3    1
    28    18    19    1
    29    18    11    1
    30    12    16    1
    31     5     1    1
    32    16    15    1
    33     1     7    1
    34     3    10    2
    35    15    14    1
    36    15    22    2
    37    14    20    2
    38    22    23    1
    39    21    28    1
    40    24    23    1
    41    24    30    2
    42    28    29    1
