@<TRIPOS>MOLECULE
mol_data/noopt/geoms/mol2/13fg13fg13fg13fg-.out
 42 42 0 0 0
SMALL
GASTEIGER

@<TRIPOS>ATOM
      1 C           1.1215   -0.3259    0.0002 C.2     1  LIG1        0.0370
      2 C           0.7176    0.9721   -0.0005 C.2     1  LIG1        0.1465
      3 C          -0.7144    0.9744    0.0003 C.2     1  LIG1        0.0841
      4 C          -1.1226   -0.3223   -0.0003 C.2     1  LIG1        0.0672
      5 N          -0.0018   -1.1217    0.0001 N.pl3   1  LIG1       -0.3154
      6 H          -0.0034   -2.1157   -0.0003 H       1  LIG1        0.1518
      7 H           2.3167   -0.8373    0.0007 H       1  LIG1        0.0819
      8 O           1.4918    2.0165   -0.0003 O.2     1  LIG1       -0.5043
      9 H           0.9557    2.8128   -0.0003 H       1  LIG1        0.2922
     10 S          -1.4853    2.0211    0.0010 S.2     1  LIG1       -0.0462
     11 H          -2.7389    1.6410    0.0012 H       0  HOH0        0.2052
     12 C          -2.3194   -0.8299   -0.0001 C.2     1  LIG1        0.0445
     13 C          -3.5352   -0.2220    0.0163 C.3     1  LIG1        0.0771
     14 C          -4.5290   -1.2531    0.0088 C.2     1  LIG1        0.0334
     15 C          -3.8768   -2.4456   -0.0136 C.2     1  LIG1        0.0604
     16 N          -2.5238   -2.1911   -0.0187 N.pl3   1  LIG1       -0.3137
     17 H          -1.8082   -2.8808   -0.0339 H       1  LIG1        0.1520
     18 O          -3.7519    1.0597    0.0366 O.3     2  HOH2       -0.4105
     19 H          -4.6976    1.2247    0.0416 H       0  HOH0        0.2052
     20 S          -5.8178   -1.0839    0.0207 S.2     1  LIG1       -0.0537
     21 H          -6.4121   -2.2513    0.0247 H       0  HOH0        0.2052
     22 C          -4.3399   -3.6602   -0.0280 C.2     1  LIG1        0.0406
     23 C          -5.6207   -4.1157   -0.0381 C.3     1  LIG1        0.0731
     24 C          -5.5656   -5.5466   -0.0513 C.2     1  LIG1        0.0203
     25 C          -4.2537   -5.9026   -0.0505 C.3     1  LIG1        0.1333
     26 N          -3.4998   -4.7508   -0.0358 N.pl3   1  LIG1       -0.3280
     27 H          -2.5065   -4.7126   -0.0320 H       1  LIG1        0.1472
     28 O          -6.6952   -3.3839   -0.0347 O.3     3  HOH3       -0.4105
     29 H          -7.4694   -3.9515   -0.0338 H       0  HOH0        0.2052
     30 S          -6.5807   -6.3587   -0.0626 S.2     1  LIG1       -0.0576
     31 H          -6.1507   -7.5961   -0.0664 H       0  HOH0        0.2052
     32 C          -3.6985   -7.0781   -0.0599 C.ar    1  LIG1        0.0563
     33 C          -4.2574   -8.3173   -0.0667 C.ar    1  LIG1        0.0212
     34 C          -3.1873   -9.2689   -0.0749 C.ar    1  LIG1        0.0302
     35 C          -2.0217   -8.5694   -0.0746 C.ar    1  LIG1        0.0158
     36 N          -2.3301   -7.2277   -0.0649 N.ar    1  LIG1       -0.3609
     37 H          -1.6695   -6.4850   -0.0627 H       1  LIG1        0.1651
     38 H          -0.7894   -8.9834   -0.0805 H       1  LIG1        0.0818
     39 O          -5.5295   -8.5852   -0.0644 O.3     4  HOH4       -0.4105
     40 H          -5.6566   -9.5367   -0.0638 H       0  HOH0        0.2052
     41 S          -3.3049  -10.5635   -0.0819 S.3     1  LIG1       -0.1406
     42 H          -2.1146  -11.1106   -0.0842 H       1  LIG1        0.1072
@<TRIPOS>BOND
     1    42    41    1
     2    41    34    1
     3    38    35    1
     4    34    35   ar
     5    34    33   ar
     6    35    36   ar
     7    33    32   ar
     8    31    39    1
     9    36    37    1
    10    36    32   ar
    11    39    40    1
    12    30    24    2
    13    32    25    1
    14    24    25    1
    15    24    23    1
    16    25    26    1
    17    23    22    1
    18    26    27    1
    19    26    22    1
    20    28    29    1
    21    28    21    1
    22    17    16    1
    23    22    15    2
    24    16    15    1
    25    16    12    1
    26    15    14    1
    27     2     8    1
    28     2     1    2
    29     2     3    1
    30     4    12    2
    31     4     5    1
    32     4     3    1
    33     6     5    1
    34     8     9    1
    35    12    13    1
    36     5     1    1
    37     1     7    1
    38     3    10    2
    39    11    18    1
    40    14    13    1
    41    14    20    2
    42    18    19    1
