@<TRIPOS>MOLECULE
mol_data/noopt/geoms/mol2/13fh4hi(310)4hl(260)4ee(140).out
 58 61 0 0 0
SMALL
GASTEIGER

@<TRIPOS>ATOM
      1 C           1.1215   -0.3259    0.0002 C.ar    1  LIG1        0.0460
      2 C           0.7176    0.9721   -0.0005 C.ar    1  LIG1        0.1553
      3 C          -0.7144    0.9744    0.0003 C.ar    1  LIG1        0.0923
      4 C          -1.1226   -0.3223   -0.0003 C.ar    1  LIG1        0.0729
      5 N          -0.0018   -1.1217    0.0001 N.ar    1  LIG1       -0.3561
      6 H          -0.0034   -2.1157   -0.0003 H       1  LIG1        0.1655
      7 H           2.3167   -0.8373    0.0007 H       1  LIG1        0.0845
      8 O           1.4918    2.0165   -0.0003 O.3     1  LIG1       -0.5035
      9 H           0.9557    2.8128   -0.0003 H       1  LIG1        0.2923
     10 N          -1.4853    2.0212    0.0010 N.pl3   1  LIG1       -0.3535
     11 H          -1.0256    2.7740   -0.4702 H       1  LIG1        0.1425
     12 H          -2.3405    1.8056   -0.4703 H       1  LIG1        0.1425
     13 C          -3.2732   -0.3803   -0.9359 C.ar    1  LIG1        0.0344
     14 C          -4.5558   -0.9604   -0.8937 C.ar    1  LIG1       -0.0324
     15 C          -2.3194   -0.8299   -0.0001 C.ar    1  LIG1        0.0211
     16 C          -4.8764   -1.9453    0.0379 C.ar    1  LIG1       -0.0113
     17 H          -5.3070   -0.6280   -1.6066 H       1  LIG1        0.0642
     18 C          -2.6389   -1.8131    0.9301 C.ar    1  LIG1       -0.0473
     19 C          -3.9185   -2.3775    0.9559 C.ar    1  LIG1       -0.0419
     20 H          -1.8860   -2.1428    1.6414 H       1  LIG1        0.0627
     21 N          -3.0336    0.5342   -1.8283 N.pl3   1  LIG1       -0.3574
     22 H          -2.2643    0.2487   -2.3999 H       1  LIG1        0.1423
     23 H          -3.8440    0.6626   -2.3999 H       1  LIG1        0.1423
     24 C          -4.2116   -3.2963    1.8281 C.3     1  LIG1       -0.0391
     25 H          -3.3569   -3.4915    2.4415 H       1  LIG1        0.0278
     26 H          -4.4976   -4.1930    1.3191 H       1  LIG1        0.0278
     27 H          -5.0216   -2.9605    2.4414 H       1  LIG1        0.0278
     28 C          -6.6410   -2.9354   -1.1496 C.ar    1  LIG1        0.0332
     29 C          -7.9373   -3.4819   -1.0854 C.ar    1  LIG1       -0.0292
     30 C          -6.0704   -2.4594    0.0486 C.ar    1  LIG1        0.0066
     31 C          -8.6363   -3.5528    0.1175 C.ar    1  LIG1        0.0268
     32 H          -8.3965   -3.8548   -1.9983 H       1  LIG1        0.0643
     33 C          -6.7677   -2.5299    1.2498 C.ar    1  LIG1       -0.0099
     34 C          -8.0545   -3.0767    1.2931 C.ar    1  LIG1        0.1285
     35 H          -6.3061   -2.1561    2.1602 H       1  LIG1        0.0661
     36 N          -6.0388   -2.8967   -2.3011 N.pl3   1  LIG1       -0.3575
     37 H          -6.2487   -3.7284   -2.8151 H       1  LIG1        0.1423
     38 H          -6.3536   -2.0988   -2.8151 H       1  LIG1        0.1423
     39 O          -8.7016   -3.1399    2.4188 O.3     1  LIG1       -0.4945
     40 C          -9.0703   -1.8215    2.8321 C.3     1  LIG1        0.0788
     41 H          -9.6030   -1.8739    3.7586 H       1  LIG1        0.0660
     42 H          -8.1889   -1.2284    2.9606 H       1  LIG1        0.0660
     43 H          -9.6947   -1.3754    2.0864 H       1  LIG1        0.0660
     44 C         -10.0963   -5.1958    0.9378 C.ar    1  LIG1        0.0326
     45 C         -11.4064   -5.7122    0.9269 C.ar    1  LIG1       -0.0446
     46 C          -9.8314   -4.0636    0.1404 C.ar    1  LIG1        0.0022
     47 C         -12.4102   -5.1284    0.1574 C.ar    1  LIG1       -0.0451
     48 H         -11.6325   -6.5854    1.5349 H       1  LIG1        0.0630
     49 C         -10.8332   -3.4804   -0.6281 C.ar    1  LIG1       -0.0373
     50 C         -12.1286   -4.0079   -0.6252 C.ar    1  LIG1        0.0253
     51 H         -10.6039   -2.6081   -1.2347 H       1  LIG1        0.0636
     52 H         -13.6090   -5.6312    0.1712 H       1  LIG1        0.0630
     53 C          -9.2024   -5.7837    1.6763 C.1     1  LIG1       -0.0691
     54 C          -8.3764   -6.3268    2.3586 C.1     1  LIG1       -0.1139
     55 H          -7.6407   -6.8107    2.9665 H       1  LIG1        0.1232
     56 C         -13.0610   -3.4586   -1.3456 C.1     1  LIG1       -0.0696
     57 C         -13.9224   -2.9510   -2.0113 C.1     1  LIG1       -0.1139
     58 H         -14.6898   -2.4989   -2.6043 H       1  LIG1        0.1232
@<TRIPOS>BOND
     1    38    36    1
     2    37    36    1
     3    58    57    1
     4    23    21    1
     5    22    21    1
     6    36    28    1
     7    57    56    3
     8    32    29    1
     9    21    13    1
    10    17    14    1
    11    56    50    1
    12    51    49    1
    13    28    29   ar
    14    28    30   ar
    15    29    31   ar
    16    13    14   ar
    17    13    15   ar
    18    14    16   ar
    19    49    50   ar
    20    49    46   ar
    21    50    47   ar
    22    12    10    1
    23    11    10    1
    24     2     8    1
    25     2     1   ar
    26     2     3   ar
    27     8     9    1
    28     6     5    1
    29     4    15    1
    30     4     5   ar
    31     4     3   ar
    32    15    18   ar
    33     5     1   ar
    34     1     7    1
    35     3    10    1
    36    16    30    1
    37    16    19   ar
    38    30    33   ar
    39    31    46    1
    40    31    34   ar
    41    46    44   ar
    42    47    52    1
    43    47    45   ar
    44    45    44   ar
    45    45    48    1
    46    18    19   ar
    47    18    20    1
    48    44    53    1
    49    19    24    1
    50    33    34   ar
    51    33    35    1
    52    34    39    1
    53    26    24    1
    54    53    54    3
    55    24    27    1
    56    24    25    1
    57    43    40    1
    58    54    55    1
    59    39    40    1
    60    40    42    1
    61    40    41    1
