@<TRIPOS>MOLECULE
mol_data/noopt/geoms/mol2/13fh13al(120)13af(100)4ih(10).out
 49 52 0 0 0
SMALL
GASTEIGER

@<TRIPOS>ATOM
      1 C           1.1215   -0.3259    0.0002 C.ar    1  LIG1        0.0461
      2 C           0.7176    0.9721   -0.0005 C.ar    1  LIG1        0.1554
      3 C          -0.7144    0.9744    0.0003 C.ar    1  LIG1        0.0937
      4 C          -1.1226   -0.3223   -0.0003 C.ar    1  LIG1        0.0876
      5 N          -0.0018   -1.1217    0.0001 N.ar    1  LIG1       -0.3550
      6 H          -0.0034   -2.1157   -0.0003 H       1  LIG1        0.1655
      7 H           2.3167   -0.8373    0.0007 H       1  LIG1        0.0845
      8 O           1.4918    2.0165   -0.0003 O.3     1  LIG1       -0.5035
      9 H           0.9557    2.8128   -0.0003 H       1  LIG1        0.2923
     10 N          -1.4853    2.0212    0.0010 N.pl3   1  LIG1       -0.3535
     11 H          -1.0256    2.7740   -0.4702 H       1  LIG1        0.1425
     12 H          -2.3405    1.8056   -0.4703 H       1  LIG1        0.1425
     13 C          -2.3194   -0.8299   -0.0001 C.ar    1  LIG1        0.0689
     14 C          -2.9167   -1.6800    0.8765 C.ar    1  LIG1        0.0076
     15 C          -4.2457   -1.9209    0.4006 C.ar    1  LIG1        0.1473
     16 C          -4.4026   -1.2061   -0.7450 C.ar    1  LIG1        0.1057
     17 N          -3.2256   -0.5370   -0.9942 N.ar    1  LIG1       -0.3489
     18 H          -3.0570    0.0629   -1.7686 H       1  LIG1        0.1661
     19 H          -2.3770   -2.1812    1.9478 H       1  LIG1        0.0676
     20 O          -5.1400   -2.6818    0.9586 O.3     1  LIG1       -0.4929
     21 C          -6.3419   -1.9344    1.1634 C.3     1  LIG1        0.0789
     22 H          -7.0777   -2.5610    1.6224 H       1  LIG1        0.0660
     23 H          -6.1381   -1.0986    1.7996 H       1  LIG1        0.0660
     24 H          -6.7091   -1.5843    0.2213 H       1  LIG1        0.0660
     25 C          -5.4262   -1.0996   -1.5393 C.ar    1  LIG1        0.0705
     26 C          -6.7582   -1.1562   -1.2738 C.ar    1  LIG1        0.0074
     27 C          -7.4496   -0.9795   -2.5153 C.ar    1  LIG1        0.1427
     28 C          -6.5098   -0.8208   -3.4846 C.ar    1  LIG1        0.0893
     29 N          -5.2696   -0.8942   -2.8914 N.ar    1  LIG1       -0.3500
     30 H          -4.3992   -0.8113   -3.3644 H       1  LIG1        0.1661
     31 H          -7.3007   -1.3390   -0.1066 H       1  LIG1        0.0676
     32 O          -8.7382   -0.9711   -2.6876 O.3     1  LIG1       -0.5046
     33 H          -9.0616   -1.8740   -2.7301 H       1  LIG1        0.2922
     34 C          -5.8402    0.3284   -5.4171 C.ar    1  LIG1       -0.0411
     35 C          -6.0217    0.4981   -6.8034 C.ar    1  LIG1       -0.0565
     36 C          -6.6411   -0.6305   -4.7638 C.ar    1  LIG1        0.0065
     37 C          -6.9581   -0.2532   -7.5099 C.ar    1  LIG1       -0.0408
     38 H          -5.4142    1.2328   -7.3272 H       1  LIG1        0.0621
     39 C          -7.5761   -1.3807   -5.4687 C.ar    1  LIG1       -0.0316
     40 C          -7.7413   -1.1979   -6.8456 C.ar    1  LIG1        0.0252
     41 H          -8.1818   -2.1139   -4.9422 H       1  LIG1        0.0643
     42 H          -7.0994   -0.0707   -8.7893 H       1  LIG1        0.0636
     43 C          -4.9503    1.0588   -4.8125 C.3     1  LIG1       -0.0391
     44 H          -5.4418    1.7856   -4.2000 H       1  LIG1        0.0278
     45 H          -4.3437    1.5568   -5.5397 H       1  LIG1        0.0278
     46 H          -4.3333    0.4349   -4.2001 H       1  LIG1        0.0278
     47 N          -8.6171   -1.9020   -7.4993 N.pl3   1  LIG1       -0.3579
     48 H          -9.1685   -1.2977   -8.0743 H       1  LIG1        0.1423
     49 H          -8.1453   -2.5703   -8.0744 H       1  LIG1        0.1423
@<TRIPOS>BOND
     1    42    37    1
     2    49    47    1
     3    48    47    1
     4    37    40   ar
     5    37    35   ar
     6    47    40    1
     7    38    35    1
     8    40    39   ar
     9    35    34   ar
    10    45    43    1
    11    39    41    1
    12    39    36   ar
    13    34    43    1
    14    34    36   ar
    15    43    46    1
    16    43    44    1
    17    36    28    1
    18    28    29   ar
    19    28    27   ar
    20    30    29    1
    21    29    25   ar
    22    33    32    1
    23    32    27    1
    24    27    26   ar
    25    18    17    1
    26    25    26   ar
    27    25    16    1
    28    26    31    1
    29    17    16   ar
    30    17    13   ar
    31    16    15   ar
    32    12    10    1
    33    11    10    1
    34     2     8    1
    35     2     1   ar
    36     2     3   ar
    37     4    13    1
    38     4     5   ar
    39     4     3   ar
    40     6     5    1
    41     8     9    1
    42    13    14   ar
    43     5     1   ar
    44     1     7    1
    45     3    10    1
    46    24    21    1
    47    15    14   ar
    48    15    20    1
    49    14    19    1
    50    20    21    1
    51    21    22    1
    52    21    23    1
