@<TRIPOS>MOLECULE
mol_data/noopt/geoms/mol2/13fh13fh-13fh13fh-.out
 46 49 0 0 0
SMALL
GASTEIGER

@<TRIPOS>ATOM
      1 C           1.1215   -0.3259    0.0002 C.ar    1  LIG1        0.0461
      2 C           0.7176    0.9721   -0.0005 C.ar    1  LIG1        0.1554
      3 C          -0.7144    0.9744    0.0003 C.ar    1  LIG1        0.0938
      4 C          -1.1226   -0.3223   -0.0003 C.ar    1  LIG1        0.0912
      5 N          -0.0018   -1.1217    0.0001 N.ar    1  LIG1       -0.3549
      6 H          -0.0034   -2.1157   -0.0003 H       1  LIG1        0.1655
      7 H           2.3167   -0.8373    0.0007 H       1  LIG1        0.0845
      8 O           1.4918    2.0165   -0.0003 O.3     1  LIG1       -0.5035
      9 H           0.9557    2.8128   -0.0003 H       1  LIG1        0.2923
     10 N          -1.4853    2.0212    0.0010 N.pl3   1  LIG1       -0.3535
     11 H          -1.0256    2.7740   -0.4702 H       1  LIG1        0.1425
     12 H          -2.3405    1.8056   -0.4703 H       1  LIG1        0.1425
     13 C          -2.3194   -0.8299   -0.0001 C.ar    1  LIG1        0.1092
     14 C          -2.7274   -2.1266   -0.0005 C.ar    1  LIG1        0.1650
     15 C          -4.1594   -2.1244    0.0011 C.ar    1  LIG1        0.0945
     16 C          -4.5635   -0.8264    0.0006 C.ar    1  LIG1        0.0916
     17 N          -3.4402   -0.0305    0.0003 N.ar    1  LIG1       -0.3473
     18 H          -3.4386    0.9635   -0.0001 H       1  LIG1        0.1662
     19 O          -1.9565   -3.1734   -0.0006 O.3     1  LIG1       -0.5030
     20 H          -1.0378   -2.8948   -0.0006 H       1  LIG1        0.2923
     21 N          -4.9336   -3.1687    0.0023 N.pl3   1  LIG1       -0.3534
     22 H          -5.7883   -2.9506   -0.4688 H       1  LIG1        0.1425
     23 H          -4.4765   -3.9231   -0.4688 H       1  LIG1        0.1425
     24 C          -5.7587   -0.3150    0.0014 C.ar    1  LIG1        0.1092
     25 C          -6.1626    0.9830    0.0016 C.ar    1  LIG1        0.1650
     26 C          -7.5946    0.9853    0.0038 C.ar    1  LIG1        0.0945
     27 C          -8.0028   -0.3114    0.0030 C.ar    1  LIG1        0.0916
     28 N          -6.8820   -1.1108    0.0021 N.ar    1  LIG1       -0.3473
     29 H          -6.8836   -2.1048    0.0013 H       1  LIG1        0.1662
     30 O          -5.3884    2.0274    0.0015 O.3     1  LIG1       -0.5030
     31 H          -5.9245    2.8237    0.0015 H       1  LIG1        0.2923
     32 N          -8.3655    2.0321    0.0056 N.pl3   1  LIG1       -0.3534
     33 H          -7.9061    2.7852   -0.4653 H       1  LIG1        0.1425
     34 H          -9.2210    1.8169   -0.4654 H       1  LIG1        0.1425
     35 C          -9.1996   -0.8190    0.0041 C.ar    1  LIG1        0.1087
     36 C          -9.6076   -2.1157    0.0044 C.ar    1  LIG1        0.1643
     37 C         -11.0396   -2.1135    0.0069 C.ar    1  LIG1        0.0849
     38 C         -11.4437   -0.8155    0.0063 C.ar    1  LIG1        0.0267
     39 N         -10.3204   -0.0196    0.0051 N.ar    1  LIG1       -0.3549
     40 H         -10.3188    0.9744    0.0043 H       1  LIG1        0.1655
     41 H         -12.6389   -0.3041    0.0077 H       1  LIG1        0.0827
     42 O          -8.8367   -3.1625    0.0040 O.3     1  LIG1       -0.5031
     43 H          -7.9181   -2.8839    0.0040 H       1  LIG1        0.2923
     44 N         -11.8139   -3.1578    0.0089 N.pl3   1  LIG1       -0.3540
     45 H         -12.6687   -2.9399   -0.4620 H       1  LIG1        0.1425
     46 H         -11.3569   -3.9124   -0.4620 H       1  LIG1        0.1425
@<TRIPOS>BOND
     1    12    10    1
     2    11    10    1
     3    23    21    1
     4    22    21    1
     5    34    32    1
     6    33    32    1
     7    46    44    1
     8    45    44    1
     9    20    19    1
    10    19    14    1
    11     2     8    1
    12     2     1   ar
    13     2     3   ar
    14    14    13   ar
    15    14    15   ar
    16     8     9    1
    17     6     5    1
    18     4    13    1
    19     4     5   ar
    20     4     3   ar
    21    18    17    1
    22    13    17   ar
    23     5     1   ar
    24     1     7    1
    25     3    10    1
    26    17    16   ar
    27    16    15   ar
    28    16    24    1
    29    15    21    1
    30    29    28    1
    31    24    25   ar
    32    24    28   ar
    33    31    30    1
    34    30    25    1
    35    25    26   ar
    36    28    27   ar
    37    27    26   ar
    38    27    35    1
    39    26    32    1
    40    43    42    1
    41    42    36    1
    42    35    36   ar
    43    35    39   ar
    44    40    39    1
    45    36    37   ar
    46    39    38   ar
    47    38    37   ar
    48    38    41    1
    49    37    44    1
