@<TRIPOS>MOLECULE
mol_data/noopt/geoms/mol2/13fh13di(330)4ah(210)6ff(340).out
 48 51 0 0 0
SMALL
GASTEIGER

@<TRIPOS>ATOM
      1 C           1.1215   -0.3259    0.0002 C.ar    1  LIG1        0.0461
      2 C           0.7176    0.9721   -0.0005 C.ar    1  LIG1        0.1554
      3 C          -0.7144    0.9744    0.0003 C.ar    1  LIG1        0.0937
      4 C          -1.1226   -0.3223   -0.0003 C.ar    1  LIG1        0.0888
      5 N          -0.0018   -1.1217    0.0001 N.ar    1  LIG1       -0.3549
      6 H          -0.0034   -2.1157   -0.0003 H       1  LIG1        0.1655
      7 H           2.3167   -0.8373    0.0007 H       1  LIG1        0.0845
      8 O           1.4918    2.0165   -0.0003 O.3     1  LIG1       -0.5035
      9 H           0.9557    2.8128   -0.0003 H       1  LIG1        0.2923
     10 N          -1.4853    2.0212    0.0010 N.pl3   1  LIG1       -0.3535
     11 H          -1.0256    2.7740   -0.4702 H       1  LIG1        0.1425
     12 H          -2.3405    1.8056   -0.4703 H       1  LIG1        0.1425
     13 C          -2.3194   -0.8299   -0.0001 C.ar    1  LIG1        0.0831
     14 C          -3.4881   -0.3334   -0.4856 C.ar    1  LIG1        0.0819
     15 C          -4.5076   -1.3035   -0.2209 C.ar    1  LIG1       -0.0072
     16 C          -3.9168   -2.3509    0.4131 C.ar    1  LIG1        0.0512
     17 N          -2.5773   -2.0649    0.5507 N.ar    1  LIG1       -0.3517
     18 H          -1.9031   -2.6565    0.9792 H       1  LIG1        0.1660
     19 N          -3.7875    1.8229   -1.6021 N.1     1  LIG1       -0.1908
     20 C          -3.6472    0.8123   -1.0788 C.1     1  LIG1        0.1016
     21 C          -5.7670   -1.2047   -0.5291 C.3     1  LIG1       -0.0365
     22 H          -6.3000   -2.0391   -0.1235 H       1  LIG1        0.0279
     23 H          -5.8742   -1.1963   -1.5937 H       1  LIG1        0.0279
     24 H          -6.1632   -0.2972   -0.1236 H       1  LIG1        0.0279
     25 C          -3.8183   -4.6927    0.5158 C.ar    1  LIG1       -0.0519
     26 C          -4.4053   -5.8708    1.0165 C.ar    1  LIG1       -0.0515
     27 C          -4.4227   -3.4645    0.8534 C.ar    1  LIG1        0.0004
     28 C          -5.5435   -5.8302    1.8187 C.ar    1  LIG1        0.0080
     29 H          -3.9552   -6.8293    0.7680 H       1  LIG1        0.0624
     30 C          -5.5590   -3.4234    1.6542 C.ar    1  LIG1       -0.0313
     31 C          -6.1272   -4.6047    2.1424 C.ar    1  LIG1        0.0331
     32 H          -6.0066   -2.4639    1.9005 H       1  LIG1        0.0643
     33 H          -2.7566   -4.7944   -0.2275 H       1  LIG1        0.0624
     34 N          -7.1895   -4.5601    2.8904 N.pl3   1  LIG1       -0.3575
     35 H          -7.6986   -3.7215    2.6966 H       1  LIG1        0.1423
     36 H          -7.7671   -5.3530    2.6966 H       1  LIG1        0.1423
     37 C          -5.2472   -7.8958    2.8974 C.ar    1  LIG1        0.2205
     38 C          -6.0592   -6.9373    2.2640 C.ar    1  LIG1        0.0487
     39 C          -7.4227   -7.2042    2.1274 C.ar    1  LIG1       -0.0058
     40 C          -7.9247   -8.4085    2.6235 C.ar    1  LIG1        0.1357
     41 C          -7.0328   -9.3041    3.2414 C.ar    1  LIG1        0.0728
     42 N          -5.7147   -9.0627    3.3818 N.ar    1  LIG1       -0.2173
     43 H          -8.0883   -6.4796    1.6372 H       1  LIG1        0.0662
     44 H          -7.4524  -10.4380    3.7190 H       1  LIG1        0.0868
     45 O          -3.9720   -7.6927    3.0482 O.3     1  LIG1       -0.4920
     46 H          -3.8000   -6.7490    3.0854 H       1  LIG1        0.2937
     47 O          -9.1866   -8.7038    2.5208 O.3     1  LIG1       -0.5052
     48 H          -9.2914   -9.6577    2.4955 H       1  LIG1        0.2922
@<TRIPOS>BOND
     1    19    20    3
     2    23    21    1
     3    20    14    1
     4    21    15    1
     5    21    24    1
     6    21    22    1
     7    14    15   ar
     8    14    13   ar
     9    12    10    1
    10    11    10    1
    11    33    25    1
    12    15    16   ar
    13     2     8    1
    14     2     1   ar
    15     2     3   ar
    16     4    13    1
    17     4     5   ar
    18     4     3   ar
    19     6     5    1
    20     8     9    1
    21    13    17   ar
    22     5     1   ar
    23     1     7    1
    24     3    10    1
    25    16    17   ar
    26    16    27    1
    27    25    27   ar
    28    25    26   ar
    29    17    18    1
    30    29    26    1
    31    27    30   ar
    32    26    28   ar
    33    43    39    1
    34    30    32    1
    35    30    31   ar
    36    28    31   ar
    37    28    38    1
    38    39    38   ar
    39    39    40   ar
    40    31    34    1
    41    38    37   ar
    42    48    47    1
    43    47    40    1
    44    40    41   ar
    45    36    34    1
    46    35    34    1
    47    37    45    1
    48    37    42   ar
    49    45    46    1
    50    41    42   ar
    51    41    44    1
