@<TRIPOS>MOLECULE
mol_data/noopt/geoms/mol2/13fi13fi-13fi-13fi-.out
 50 53 0 0 0
SMALL
GASTEIGER

@<TRIPOS>ATOM
      1 C           1.1215   -0.3259    0.0002 C.ar    1  LIG1        0.0445
      2 C           0.7176    0.9721   -0.0005 C.ar    1  LIG1        0.1376
      3 C          -0.7144    0.9744    0.0003 C.ar    1  LIG1        0.0178
      4 C          -1.1226   -0.3223   -0.0003 C.ar    1  LIG1        0.0730
      5 N          -0.0018   -1.1217    0.0001 N.ar    1  LIG1       -0.3561
      6 H          -0.0034   -2.1157   -0.0003 H       1  LIG1        0.1655
      7 H           2.3167   -0.8373    0.0007 H       1  LIG1        0.0844
      8 O           1.4918    2.0165   -0.0003 O.3     1  LIG1       -0.5050
      9 H           0.9557    2.8128   -0.0003 H       1  LIG1        0.2922
     10 C          -1.4855    2.0214    0.0010 C.3     1  LIG1       -0.0342
     11 H          -2.4003    1.7904    0.5056 H       1  LIG1        0.0279
     12 H          -1.6974    2.3090   -1.0077 H       1  LIG1        0.0279
     13 H          -0.9933    2.8265    0.5056 H       1  LIG1        0.0279
     14 C          -2.3194   -0.8299   -0.0001 C.ar    1  LIG1        0.1060
     15 C          -2.7274   -2.1266   -0.0005 C.ar    1  LIG1        0.1470
     16 C          -4.1594   -2.1244    0.0011 C.ar    1  LIG1        0.0185
     17 C          -4.5635   -0.8264    0.0006 C.ar    1  LIG1        0.0735
     18 N          -3.4402   -0.0305    0.0003 N.ar    1  LIG1       -0.3486
     19 H          -3.4386    0.9635   -0.0001 H       1  LIG1        0.1661
     20 O          -1.9565   -3.1734   -0.0006 O.3     1  LIG1       -0.5043
     21 H          -1.0378   -2.8948   -0.0006 H       1  LIG1        0.2922
     22 C          -4.9338   -3.1690    0.0023 C.3     1  LIG1       -0.0342
     23 H          -4.4441   -3.9754    0.5071 H       1  LIG1        0.0279
     24 H          -5.1467   -3.4563   -1.0062 H       1  LIG1        0.0279
     25 H          -5.8478   -2.9348    0.5070 H       1  LIG1        0.0279
     26 C          -5.7587   -0.3150    0.0014 C.ar    1  LIG1        0.1060
     27 C          -6.9765   -0.9191    0.0015 C.ar    1  LIG1        0.1470
     28 C          -7.9670    0.1151    0.0037 C.ar    1  LIG1        0.0185
     29 C          -7.3109    1.3057    0.0031 C.ar    1  LIG1        0.0735
     30 N          -5.9587    1.0470    0.0022 N.ar    1  LIG1       -0.3486
     31 H          -5.2408    1.7345    0.0016 H       1  LIG1        0.1661
     32 O          -7.1973   -2.2003    0.0012 O.3     1  LIG1       -0.5043
     33 H          -6.3599   -2.6697    0.0011 H       1  LIG1        0.2922
     34 C          -9.2567   -0.0501    0.0054 C.3     1  LIG1       -0.0342
     35 H          -9.4988   -0.9619    0.5103 H       1  LIG1        0.0279
     36 H          -9.6119   -0.0957   -1.0029 H       1  LIG1        0.0279
     37 H          -9.7208    0.7712    0.5103 H       1  LIG1        0.0279
     38 C          -7.7701    2.5219    0.0044 C.ar    1  LIG1        0.1055
     39 C          -9.0494    2.9816    0.0047 C.ar    1  LIG1        0.1463
     40 C          -8.9898    4.4124    0.0074 C.ar    1  LIG1        0.0090
     41 C          -7.6767    4.7641    0.0068 C.ar    1  LIG1        0.0087
     42 N          -6.9265    3.6098    0.0054 N.ar    1  LIG1       -0.3563
     43 H          -5.9333    3.5684    0.0046 H       1  LIG1        0.1655
     44 H          -7.1178    5.9378    0.0083 H       1  LIG1        0.0811
     45 O         -10.1263    2.2532    0.0043 O.3     1  LIG1       -0.5043
     46 H          -9.8847    1.3241    0.0043 H       1  LIG1        0.2922
     47 C         -10.0025    5.2280    0.0095 C.3     1  LIG1       -0.0348
     48 H         -10.8277    4.7708    0.5145 H       1  LIG1        0.0279
     49 H         -10.2816    5.4527   -0.9988 H       1  LIG1        0.0279
     50 H          -9.7316    6.1316    0.5144 H       1  LIG1        0.0279
@<TRIPOS>BOND
     1    12    10    1
     2    24    22    1
     3    36    34    1
     4    49    47    1
     5    21    20    1
     6    20    15    1
     7     2     8    1
     8     2     1   ar
     9     2     3   ar
    10    15    14   ar
    11    15    16   ar
    12     4    14    1
    13     4     5   ar
    14     4     3   ar
    15     6     5    1
    16     8     9    1
    17    19    18    1
    18    14    18   ar
    19     5     1   ar
    20     1     7    1
    21     3    10    1
    22    18    17   ar
    23    17    16   ar
    24    17    26    1
    25    10    13    1
    26    10    11    1
    27    16    22    1
    28    33    32    1
    29    32    27    1
    30    26    27   ar
    31    26    30   ar
    32    27    28   ar
    33    31    30    1
    34    30    29   ar
    35    22    25    1
    36    22    23    1
    37    29    28   ar
    38    29    38    1
    39    28    34    1
    40    46    45    1
    41    45    39    1
    42    38    39   ar
    43    38    42   ar
    44    43    42    1
    45    39    40   ar
    46    42    41   ar
    47    34    37    1
    48    34    35    1
    49    41    40   ar
    50    41    44    1
    51    40    47    1
    52    47    50    1
    53    47    48    1
