@<TRIPOS>MOLECULE
mol_data/noopt/geoms/mol2/13fi6hd(110)12if(210)6ff(330).out
 48 51 0 0 0
SMALL
GASTEIGER

@<TRIPOS>ATOM
      1 C           1.1215   -0.3259    0.0002 C.ar    1  LIG1        0.0444
      2 C           0.7176    0.9721   -0.0005 C.ar    1  LIG1        0.1375
      3 C          -0.7144    0.9744    0.0003 C.ar    1  LIG1        0.0163
      4 C          -1.1226   -0.3223   -0.0003 C.ar    1  LIG1        0.0563
      5 N          -0.0018   -1.1217    0.0001 N.ar    1  LIG1       -0.3573
      6 H          -0.0034   -2.1157   -0.0003 H       1  LIG1        0.1655
      7 H           2.3167   -0.8373    0.0007 H       1  LIG1        0.0844
      8 O           1.4918    2.0165   -0.0003 O.3     1  LIG1       -0.5050
      9 H           0.9557    2.8128   -0.0003 H       1  LIG1        0.2922
     10 C          -1.4855    2.0214    0.0010 C.3     1  LIG1       -0.0342
     11 H          -2.4003    1.7904    0.5056 H       1  LIG1        0.0279
     12 H          -1.6974    2.3090   -1.0077 H       1  LIG1        0.0279
     13 H          -0.9933    2.8265    0.5056 H       1  LIG1        0.0279
     14 C          -3.1364   -0.7252   -1.1407 C.ar    1  LIG1        0.1262
     15 C          -2.3194   -0.8299   -0.0001 C.ar    1  LIG1        0.0394
     16 C          -2.8235   -1.4883    1.1230 C.ar    1  LIG1       -0.0297
     17 C          -4.1152   -2.0151    1.0697 C.ar    1  LIG1        0.0815
     18 C          -4.8554   -1.8595   -0.1166 C.ar    1  LIG1        0.1258
     19 N          -4.3846   -1.2275   -1.2094 N.ar    1  LIG1       -0.2274
     20 H          -2.2148   -1.5888    2.0328 H       1  LIG1        0.0639
     21 N          -2.7115   -0.1216   -2.2107 N.pl3   1  LIG1       -0.3426
     22 H          -2.1582   -0.7541   -2.7528 H       1  LIG1        0.1437
     23 H          -3.4935    0.1859   -2.7528 H       1  LIG1        0.1437
     24 N          -5.0842   -3.1848    2.9877 N.1     1  LIG1       -0.1908
     25 C          -4.6300   -2.6366    2.0888 C.1     1  LIG1        0.1014
     26 C          -6.0623   -2.3326   -0.2149 C.ar    1  LIG1        0.1617
     27 C          -6.6293   -3.4823   -0.7246 C.ar    1  LIG1        0.0390
     28 C          -8.0567   -3.3727   -0.5063 C.ar    1  LIG1        0.1664
     29 C          -8.2672   -2.1629    0.1227 C.ar    1  LIG1        0.1824
     30 O          -7.0525   -1.5032    0.3134 O.2     1  LIG1       -0.4490
     31 C          -6.0250   -4.4829   -1.2941 C.3     1  LIG1       -0.0325
     32 H          -4.9972   -4.4948   -0.9968 H       1  LIG1        0.0280
     33 H          -6.0876   -4.3791   -2.3572 H       1  LIG1        0.0280
     34 H          -6.4929   -5.3981   -0.9968 H       1  LIG1        0.0280
     35 O          -8.9454   -4.2582   -0.8471 O.3     1  LIG1       -0.5030
     36 H          -8.5258   -5.1175   -0.9311 H       1  LIG1        0.2923
     37 C         -10.2535   -2.1651    1.3768 C.ar    1  LIG1        0.2236
     38 C          -9.3052   -1.5168    0.5645 C.ar    1  LIG1        0.0856
     39 C          -9.5064   -0.1721    0.2481 C.ar    1  LIG1       -0.0028
     40 C         -10.6378    0.4741    0.7490 C.ar    1  LIG1        0.1358
     41 C         -11.5292   -0.2594    1.5532 C.ar    1  LIG1        0.0728
     42 N         -11.3505   -1.5571    1.8685 N.ar    1  LIG1       -0.2172
     43 H          -8.7875    0.3674   -0.3847 H       1  LIG1        0.0663
     44 H         -12.5966    0.2981    2.0429 H       1  LIG1        0.0868
     45 O         -10.1099   -3.4164    1.6987 O.3     1  LIG1       -0.4919
     46 H          -9.1754   -3.6216    1.7781 H       1  LIG1        0.2937
     47 O         -10.8702    1.7253    0.4829 O.3     1  LIG1       -0.5052
     48 H         -11.8172    1.8683    0.4174 H       1  LIG1        0.2922
@<TRIPOS>BOND
     1    23    21    1
     2    22    21    1
     3    33    31    1
     4    21    14    1
     5    31    34    1
     6    31    32    1
     7    31    27    1
     8    19    14   ar
     9    19    18   ar
    10    14    15   ar
    11    12    10    1
    12    36    35    1
    13    35    28    1
    14    27    28   ar
    15    27    26   ar
    16    28    29   ar
    17    43    39    1
    18    26    18    1
    19    26    30   ar
    20    18    17   ar
    21     2     8    1
    22     2     1   ar
    23     2     3   ar
    24     8     9    1
    25     6     5    1
    26     4    15    1
    27     4     5   ar
    28     4     3   ar
    29    15    16   ar
    30     5     1   ar
    31     1     7    1
    32     3    10    1
    33    10    13    1
    34    10    11    1
    35    29    30   ar
    36    29    38    1
    37    39    38   ar
    38    39    40   ar
    39    48    47    1
    40    47    40    1
    41    38    37   ar
    42    40    41   ar
    43    17    16   ar
    44    17    25    1
    45    16    20    1
    46    37    45    1
    47    37    42   ar
    48    41    42   ar
    49    41    44    1
    50    45    46    1
    51    25    24    3
