@<TRIPOS>MOLECULE
mol_data/noopt/geoms/mol2/13fi6el13ef4al-.out
 54 57 0 0 0
SMALL
GASTEIGER

@<TRIPOS>ATOM
      1 C           1.1215   -0.3259    0.0002 C.ar    1  LIG1        0.0444
      2 C           0.7176    0.9721   -0.0005 C.ar    1  LIG1        0.1375
      3 C          -0.7144    0.9744    0.0003 C.ar    1  LIG1        0.0163
      4 C          -1.1226   -0.3223   -0.0003 C.ar    1  LIG1        0.0558
      5 N          -0.0018   -1.1217    0.0001 N.ar    1  LIG1       -0.3573
      6 H          -0.0034   -2.1157   -0.0003 H       1  LIG1        0.1655
      7 H           2.3167   -0.8373    0.0007 H       1  LIG1        0.0844
      8 O           1.4918    2.0165   -0.0003 O.3     1  LIG1       -0.5050
      9 H           0.9557    2.8128   -0.0003 H       1  LIG1        0.2922
     10 C          -1.4855    2.0214    0.0010 C.3     1  LIG1       -0.0342
     11 H          -2.4003    1.7904    0.5056 H       1  LIG1        0.0279
     12 H          -1.6974    2.3090   -1.0077 H       1  LIG1        0.0279
     13 H          -0.9933    2.8265    0.5056 H       1  LIG1        0.0279
     14 C          -2.5001   -2.2252    0.0002 C.ar    1  LIG1        0.1232
     15 C          -2.3194   -0.8299   -0.0001 C.ar    1  LIG1        0.0360
     16 C          -3.4502   -0.0112    0.0002 C.ar    1  LIG1       -0.0060
     17 C          -4.7120   -0.6082    0.0005 C.ar    1  LIG1        0.1481
     18 C          -4.7903   -2.0130    0.0006 C.ar    1  LIG1        0.1313
     19 N          -3.7098   -2.8179    0.0005 N.ar    1  LIG1       -0.2326
     20 H          -3.3485    1.0833   -0.0010 H       1  LIG1        0.0662
     21 C          -1.4781   -3.0286    0.0000 C.1     1  LIG1       -0.0491
     22 C          -0.5338   -3.7711   -0.0001 C.1     1  LIG1       -0.1124
     23 H           0.3073   -4.4324   -0.0002 H       1  LIG1        0.1232
     24 O          -5.7955    0.1103    0.0006 O.3     1  LIG1       -0.4929
     25 C          -5.4482    1.4975    0.0005 C.3     1  LIG1        0.0789
     26 H          -6.3402    2.0885    0.0004 H       1  LIG1        0.0660
     27 H          -4.8724    1.7211    0.8743 H       1  LIG1        0.0660
     28 H          -4.8722    1.7210   -0.8730 H       1  LIG1        0.0660
     29 C          -5.9423   -2.6153    0.0010 C.ar    1  LIG1        0.0883
     30 C          -7.2032   -2.1074    0.0175 C.ar    1  LIG1        0.0935
     31 C          -8.1106   -3.2151    0.0102 C.ar    1  LIG1        0.1581
     32 C          -7.3645   -4.3512   -0.0122 C.ar    1  LIG1        0.0903
     33 N          -6.0364   -3.9886   -0.0175 N.ar    1  LIG1       -0.3489
     34 H          -5.2676   -4.6184   -0.0328 H       1  LIG1        0.1661
     35 C          -7.5223   -0.8473    0.0378 C.1     1  LIG1       -0.0638
     36 C          -7.8173    0.3170    0.0565 C.1     1  LIG1       -0.1137
     37 H          -8.0800    1.3541    0.0732 H       1  LIG1        0.1232
     38 O          -9.4090   -3.1503    0.0222 O.3     1  LIG1       -0.5035
     39 H          -9.7741   -4.0381    0.0252 H       1  LIG1        0.2923
     40 C          -9.0983   -5.9317   -0.0121 C.ar    1  LIG1       -0.0523
     41 C          -9.4406   -7.2977   -0.0269 C.ar    1  LIG1       -0.0577
     42 C          -7.7283   -5.5992   -0.0265 C.ar    1  LIG1        0.0054
     43 C          -8.4637   -8.2903   -0.0554 C.ar    1  LIG1       -0.0199
     44 H         -10.4920   -7.5764   -0.0160 H       1  LIG1        0.0619
     45 C          -6.7526   -6.5898   -0.0550 C.ar    1  LIG1       -0.0107
     46 C          -7.1127   -7.9413   -0.0697 C.ar    1  LIG1        0.1207
     47 H          -5.7028   -6.3079   -0.0655 H       1  LIG1        0.0661
     48 H          -8.8154   -9.5418   -0.0686 H       1  LIG1        0.0654
     49 H         -10.0545   -5.0513    0.0143 H       1  LIG1        0.0624
     50 O          -6.1962   -8.8630   -0.0962 O.3     1  LIG1       -0.4951
     51 C          -6.8157  -10.1518   -0.1060 C.3     1  LIG1        0.0788
     52 H          -6.0610  -10.9101   -0.1279 H       1  LIG1        0.0660
     53 H          -7.4121  -10.2676    0.7749 H       1  LIG1        0.0660
     54 H          -7.4374  -10.2422   -0.9721 H       1  LIG1        0.0660
@<TRIPOS>BOND
     1    12    10    1
     2    54    51    1
     3    28    25    1
     4    52    51    1
     5    51    50    1
     6    51    53    1
     7    50    46    1
     8    46    43   ar
     9    46    45   ar
    10    48    43    1
    11    47    45    1
    12    43    41   ar
    13    45    42   ar
    14    34    33    1
    15    41    44    1
    16    41    40   ar
    17    42    32    1
    18    42    40   ar
    19    33    32   ar
    20    33    29   ar
    21    32    31   ar
    22    40    49    1
    23    20    16    1
    24     2     8    1
    25     2     1   ar
    26     2     3   ar
    27     4    15    1
    28     4     5   ar
    29     4     3   ar
    30     6     5    1
    31     8     9    1
    32    23    22    1
    33    15    14   ar
    34    15    16   ar
    35    22    21    3
    36    21    14    1
    37     5     1   ar
    38    14    19   ar
    39    16    17   ar
    40     1     7    1
    41     3    10    1
    42    26    25    1
    43    19    18   ar
    44    17    18   ar
    45    17    24    1
    46    25    24    1
    47    25    27    1
    48    18    29    1
    49    29    30   ar
    50    10    13    1
    51    10    11    1
    52    31    30   ar
    53    31    38    1
    54    30    35    1
    55    38    39    1
    56    35    36    3
    57    36    37    1
