@<TRIPOS>MOLECULE
mol_data/noopt/geoms/mol2/13fi13he13ie-12el-.out
 52 55 0 0 0
SMALL
GASTEIGER

@<TRIPOS>ATOM
      1 C           1.1215   -0.3259    0.0002 C.ar    1  LIG1        0.0444
      2 C           0.7176    0.9721   -0.0005 C.ar    1  LIG1        0.1376
      3 C          -0.7144    0.9744    0.0003 C.ar    1  LIG1        0.0177
      4 C          -1.1226   -0.3223   -0.0003 C.ar    1  LIG1        0.0713
      5 N          -0.0018   -1.1217    0.0001 N.ar    1  LIG1       -0.3562
      6 H          -0.0034   -2.1157   -0.0003 H       1  LIG1        0.1655
      7 H           2.3167   -0.8373    0.0007 H       1  LIG1        0.0844
      8 O           1.4918    2.0165   -0.0003 O.3     1  LIG1       -0.5050
      9 H           0.9557    2.8128   -0.0003 H       1  LIG1        0.2922
     10 C          -1.4855    2.0214    0.0010 C.3     1  LIG1       -0.0342
     11 H          -2.4003    1.7904    0.5056 H       1  LIG1        0.0279
     12 H          -1.6974    2.3090   -1.0077 H       1  LIG1        0.0279
     13 H          -0.9933    2.8265    0.5056 H       1  LIG1        0.0279
     14 C          -2.3194   -0.8299   -0.0001 C.ar    1  LIG1        0.0859
     15 C          -3.5352   -0.2220    0.0163 C.ar    1  LIG1        0.0679
     16 C          -4.5290   -1.2531    0.0088 C.ar    1  LIG1        0.0726
     17 C          -3.8768   -2.4456   -0.0136 C.ar    1  LIG1        0.0811
     18 N          -2.5238   -2.1911   -0.0187 N.ar    1  LIG1       -0.3494
     19 H          -1.8082   -2.8808   -0.0339 H       1  LIG1        0.1661
     20 N          -3.7519    1.0596    0.0366 N.pl3   1  LIG1       -0.3553
     21 H          -3.0036    1.5316   -0.4295 H       1  LIG1        0.1424
     22 H          -4.6137    1.2594   -0.4295 H       1  LIG1        0.1424
     23 C          -5.8179   -1.0839    0.0207 C.1     1  LIG1       -0.0656
     24 C          -7.0088   -0.9275    0.0317 C.1     1  LIG1       -0.1138
     25 H          -8.0697   -0.7883    0.0414 H       1  LIG1        0.1232
     26 C          -4.3399   -3.6602   -0.0280 C.ar    1  LIG1        0.0688
     27 C          -5.6206   -4.1159   -0.0215 C.ar    1  LIG1       -0.0076
     28 C          -5.5656   -5.5467   -0.0437 C.ar    1  LIG1        0.0565
     29 C          -4.2537   -5.9024   -0.0646 C.ar    1  LIG1        0.0997
     30 N          -3.4998   -4.7505   -0.0546 N.ar    1  LIG1       -0.3494
     31 H          -2.5066   -4.7122   -0.0655 H       1  LIG1        0.1661
     32 C          -6.6953   -3.3842    0.0022 C.3     1  LIG1       -0.0365
     33 H          -7.4741   -3.9108    0.5131 H       1  LIG1        0.0279
     34 H          -7.0053   -3.1732   -0.9999 H       1  LIG1        0.0279
     35 H          -6.4907   -2.4665    0.5130 H       1  LIG1        0.0279
     36 C          -6.5806   -6.3589   -0.0444 C.1     1  LIG1       -0.0672
     37 C          -7.5185   -7.1094   -0.0450 C.1     1  LIG1       -0.1138
     38 H          -8.3539   -7.7780   -0.0456 H       1  LIG1        0.1232
     39 C          -3.6987   -7.0777   -0.0891 C.ar    1  LIG1        0.1711
     40 C          -4.1536   -8.3799   -0.1076 C.ar    1  LIG1        0.1134
     41 C          -2.9807   -9.2287   -0.1315 C.ar    1  LIG1        0.1736
     42 C          -1.8863   -8.3885   -0.1261 C.ar    1  LIG1        0.1354
     43 O          -2.3033   -7.0573   -0.1001 O.2     1  LIG1       -0.4564
     44 H          -0.5961   -8.5479   -0.1391 H       1  LIG1        0.1068
     45 C          -5.3865   -8.7921   -0.1046 C.1     1  LIG1       -0.0621
     46 C          -6.5257   -9.1730   -0.1018 C.1     1  LIG1       -0.1137
     47 H          -7.5405   -9.5122   -0.0994 H       1  LIG1        0.1232
     48 O          -2.9864  -10.5286   -0.1535 O.3     1  LIG1       -0.4907
     49 C          -4.3365  -10.9998   -0.1617 C.3     1  LIG1        0.0790
     50 H          -4.3408  -12.0696   -0.1800 H       1  LIG1        0.0660
     51 H          -4.8396  -10.6562    0.7180 H       1  LIG1        0.0660
     52 H          -4.8395  -10.6262   -1.0291 H       1  LIG1        0.0660
@<TRIPOS>BOND
     1    52    49    1
     2    12    10    1
     3    34    32    1
     4    22    20    1
     5    21    20    1
     6    50    49    1
     7    49    48    1
     8    49    51    1
     9    48    41    1
    10    44    42    1
    11    41    42   ar
    12    41    40   ar
    13    42    43   ar
    14    40    45    1
    15    40    39   ar
    16    45    46    3
    17    46    47    1
    18    43    39   ar
    19    39    29    1
    20    31    30    1
    21    29    30   ar
    22    29    28   ar
    23    30    26   ar
    24    38    37    1
    25    37    36    3
    26    36    28    1
    27    28    27   ar
    28    19    18    1
    29    26    27   ar
    30    26    17    1
    31    27    32    1
    32    18    17   ar
    33    18    14   ar
    34    17    16   ar
    35     2     8    1
    36     2     1   ar
    37     2     3   ar
    38     4    14    1
    39     4     5   ar
    40     4     3   ar
    41     6     5    1
    42     8     9    1
    43    14    15   ar
    44     5     1   ar
    45     1     7    1
    46     3    10    1
    47    10    13    1
    48    10    11    1
    49    32    35    1
    50    32    33    1
    51    16    15   ar
    52    16    23    1
    53    15    20    1
    54    23    24    3
    55    24    25    1
