@<TRIPOS>MOLECULE
mol_data/noopt/geoms/mol2/13fi13fi13fi.out
 38 40 0 0 0
SMALL
GASTEIGER

@<TRIPOS>ATOM
      1 C           1.1215   -0.3259    0.0002 C.ar    1  LIG1        0.0445
      2 C           0.7176    0.9721   -0.0005 C.ar    1  LIG1        0.1376
      3 C          -0.7144    0.9744    0.0003 C.ar    1  LIG1        0.0178
      4 C          -1.1226   -0.3223   -0.0003 C.ar    1  LIG1        0.0730
      5 N          -0.0018   -1.1217    0.0001 N.ar    1  LIG1       -0.3561
      6 H          -0.0034   -2.1157   -0.0003 H       1  LIG1        0.1655
      7 H           2.3167   -0.8373    0.0007 H       1  LIG1        0.0844
      8 O           1.4918    2.0165   -0.0003 O.3     1  LIG1       -0.5050
      9 H           0.9557    2.8128   -0.0003 H       1  LIG1        0.2922
     10 C          -1.4855    2.0214    0.0010 C.3     1  LIG1       -0.0342
     11 H          -2.4003    1.7904    0.5056 H       1  LIG1        0.0279
     12 H          -1.6974    2.3090   -1.0077 H       1  LIG1        0.0279
     13 H          -0.9933    2.8265    0.5056 H       1  LIG1        0.0279
     14 C          -2.3194   -0.8299   -0.0001 C.ar    1  LIG1        0.1060
     15 C          -3.5353   -0.2219   -0.0003 C.ar    1  LIG1        0.1470
     16 C          -4.5290   -1.2530    0.0012 C.ar    1  LIG1        0.0185
     17 C          -3.8767   -2.4457    0.0005 C.ar    1  LIG1        0.0735
     18 N          -2.5238   -2.1913    0.0002 N.ar    1  LIG1       -0.3486
     19 H          -1.8081   -2.8811   -0.0004 H       1  LIG1        0.1661
     20 O          -3.7520    1.0599   -0.0003 O.3     1  LIG1       -0.5043
     21 H          -4.6977    1.2250   -0.0003 H       1  LIG1        0.2922
     22 C          -5.8182   -1.0837    0.0025 C.3     1  LIG1       -0.0342
     23 H          -6.2852   -1.9035    0.5073 H       1  LIG1        0.0279
     24 H          -6.1729   -1.0372   -1.0060 H       1  LIG1        0.0279
     25 H          -6.0576   -0.1710    0.5072 H       1  LIG1        0.0279
     26 C          -4.3398   -3.6604    0.0012 C.ar    1  LIG1        0.1055
     27 C          -5.6206   -4.1160    0.0013 C.ar    1  LIG1        0.1463
     28 C          -5.5655   -5.5470    0.0033 C.ar    1  LIG1        0.0090
     29 C          -4.2535   -5.9029    0.0026 C.ar    1  LIG1        0.0087
     30 N          -3.4996   -4.7510    0.0018 N.ar    1  LIG1       -0.3563
     31 H          -2.5064   -4.7127    0.0010 H       1  LIG1        0.1655
     32 H          -3.6983   -7.0784    0.0036 H       1  LIG1        0.0811
     33 O          -6.6951   -3.3843    0.0012 O.3     1  LIG1       -0.5043
     34 H          -7.4693   -3.9519    0.0012 H       1  LIG1        0.2922
     35 C          -6.5808   -6.3594    0.0050 C.3     1  LIG1       -0.0348
     36 H          -6.3129   -7.2640    0.5099 H       1  LIG1        0.0279
     37 H          -6.8603   -6.5831   -1.0034 H       1  LIG1        0.0279
     38 H          -7.4046   -5.8996    0.5099 H       1  LIG1        0.0279
@<TRIPOS>BOND
     1    12    10    1
     2    24    22    1
     3    37    35    1
     4     2     8    1
     5     2     1   ar
     6     2     3   ar
     7    19    18    1
     8    15    20    1
     9    15    14   ar
    10    15    16   ar
    11     4    14    1
    12     4     5   ar
    13     4     3   ar
    14     6     5    1
    15     8     9    1
    16    20    21    1
    17    14    18   ar
    18     5     1   ar
    19    18    17   ar
    20     1     7    1
    21     3    10    1
    22    17    16   ar
    23    17    26    1
    24    31    30    1
    25    10    13    1
    26    10    11    1
    27    16    22    1
    28    26    27   ar
    29    26    30   ar
    30    34    33    1
    31    33    27    1
    32    27    28   ar
    33    30    29   ar
    34    22    25    1
    35    22    23    1
    36    29    28   ar
    37    29    32    1
    38    28    35    1
    39    35    38    1
    40    35    36    1
