@<TRIPOS>MOLECULE
mol_data/noopt/geoms/mol2/13fi13ee4hl-12ii-.out
 55 55 0 0 0
SMALL
GASTEIGER

@<TRIPOS>ATOM
      1 C           1.1215   -0.3259    0.0002 C.ar    1  LIG1        0.0444
      2 C           0.7176    0.9721   -0.0005 C.ar    1  LIG1        0.1376
      3 C          -0.7144    0.9744    0.0003 C.ar    1  LIG1        0.0177
      4 C          -1.1226   -0.3223   -0.0003 C.ar    1  LIG1        0.0706
      5 N          -0.0018   -1.1217    0.0001 N.ar    1  LIG1       -0.3562
      6 H          -0.0034   -2.1157   -0.0003 H       1  LIG1        0.1655
      7 H           2.3167   -0.8373    0.0007 H       1  LIG1        0.0844
      8 O           1.4918    2.0165   -0.0003 O.3     1  LIG1       -0.5050
      9 H           0.9557    2.8128   -0.0003 H       1  LIG1        0.2922
     10 C          -1.4855    2.0214    0.0010 C.3     1  LIG1       -0.0342
     11 H          -2.4003    1.7904    0.5056 H       1  LIG1        0.0279
     12 H          -1.6974    2.3090   -1.0077 H       1  LIG1        0.0279
     13 H          -0.9933    2.8265    0.5056 H       1  LIG1        0.0279
     14 C          -2.3194   -0.8299   -0.0001 C.ar    1  LIG1        0.0805
     15 C          -3.5352   -0.2220    0.0163 C.ar    1  LIG1        0.0673
     16 C          -4.5290   -1.2531    0.0088 C.ar    1  LIG1        0.0660
     17 C          -3.8768   -2.4456   -0.0136 C.ar    1  LIG1        0.0656
     18 N          -2.5238   -2.1911   -0.0187 N.ar    1  LIG1       -0.3510
     19 H          -1.8082   -2.8808   -0.0339 H       1  LIG1        0.1660
     20 C          -3.7519    1.0596    0.0366 C.1     1  LIG1       -0.0662
     21 C          -3.9521    2.2439    0.0554 C.1     1  LIG1       -0.1138
     22 H          -4.1304    3.2988    0.0722 H       1  LIG1        0.1232
     23 C          -5.8179   -1.0839    0.0207 C.1     1  LIG1       -0.0663
     24 C          -7.0088   -0.9275    0.0317 C.1     1  LIG1       -0.1138
     25 H          -8.0697   -0.7883    0.0414 H       1  LIG1        0.1232
     26 C          -5.7322   -3.8813   -0.0137 C.ar    1  LIG1        0.0346
     27 C          -6.1835   -5.2152   -0.0286 C.ar    1  LIG1       -0.0290
     28 C          -4.3399   -3.6602   -0.0280 C.ar    1  LIG1        0.0238
     29 C          -5.2897   -6.2834   -0.0572 C.ar    1  LIG1        0.0314
     30 H          -7.2539   -5.4084   -0.0178 H       1  LIG1        0.0643
     31 C          -3.4472   -4.7262   -0.0565 C.ar    1  LIG1       -0.0034
     32 C          -3.9150   -6.0443   -0.0714 C.ar    1  LIG1        0.1874
     33 H          -2.3781   -4.5297   -0.0670 H       1  LIG1        0.0663
     34 N          -6.6144   -2.9268    0.0127 N.pl3   1  LIG1       -0.3574
     35 H          -6.2475   -2.1208   -0.4518 H       1  LIG1        0.1423
     36 H          -7.4467   -3.2292   -0.4518 H       1  LIG1        0.1423
     37 O          -3.0757   -7.0368   -0.0980 O.3     1  LIG1       -0.2872
     38 C          -3.7970   -8.2716   -0.1078 C.3     2  LIG2       -0.0309
     39 H          -3.1059   -9.0881   -0.1298 H       1  LIG1        0.0309
     40 H          -4.4008   -8.3390    0.7731 H       0  HOH0        0.2052
     41 H          -4.4240   -8.3115   -0.9739 H       0  HOH0        0.2052
     42 C          -5.7410   -7.5025   -0.0705 C.2     1  LIG1       -0.0029
     43 C          -6.9896   -8.0889   -0.0658 C.2     1  LIG1       -0.0391
     44 C          -6.7754   -9.5209   -0.0894 C.2     1  LIG1       -0.0469
     45 C          -5.4095   -9.7145   -0.1071 C.2     1  LIG1       -0.0583
     46 O          -4.7501   -8.4849   -0.0960 O.3     3  HOH3       -0.4105
     47 H          -4.6207  -10.7476   -0.1310 H       1  LIG1        0.0620
     48 C          -8.1470   -7.4966   -0.0444 C.3     1  LIG1       -0.0389
     49 H          -8.8551   -8.1156    0.4659 H       1  LIG1        0.0278
     50 H          -8.4793   -7.3266   -1.0472 H       1  LIG1        0.0278
     51 H          -8.0590   -6.5602    0.4658 H       1  LIG1        0.0278
     52 C          -7.7083  -10.4267   -0.0928 C.3     1  LIG1       -0.0394
     53 H          -7.3566  -11.3029    0.4106 H       1  LIG1        0.0278
     54 H          -7.9623  -10.6734   -1.1026 H       1  LIG1        0.0278
     55 H          -8.5738  -10.0493    0.4106 H       1  LIG1        0.0278
@<TRIPOS>BOND
     1    54    52    1
     2    50    48    1
     3    12    10    1
     4    41    46    1
     5    36    34    1
     6    35    34    1
     7    47    45    1
     8    39    38    1
     9    45    44    2
    10    37    32    1
    11    46    40    1
    12    52    44    1
    13    52    55    1
    14    52    53    1
    15    44    43    1
    16    32    29   ar
    17    32    31   ar
    18    42    43    2
    19    42    29    1
    20    33    31    1
    21    43    48    1
    22    29    27   ar
    23    31    28   ar
    24    48    51    1
    25    48    49    1
    26    19    18    1
    27    27    30    1
    28    27    26   ar
    29    28    26   ar
    30    28    17    1
    31    18    17   ar
    32    18    14   ar
    33    26    34    1
    34    17    16   ar
    35     2     8    1
    36     2     1   ar
    37     2     3   ar
    38     8     9    1
    39     6     5    1
    40     4    14    1
    41     4     5   ar
    42     4     3   ar
    43    14    15   ar
    44     5     1   ar
    45     1     7    1
    46     3    10    1
    47    10    13    1
    48    10    11    1
    49    16    15   ar
    50    16    23    1
    51    15    20    1
    52    23    24    3
    53    24    25    1
    54    20    21    3
    55    21    22    1
