@<TRIPOS>MOLECULE
mol_data/noopt/geoms/mol2/13fi13fi-13fi.out
 38 40 0 0 0
SMALL
GASTEIGER

@<TRIPOS>ATOM
      1 C           1.1215   -0.3259    0.0002 C.ar    1  LIG1        0.0445
      2 C           0.7176    0.9721   -0.0005 C.ar    1  LIG1        0.1376
      3 C          -0.7144    0.9744    0.0003 C.ar    1  LIG1        0.0178
      4 C          -1.1226   -0.3223   -0.0003 C.ar    1  LIG1        0.0730
      5 N          -0.0018   -1.1217    0.0001 N.ar    1  LIG1       -0.3561
      6 H          -0.0034   -2.1157   -0.0003 H       1  LIG1        0.1655
      7 H           2.3167   -0.8373    0.0007 H       1  LIG1        0.0844
      8 O           1.4918    2.0165   -0.0003 O.3     1  LIG1       -0.5050
      9 H           0.9557    2.8128   -0.0003 H       1  LIG1        0.2922
     10 C          -1.4855    2.0214    0.0010 C.3     1  LIG1       -0.0342
     11 H          -2.4003    1.7904    0.5056 H       1  LIG1        0.0279
     12 H          -1.6974    2.3090   -1.0077 H       1  LIG1        0.0279
     13 H          -0.9933    2.8265    0.5056 H       1  LIG1        0.0279
     14 C          -2.3194   -0.8299   -0.0001 C.ar    1  LIG1        0.1060
     15 C          -2.7274   -2.1266   -0.0005 C.ar    1  LIG1        0.1470
     16 C          -4.1594   -2.1244    0.0011 C.ar    1  LIG1        0.0185
     17 C          -4.5635   -0.8264    0.0006 C.ar    1  LIG1        0.0735
     18 N          -3.4402   -0.0305    0.0003 N.ar    1  LIG1       -0.3486
     19 H          -3.4386    0.9635   -0.0001 H       1  LIG1        0.1661
     20 O          -1.9565   -3.1734   -0.0006 O.3     1  LIG1       -0.5043
     21 H          -1.0378   -2.8948   -0.0006 H       1  LIG1        0.2922
     22 C          -4.9338   -3.1690    0.0023 C.3     1  LIG1       -0.0342
     23 H          -4.4441   -3.9754    0.5071 H       1  LIG1        0.0279
     24 H          -5.1467   -3.4563   -1.0062 H       1  LIG1        0.0279
     25 H          -5.8478   -2.9348    0.5070 H       1  LIG1        0.0279
     26 C          -5.7587   -0.3150    0.0014 C.ar    1  LIG1        0.1055
     27 C          -6.1626    0.9830    0.0016 C.ar    1  LIG1        0.1463
     28 C          -7.5946    0.9853    0.0038 C.ar    1  LIG1        0.0090
     29 C          -8.0028   -0.3114    0.0030 C.ar    1  LIG1        0.0087
     30 N          -6.8820   -1.1108    0.0021 N.ar    1  LIG1       -0.3563
     31 H          -6.8836   -2.1048    0.0013 H       1  LIG1        0.1655
     32 H          -9.1996   -0.8190    0.0041 H       1  LIG1        0.0811
     33 O          -5.3884    2.0274    0.0015 O.3     1  LIG1       -0.5043
     34 H          -5.9245    2.8237    0.0015 H       1  LIG1        0.2922
     35 C          -8.3657    2.0323    0.0056 C.3     1  LIG1       -0.0348
     36 H          -9.2802    1.8009    0.5105 H       1  LIG1        0.0279
     37 H          -8.5781    2.3207   -1.0028 H       1  LIG1        0.0279
     38 H          -7.8732    2.8370    0.5105 H       1  LIG1        0.0279
@<TRIPOS>BOND
     1    12    10    1
     2    24    22    1
     3    37    35    1
     4    21    20    1
     5    20    15    1
     6     2     8    1
     7     2     1   ar
     8     2     3   ar
     9    15    14   ar
    10    15    16   ar
    11     4    14    1
    12     4     5   ar
    13     4     3   ar
    14     6     5    1
    15     8     9    1
    16    19    18    1
    17    14    18   ar
    18     5     1   ar
    19     1     7    1
    20     3    10    1
    21    18    17   ar
    22    17    16   ar
    23    17    26    1
    24    10    13    1
    25    10    11    1
    26    16    22    1
    27    31    30    1
    28    26    27   ar
    29    26    30   ar
    30    34    33    1
    31    33    27    1
    32    27    28   ar
    33    30    29   ar
    34    22    25    1
    35    22    23    1
    36    29    28   ar
    37    29    32    1
    38    28    35    1
    39    35    38    1
    40    35    36    1
