@<TRIPOS>MOLECULE
mol_data/noopt/geoms/mol2/13fi13ad4dd12ii-.out
 48 52 0 0 0
SMALL
GASTEIGER

@<TRIPOS>ATOM
      1 C           1.1215   -0.3259    0.0002 C.ar    1  LIG1        0.0444
      2 C           0.7176    0.9721   -0.0005 C.ar    1  LIG1        0.1376
      3 C          -0.7144    0.9744    0.0003 C.ar    1  LIG1        0.0177
      4 C          -1.1226   -0.3223   -0.0003 C.ar    1  LIG1        0.0694
      5 N          -0.0018   -1.1217    0.0001 N.ar    1  LIG1       -0.3562
      6 H          -0.0034   -2.1157   -0.0003 H       1  LIG1        0.1655
      7 H           2.3167   -0.8373    0.0007 H       1  LIG1        0.0844
      8 O           1.4918    2.0165   -0.0003 O.3     1  LIG1       -0.5050
      9 H           0.9557    2.8128   -0.0003 H       1  LIG1        0.2922
     10 C          -1.4855    2.0214    0.0010 C.3     1  LIG1       -0.0342
     11 H          -2.4003    1.7904    0.5056 H       1  LIG1        0.0279
     12 H          -1.6974    2.3090   -1.0077 H       1  LIG1        0.0279
     13 H          -0.9933    2.8265    0.5056 H       1  LIG1        0.0279
     14 C          -2.3194   -0.8299   -0.0001 C.ar    1  LIG1        0.0640
     15 C          -3.5352   -0.2220    0.0163 C.ar    1  LIG1       -0.0292
     16 C          -4.5290   -1.2531    0.0088 C.ar    1  LIG1        0.0061
     17 C          -3.8768   -2.4456   -0.0136 C.ar    1  LIG1        0.0525
     18 N          -2.5238   -2.1911   -0.0187 N.ar    1  LIG1       -0.3527
     19 H          -1.8082   -2.8808   -0.0339 H       1  LIG1        0.1660
     20 H          -3.7519    1.0596    0.0366 H       1  LIG1        0.0643
     21 N          -6.9547   -0.9346    0.0312 N.3     1  LIG1       -0.1262
     22 C          -5.8179   -1.0839    0.0207 C.3     1  LIG1        0.1365
     23 C          -5.7323   -3.8810   -0.0350 C.ar    1  LIG1       -0.0100
     24 C          -6.1836   -5.2150   -0.0490 C.ar    1  LIG1       -0.0440
     25 C          -4.3399   -3.6602   -0.0280 C.ar    1  LIG1        0.0051
     26 C          -5.2897   -6.2834   -0.0564 C.ar    1  LIG1        0.0352
     27 H          -7.2541   -5.4079   -0.0544 H       1  LIG1        0.0628
     28 C          -3.4471   -4.7265   -0.0353 C.ar    1  LIG1       -0.0342
     29 C          -3.9149   -6.0446   -0.0497 C.ar    1  LIG1        0.0630
     30 H          -2.3779   -4.5302   -0.0296 H       1  LIG1        0.0637
     31 N          -7.3928   -2.0841   -0.0236 N.3     1  LIG1       -0.1262
     32 C          -6.6146   -2.9262   -0.0289 C.3     1  LIG1        0.1351
     33 N          -2.3353   -7.9129   -0.0622 N.1     1  LIG1       -0.1908
     34 C          -3.0756   -7.0373   -0.0564 C.1     1  LIG1        0.0999
     35 C          -5.7411   -7.5024   -0.0695 C.ar    1  LIG1        0.1392
     36 C          -6.9897   -8.0889   -0.0646 C.ar    1  LIG1       -0.0018
     37 C          -6.7755   -9.5208   -0.0880 C.ar    1  LIG1       -0.0092
     38 C          -5.4096   -9.7145   -0.1058 C.ar    1  LIG1        0.0957
     39 O          -4.7502   -8.4849   -0.0949 O.2     1  LIG1       -0.4624
     40 H          -4.6208  -10.7476   -0.1295 H       1  LIG1        0.1032
     41 C          -8.1471   -7.4966   -0.0432 C.3     1  LIG1       -0.0359
     42 H          -8.8552   -8.1156    0.4670 H       1  LIG1        0.0279
     43 H          -8.4794   -7.3266   -1.0460 H       1  LIG1        0.0279
     44 H          -8.0591   -6.5601    0.4670 H       1  LIG1        0.0279
     45 C          -7.7084  -10.4267   -0.0912 C.3     1  LIG1       -0.0365
     46 H          -7.3566  -11.3028    0.4123 H       1  LIG1        0.0279
     47 H          -7.9625  -10.6735   -1.1009 H       1  LIG1        0.0279
     48 H          -8.5738  -10.0492    0.4123 H       1  LIG1        0.0279
@<TRIPOS>BOND
     1    47    45    1
     2    43    41    1
     3    12    10    1
     4    40    38    1
     5    38    39   ar
     6    38    37   ar
     7    39    35   ar
     8    45    37    1
     9    45    48    1
    10    45    46    1
    11    37    36   ar
    12    35    36   ar
    13    35    26    1
    14    36    41    1
    15    33    34    3
    16    26    29   ar
    17    26    24   ar
    18    34    29    1
    19    27    24    1
    20    29    28   ar
    21    24    23   ar
    22    41    44    1
    23    41    42    1
    24    28    30    1
    25    28    25   ar
    26    23    32    1
    27    23    25   ar
    28    19    18    1
    29    32    31    1
    30    25    17    1
    31    31    21    1
    32    18    17   ar
    33    18    14   ar
    34    17    16   ar
    35     2     8    1
    36     2     1   ar
    37     2     3   ar
    38     8     9    1
    39     6     5    1
    40     4    14    1
    41     4     5   ar
    42     4     3   ar
    43    14    15   ar
    44     5     1   ar
    45     1     7    1
    46     3    10    1
    47    10    13    1
    48    10    11    1
    49    16    15   ar
    50    16    22    1
    51    15    20    1
    52    22    21    1
