@<TRIPOS>MOLECULE
mol_data/noopt/geoms/mol2/13fl13fl13fl-13fl.out
 54 56 0 0 0
SMALL
GASTEIGER

@<TRIPOS>ATOM
      1 C           1.1215   -0.3259    0.0002 C.ar    1  LIG1        0.0480
      2 C           0.7176    0.9721   -0.0005 C.ar    1  LIG1        0.1769
      3 C          -0.7144    0.9744    0.0003 C.ar    1  LIG1        0.1882
      4 C          -1.1226   -0.3223   -0.0003 C.ar    1  LIG1        0.1126
      5 N          -0.0018   -1.1217    0.0001 N.ar    1  LIG1       -0.3534
      6 H          -0.0034   -2.1157   -0.0003 H       1  LIG1        0.1656
      7 H           2.3167   -0.8373    0.0007 H       1  LIG1        0.0845
      8 O           1.4918    2.0165   -0.0003 O.3     1  LIG1       -0.5023
      9 H           0.9557    2.8128   -0.0003 H       1  LIG1        0.2923
     10 O          -1.4853    2.0212    0.0010 O.3     1  LIG1       -0.4895
     11 C          -0.6829    3.2049    0.0012 C.3     1  LIG1        0.0791
     12 H          -1.3178    4.0662    0.0016 H       1  LIG1        0.0660
     13 H          -0.0650    3.2168    0.8747 H       1  LIG1        0.0660
     14 H          -0.0654    3.2174   -0.8726 H       1  LIG1        0.0660
     15 C          -2.3194   -0.8299   -0.0001 C.ar    1  LIG1        0.1129
     16 C          -3.5353   -0.2219   -0.0003 C.ar    1  LIG1        0.1866
     17 C          -4.5290   -1.2530    0.0012 C.ar    1  LIG1        0.1889
     18 C          -3.8767   -2.4457    0.0005 C.ar    1  LIG1        0.1131
     19 N          -2.5238   -2.1913    0.0002 N.ar    1  LIG1       -0.3458
     20 H          -1.8081   -2.8811   -0.0004 H       1  LIG1        0.1662
     21 O          -3.7520    1.0599   -0.0003 O.3     1  LIG1       -0.5019
     22 H          -4.6977    1.2250   -0.0003 H       1  LIG1        0.2924
     23 O          -5.8180   -1.0837    0.0025 O.3     1  LIG1       -0.4895
     24 C          -6.1157    0.3150    0.0029 C.3     1  LIG1        0.0791
     25 H          -7.1766    0.4539    0.0038 H       1  LIG1        0.0660
     26 H          -5.6958    0.7688    0.8763 H       1  LIG1        0.0660
     27 H          -5.6973    0.7690   -0.8710 H       1  LIG1        0.0660
     28 C          -4.3398   -3.6604    0.0012 C.ar    1  LIG1        0.1131
     29 C          -3.6874   -4.8530    0.0012 C.ar    1  LIG1        0.1917
     30 C          -4.6811   -5.8841    0.0032 C.ar    1  LIG1        0.2474
     31 C          -5.8970   -5.2763    0.0027 C.ar    1  LIG1        0.1202
     32 N          -5.6927   -3.9149    0.0019 N.ar    1  LIG1       -0.3456
     33 H          -6.4084   -3.2251    0.0013 H       1  LIG1        0.1662
     34 O          -2.3984   -5.0223    0.0009 O.3     1  LIG1       -0.5017
     35 H          -1.9629   -4.1668    0.0009 H       1  LIG1        0.2924
     36 O          -4.4643   -7.1660    0.0049 O.3     1  LIG1       -0.2817
     37 C          -5.7139   -7.8613    0.0054 C.3     2  LIG2       -0.0776
     38 H          -5.5350   -8.9163    0.0066 H       1  LIG1        0.0194
     39 H          -6.2710   -7.5931    0.8787 H       1  LIG1        0.0194
     40 H          -6.2707   -7.5950   -0.8686 H       1  LIG1        0.0194
     41 C          -7.0939   -5.7839    0.0038 C.ar    1  LIG1        0.1360
     42 C          -8.3097   -5.1759    0.0043 C.ar    1  LIG1        0.1880
     43 C          -9.3034   -6.2070    0.0067 C.ar    1  LIG1        0.1815
     44 C          -8.6511   -7.3997    0.0060 C.ar    1  LIG1        0.0738
     45 N          -7.2982   -7.1453    0.0047 N.ar    1  LIG1       -0.2458
     46 H          -6.5825   -7.8351    0.0038 H       1  LIG1        0.0194
     47 H          -9.1142   -8.6144    0.0073 H       1  LIG1        0.0868
     48 O          -8.5264   -3.8941    0.0041 O.3     1  LIG1       -0.5018
     49 H          -9.4721   -3.7290    0.0040 H       1  LIG1        0.2924
     50 O         -10.5924   -6.0377    0.0089 O.3     1  LIG1       -0.4900
     51 C         -10.8901   -4.6390    0.0096 C.3     1  LIG1        0.0790
     52 H         -11.9510   -4.5001    0.0111 H       1  LIG1        0.0660
     53 H         -10.4697   -4.1853    0.8827 H       1  LIG1        0.0660
     54 H         -10.4723   -4.1850   -0.8646 H       1  LIG1        0.0660
@<TRIPOS>BOND
     1    14    11    1
     2    27    24    1
     3    40    37    1
     4    54    51    1
     5     2     8    1
     6     2     1   ar
     7     2     3   ar
     8    20    19    1
     9    16    21    1
    10    16    15   ar
    11    16    17   ar
    12     4    15    1
    13     4     5   ar
    14     4     3   ar
    15     6     5    1
    16     8     9    1
    17    21    22    1
    18    15    19   ar
    19     5     1   ar
    20    19    18   ar
    21     1     7    1
    22     3    10    1
    23    18    17   ar
    24    18    28    1
    25    35    34    1
    26    34    29    1
    27    10    11    1
    28    29    28   ar
    29    29    30   ar
    30    11    12    1
    31    11    13    1
    32    17    23    1
    33    28    32   ar
    34    33    32    1
    35    32    31   ar
    36    23    24    1
    37    31    30   ar
    38    31    41    1
    39    24    25    1
    40    24    26    1
    41    30    36    1
    42    46    37    1
    43    41    42   ar
    44    41    45   ar
    45    49    48    1
    46    48    42    1
    47    42    43   ar
    48    45    44   ar
    49    37    38    1
    50    37    39    1
    51    44    43   ar
    52    44    47    1
    53    43    50    1
    54    50    51    1
    55    51    52    1
    56    51    53    1
