@<TRIPOS>MOLECULE
mol_data/noopt/geoms/mol2/13fl12ei12hd(60)6eh.out
 50 53 0 0 0
SMALL
GASTEIGER

@<TRIPOS>ATOM
      1 C           1.1215   -0.3259    0.0002 C.ar    1  LIG1        0.0480
      2 C           0.7176    0.9721   -0.0005 C.ar    1  LIG1        0.1769
      3 C          -0.7144    0.9744    0.0003 C.ar    1  LIG1        0.1897
      4 C          -1.1226   -0.3223   -0.0003 C.ar    1  LIG1        0.1293
      5 N          -0.0018   -1.1217    0.0001 N.ar    1  LIG1       -0.3522
      6 H          -0.0034   -2.1157   -0.0003 H       1  LIG1        0.1656
      7 H           2.3167   -0.8373    0.0007 H       1  LIG1        0.0845
      8 O           1.4918    2.0165   -0.0003 O.3     1  LIG1       -0.5023
      9 H           0.9557    2.8128   -0.0003 H       1  LIG1        0.2923
     10 O          -1.4853    2.0212    0.0010 O.3     1  LIG1       -0.4894
     11 C          -0.6829    3.2049    0.0012 C.3     1  LIG1        0.0791
     12 H          -1.3178    4.0662    0.0016 H       1  LIG1        0.0660
     13 H          -0.0650    3.2168    0.8747 H       1  LIG1        0.0660
     14 H          -0.0654    3.2174   -0.8726 H       1  LIG1        0.0660
     15 C          -2.3194   -0.8299   -0.0001 C.ar    1  LIG1        0.1712
     16 C          -3.6024   -0.3233    0.0148 C.ar    1  LIG1        0.0755
     17 C          -4.4979   -1.4613    0.0044 C.ar    1  LIG1        0.0145
     18 C          -3.7022   -2.5883   -0.0164 C.ar    1  LIG1        0.1766
     19 O          -2.3551   -2.2249   -0.0196 O.2     1  LIG1       -0.4485
     20 C          -3.9648    0.9250    0.0347 C.1     1  LIG1       -0.0655
     21 C          -4.2997    2.0784    0.0530 C.1     1  LIG1       -0.1138
     22 H          -4.5979    3.1059    0.0693 H       1  LIG1        0.1232
     23 C          -5.7969   -1.4036    0.0131 C.3     1  LIG1       -0.0348
     24 H          -6.1886   -2.2607    0.5199 H       1  LIG1        0.0279
     25 H          -6.1600   -1.3875   -0.9933 H       1  LIG1        0.0279
     26 H          -6.1110   -0.5151    0.5199 H       1  LIG1        0.0279
     27 C          -3.9133   -3.8709   -0.0331 C.ar    1  LIG1        0.1927
     28 C          -4.5999   -4.7650    0.7620 C.ar    1  LIG1        0.0923
     29 C          -4.4256   -6.0717    0.1629 C.ar    1  LIG1        0.1188
     30 C          -3.6437   -5.8894   -0.9592 C.ar    1  LIG1        0.1577
     31 O          -3.3151   -4.5408   -1.1013 O.2     1  LIG1       -0.4484
     32 N          -5.2781   -4.5116    1.8418 N.pl3   1  LIG1       -0.3539
     33 H          -5.5329   -3.5447    1.8561 H       1  LIG1        0.1425
     34 H          -6.1046   -5.0743    1.8561 H       1  LIG1        0.1425
     35 N          -5.3585   -8.1669    1.0149 N.1     1  LIG1       -0.1907
     36 C          -4.9213   -7.1850    0.6156 C.1     1  LIG1        0.1049
     37 C          -1.8647   -6.4383   -2.3917 C.ar    1  LIG1        0.1239
     38 C          -3.1581   -6.6618   -1.8852 C.ar    1  LIG1        0.0541
     39 C          -3.9005   -7.7266   -2.3990 C.ar    1  LIG1       -0.0262
     40 C          -3.3314   -8.5251   -3.3925 C.ar    1  LIG1        0.0437
     41 C          -2.0306   -8.2217   -3.8346 C.ar    1  LIG1        0.0496
     42 N          -1.3002   -7.1986   -3.3499 N.ar    1  LIG1       -0.2442
     43 H          -4.9150   -7.9316   -2.0287 H       1  LIG1        0.0644
     44 H          -1.4579   -8.9360   -4.7576 H       1  LIG1        0.0849
     45 C          -1.1349   -5.4596   -1.9450 C.1     1  LIG1       -0.0491
     46 C          -0.4606   -4.5553   -1.5323 C.1     1  LIG1       -0.1124
     47 H           0.1401   -3.7498   -1.1646 H       1  LIG1        0.1232
     48 N          -3.9817   -9.5282   -3.9032 N.pl3   1  LIG1       -0.3568
     49 H          -4.7328   -9.1858   -4.4677 H       1  LIG1        0.1424
     50 H          -3.3627  -10.0742   -4.4677 H       1  LIG1        0.1424
@<TRIPOS>BOND
     1    44    41    1
     2    50    48    1
     3    49    48    1
     4    48    40    1
     5    41    40   ar
     6    41    42   ar
     7    40    39   ar
     8    42    37   ar
     9    39    43    1
    10    39    38   ar
    11    37    45    1
    12    37    38   ar
    13    45    46    3
    14    38    30    1
    15    46    47    1
    16    31    30   ar
    17    31    27   ar
    18    25    23    1
    19    30    29   ar
    20    14    11    1
    21    27    18    1
    22    27    28   ar
    23    19    18   ar
    24    19    15   ar
    25    18    17   ar
    26     2     8    1
    27     2     1   ar
    28     2     3   ar
    29     8     9    1
    30     6     5    1
    31     4    15    1
    32     4     5   ar
    33     4     3   ar
    34    15    16   ar
    35     5     1   ar
    36     1     7    1
    37     3    10    1
    38    10    11    1
    39    11    12    1
    40    11    13    1
    41    17    23    1
    42    17    16   ar
    43    23    26    1
    44    23    24    1
    45    16    20    1
    46    20    21    3
    47    21    22    1
    48    29    36    1
    49    29    28   ar
    50    36    35    3
    51    28    32    1
    52    32    33    1
    53    32    34    1
