@<TRIPOS>MOLECULE
mol_data/noopt/geoms/mol2/13fl13fl-.out
 28 29 0 0 0
SMALL
GASTEIGER

@<TRIPOS>ATOM
      1 C           1.1215   -0.3259    0.0002 C.ar    1  LIG1        0.0480
      2 C           0.7176    0.9721   -0.0005 C.ar    1  LIG1        0.1769
      3 C          -0.7144    0.9744    0.0003 C.ar    1  LIG1        0.1882
      4 C          -1.1226   -0.3223   -0.0003 C.ar    1  LIG1        0.1126
      5 N          -0.0018   -1.1217    0.0001 N.ar    1  LIG1       -0.3534
      6 H          -0.0034   -2.1157   -0.0003 H       1  LIG1        0.1656
      7 H           2.3167   -0.8373    0.0007 H       1  LIG1        0.0845
      8 O           1.4918    2.0165   -0.0003 O.3     1  LIG1       -0.5023
      9 H           0.9557    2.8128   -0.0003 H       1  LIG1        0.2923
     10 O          -1.4853    2.0212    0.0010 O.3     1  LIG1       -0.4895
     11 C          -0.6829    3.2049    0.0012 C.3     1  LIG1        0.0791
     12 H          -1.3178    4.0662    0.0016 H       1  LIG1        0.0660
     13 H          -0.0650    3.2168    0.8747 H       1  LIG1        0.0660
     14 H          -0.0654    3.2174   -0.8726 H       1  LIG1        0.0660
     15 C          -2.3194   -0.8299   -0.0001 C.ar    1  LIG1        0.1124
     16 C          -2.7274   -2.1266   -0.0005 C.ar    1  LIG1        0.1859
     17 C          -4.1594   -2.1244    0.0011 C.ar    1  LIG1        0.1793
     18 C          -4.5635   -0.8264    0.0006 C.ar    1  LIG1        0.0482
     19 N          -3.4402   -0.0305    0.0003 N.ar    1  LIG1       -0.3534
     20 H          -3.4386    0.9635   -0.0001 H       1  LIG1        0.1656
     21 H          -5.7587   -0.3150    0.0014 H       1  LIG1        0.0845
     22 O          -1.9565   -3.1734   -0.0006 O.3     1  LIG1       -0.5019
     23 H          -1.0378   -2.8948   -0.0006 H       1  LIG1        0.2924
     24 O          -4.9337   -3.1687    0.0023 O.3     1  LIG1       -0.4900
     25 C          -6.3008   -2.7494    0.0027 C.3     1  LIG1        0.0790
     26 H          -6.9376   -3.6092    0.0035 H       1  LIG1        0.0660
     27 H          -6.4935   -2.1620    0.8761 H       1  LIG1        0.0660
     28 H          -6.4943   -2.1631   -0.8712 H       1  LIG1        0.0660
@<TRIPOS>BOND
     1    14    11    1
     2    28    25    1
     3    23    22    1
     4    22    16    1
     5     2     8    1
     6     2     1   ar
     7     2     3   ar
     8    16    15   ar
     9    16    17   ar
    10     4    15    1
    11     4     5   ar
    12     4     3   ar
    13     6     5    1
    14     8     9    1
    15    20    19    1
    16    15    19   ar
    17     5     1   ar
    18     1     7    1
    19     3    10    1
    20    19    18   ar
    21    18    17   ar
    22    18    21    1
    23    10    11    1
    24    17    24    1
    25    11    12    1
    26    11    13    1
    27    24    25    1
    28    25    26    1
    29    25    27    1
