@<TRIPOS>MOLECULE
mol_data/noopt/geoms/mol2/13fl6al(130)4li(10)12he(40).out
 56 59 0 0 0
SMALL
GASTEIGER

@<TRIPOS>ATOM
      1 C           1.1215   -0.3259    0.0002 C.ar    1  LIG1        0.0479
      2 C           0.7176    0.9721   -0.0005 C.ar    1  LIG1        0.1768
      3 C          -0.7144    0.9744    0.0003 C.ar    1  LIG1        0.1867
      4 C          -1.1226   -0.3223   -0.0003 C.ar    1  LIG1        0.0940
      5 N          -0.0018   -1.1217    0.0001 N.ar    1  LIG1       -0.3546
      6 H          -0.0034   -2.1157   -0.0003 H       1  LIG1        0.1656
      7 H           2.3167   -0.8373    0.0007 H       1  LIG1        0.0845
      8 O           1.4918    2.0165   -0.0003 O.3     1  LIG1       -0.5023
      9 H           0.9557    2.8128   -0.0003 H       1  LIG1        0.2923
     10 O          -1.4853    2.0212    0.0010 O.3     1  LIG1       -0.4895
     11 C          -0.6829    3.2049    0.0012 C.3     1  LIG1        0.0791
     12 H          -1.3178    4.0662    0.0016 H       1  LIG1        0.0660
     13 H          -0.0650    3.2168    0.8747 H       1  LIG1        0.0660
     14 H          -0.0654    3.2174   -0.8726 H       1  LIG1        0.0660
     15 C          -3.2790   -0.3890   -0.9297 C.ar    1  LIG1        0.0377
     16 C          -2.3194   -0.8299   -0.0001 C.ar    1  LIG1        0.0236
     17 C          -2.6832   -1.8193    0.9152 C.ar    1  LIG1       -0.0071
     18 C          -3.9815   -2.3303    0.8717 C.ar    1  LIG1        0.1467
     19 C          -4.8700   -1.8250   -0.0951 C.ar    1  LIG1        0.1160
     20 N          -4.5358   -0.8709   -0.9857 N.ar    1  LIG1       -0.2505
     21 H          -1.9607   -2.1881    1.6570 H       1  LIG1        0.0662
     22 H          -2.9878    0.5301   -1.8018 H       1  LIG1        0.0836
     23 O          -4.3690   -3.2523    1.7024 O.3     1  LIG1       -0.4929
     24 C          -5.7540   -3.0685    2.0072 C.3     1  LIG1        0.0789
     25 H          -6.0726   -3.8275    2.6908 H       1  LIG1        0.0660
     26 H          -5.8966   -2.1056    2.4518 H       1  LIG1        0.0660
     27 H          -6.3291   -3.1346    1.1074 H       1  LIG1        0.0660
     28 C          -7.1722   -1.3825   -0.0059 C.ar    1  LIG1        0.1300
     29 C          -8.4734   -1.9130   -0.1004 C.ar    1  LIG1       -0.0083
     30 C          -6.0891   -2.2691   -0.1752 C.ar    1  LIG1        0.0458
     31 C          -8.6890   -3.2659   -0.3529 C.ar    1  LIG1        0.0255
     32 H          -9.3235   -1.2465    0.0272 H       1  LIG1        0.0661
     33 C          -6.3038   -3.6198   -0.4273 C.ar    1  LIG1       -0.0453
     34 C          -7.6039   -4.1277   -0.5180 C.ar    1  LIG1       -0.0389
     35 H          -5.4521   -4.2833   -0.5540 H       1  LIG1        0.0628
     36 O          -7.0346   -0.1117    0.2313 O.3     1  LIG1       -0.4944
     37 C          -5.6439    0.2097    0.3182 C.3     1  LIG1        0.0788
     38 H          -5.5310    1.2557    0.5132 H       1  LIG1        0.0660
     39 H          -5.1971   -0.3514    1.1124 H       1  LIG1        0.0660
     40 H          -5.1628   -0.0348   -0.6057 H       1  LIG1        0.0660
     41 C          -7.7985   -5.3915   -0.7537 C.3     1  LIG1       -0.0390
     42 H          -7.0023   -5.9615   -0.3223 H       1  LIG1        0.0278
     43 H          -7.8240   -5.5575   -1.8105 H       1  LIG1        0.0278
     44 H          -8.7293   -5.6956   -0.3224 H       1  LIG1        0.0278
     45 C          -9.9037   -3.7218   -0.4339 C.ar    1  LIG1        0.1569
     46 C         -11.1299   -3.3495    0.0767 C.ar    1  LIG1        0.0866
     47 C         -12.0936   -4.3120   -0.4150 C.ar    1  LIG1        0.0836
     48 C         -11.3920   -5.2090   -1.1939 C.ar    1  LIG1        0.1098
     49 O         -10.0397   -4.8662   -1.2210 O.2     1  LIG1       -0.4598
     50 H         -11.6925   -6.2673   -1.8866 H       1  LIG1        0.1043
     51 N         -11.3963   -2.3385    0.8494 N.pl3   1  LIG1       -0.3541
     52 H         -10.7464   -1.6003    0.6684 H       1  LIG1        0.1425
     53 H         -12.3255   -2.0164    0.6684 H       1  LIG1        0.1425
     54 C         -13.3677   -4.3080   -0.1570 C.1     1  LIG1       -0.0646
     55 C         -14.5450   -4.3043    0.0815 C.1     1  LIG1       -0.1138
     56 H         -15.5937   -4.3011    0.2939 H       1  LIG1        0.1232
@<TRIPOS>BOND
     1    50    48    1
     2    43    41    1
     3    22    15    1
     4    49    48   ar
     5    49    45   ar
     6    48    47   ar
     7    20    15   ar
     8    20    19   ar
     9    15    16   ar
    10    14    11    1
    11    41    34    1
    12    41    44    1
    13    41    42    1
    14    40    37    1
    15    35    33    1
    16    34    33   ar
    17    34    31   ar
    18    45    31    1
    19    45    46   ar
    20    33    30   ar
    21    47    54    1
    22    47    46   ar
    23    31    29   ar
    24    30    19    1
    25    30    28   ar
    26    54    55    3
    27    29    28   ar
    28    29    32    1
    29    19    18   ar
    30    28    36    1
    31     2     8    1
    32     2     1   ar
    33     2     3   ar
    34     8     9    1
    35     6     5    1
    36     4    16    1
    37     4     5   ar
    38     4     3   ar
    39    16    17   ar
    40     5     1   ar
    41     1     7    1
    42     3    10    1
    43    10    11    1
    44    11    12    1
    45    11    13    1
    46    46    51    1
    47    55    56    1
    48    36    37    1
    49    37    38    1
    50    37    39    1
    51    53    51    1
    52    52    51    1
    53    18    17   ar
    54    18    23    1
    55    17    21    1
    56    27    24    1
    57    23    24    1
    58    24    26    1
    59    24    25    1
