@<TRIPOS>MOLECULE
mol_data/noopt/geoms/mol2/13fl13fl13fl13fl.out
 54 57 0 0 0
SMALL
GASTEIGER

@<TRIPOS>ATOM
      1 C           1.1215   -0.3259    0.0002 C.ar    1  LIG1        0.0480
      2 C           0.7176    0.9721   -0.0005 C.ar    1  LIG1        0.1769
      3 C          -0.7144    0.9744    0.0003 C.ar    1  LIG1        0.1882
      4 C          -1.1226   -0.3223   -0.0003 C.ar    1  LIG1        0.1126
      5 N          -0.0018   -1.1217    0.0001 N.ar    1  LIG1       -0.3534
      6 H          -0.0034   -2.1157   -0.0003 H       1  LIG1        0.1656
      7 H           2.3167   -0.8373    0.0007 H       1  LIG1        0.0845
      8 O           1.4918    2.0165   -0.0003 O.3     1  LIG1       -0.5023
      9 H           0.9557    2.8128   -0.0003 H       1  LIG1        0.2923
     10 O          -1.4853    2.0212    0.0010 O.3     1  LIG1       -0.4895
     11 C          -0.6829    3.2049    0.0012 C.3     1  LIG1        0.0791
     12 H          -1.3178    4.0662    0.0016 H       1  LIG1        0.0660
     13 H          -0.0650    3.2168    0.8747 H       1  LIG1        0.0660
     14 H          -0.0654    3.2174   -0.8726 H       1  LIG1        0.0660
     15 C          -2.3194   -0.8299   -0.0001 C.ar    1  LIG1        0.1129
     16 C          -3.5353   -0.2219   -0.0003 C.ar    1  LIG1        0.1866
     17 C          -4.5290   -1.2530    0.0012 C.ar    1  LIG1        0.1889
     18 C          -3.8767   -2.4457    0.0005 C.ar    1  LIG1        0.1131
     19 N          -2.5238   -2.1913    0.0002 N.ar    1  LIG1       -0.3458
     20 H          -1.8081   -2.8811   -0.0004 H       1  LIG1        0.1662
     21 O          -3.7520    1.0599   -0.0003 O.3     1  LIG1       -0.5019
     22 H          -4.6977    1.2250   -0.0003 H       1  LIG1        0.2924
     23 O          -5.8180   -1.0837    0.0025 O.3     1  LIG1       -0.4895
     24 C          -6.1157    0.3150    0.0029 C.3     1  LIG1        0.0791
     25 H          -7.1766    0.4539    0.0038 H       1  LIG1        0.0660
     26 H          -5.6958    0.7688    0.8763 H       1  LIG1        0.0660
     27 H          -5.6973    0.7690   -0.8710 H       1  LIG1        0.0660
     28 C          -4.3398   -3.6604    0.0012 C.ar    1  LIG1        0.1129
     29 C          -5.6206   -4.1160    0.0013 C.ar    1  LIG1        0.1866
     30 C          -5.5655   -5.5470    0.0033 C.ar    1  LIG1        0.1889
     31 C          -4.2535   -5.9029    0.0026 C.ar    1  LIG1        0.1131
     32 N          -3.4996   -4.7510    0.0018 N.ar    1  LIG1       -0.3458
     33 H          -2.5064   -4.7127    0.0010 H       1  LIG1        0.1662
     34 O          -6.6951   -3.3843    0.0012 O.3     1  LIG1       -0.5019
     35 H          -7.4693   -3.9519    0.0012 H       1  LIG1        0.2924
     36 O          -6.5806   -6.3592    0.0050 O.3     1  LIG1       -0.4895
     37 C          -7.7954   -5.6049    0.0056 C.3     1  LIG1        0.0791
     38 H          -8.6306   -6.2737    0.0068 H       1  LIG1        0.0660
     39 H          -7.8316   -4.9876    0.8789 H       1  LIG1        0.0660
     40 H          -7.8332   -4.9888   -0.8684 H       1  LIG1        0.0660
     41 C          -3.6983   -7.0784    0.0036 C.ar    1  LIG1        0.1124
     42 C          -4.2571   -8.3176    0.0039 C.ar    1  LIG1        0.1859
     43 C          -3.1870   -9.2693    0.0063 C.ar    1  LIG1        0.1793
     44 C          -2.0214   -8.5697    0.0055 C.ar    1  LIG1        0.0482
     45 N          -2.3298   -7.2280    0.0043 N.ar    1  LIG1       -0.3534
     46 H          -1.6693   -6.4852    0.0035 H       1  LIG1        0.1656
     47 H          -0.7891   -8.9837    0.0068 H       1  LIG1        0.0845
     48 O          -5.5292   -8.5856    0.0038 O.3     1  LIG1       -0.5019
     49 H          -5.6562   -9.5371    0.0037 H       1  LIG1        0.2924
     50 O          -3.3045  -10.5640    0.0083 O.3     1  LIG1       -0.4900
     51 C          -4.6901  -10.9175    0.0089 C.3     1  LIG1        0.0790
     52 H          -4.7864  -11.9831    0.0104 H       1  LIG1        0.0660
     53 H          -5.1603  -10.5157    0.8822 H       1  LIG1        0.0660
     54 H          -5.1606  -10.5181   -0.8651 H       1  LIG1        0.0660
@<TRIPOS>BOND
     1    14    11    1
     2    27    24    1
     3    40    37    1
     4    54    51    1
     5     2     8    1
     6     2     1   ar
     7     2     3   ar
     8    20    19    1
     9    16    21    1
    10    16    15   ar
    11    16    17   ar
    12     4    15    1
    13     4     5   ar
    14     4     3   ar
    15     6     5    1
    16     8     9    1
    17    21    22    1
    18    15    19   ar
    19     5     1   ar
    20    19    18   ar
    21     1     7    1
    22     3    10    1
    23    18    17   ar
    24    18    28    1
    25    33    32    1
    26    10    11    1
    27    11    12    1
    28    11    13    1
    29    17    23    1
    30    28    29   ar
    31    28    32   ar
    32    35    34    1
    33    34    29    1
    34    29    30   ar
    35    32    31   ar
    36    23    24    1
    37    31    30   ar
    38    31    41    1
    39    24    25    1
    40    24    26    1
    41    30    36    1
    42    46    45    1
    43    41    42   ar
    44    41    45   ar
    45    49    48    1
    46    48    42    1
    47    42    43   ar
    48    45    44   ar
    49    36    37    1
    50    44    43   ar
    51    44    47    1
    52    37    38    1
    53    37    39    1
    54    43    50    1
    55    50    51    1
    56    51    52    1
    57    51    53    1
