@<TRIPOS>MOLECULE
mol_data/noopt/geoms/mol2/13fl6dl(240)12fi(220)12id(230).out
 51 54 0 0 0
SMALL
GASTEIGER

@<TRIPOS>ATOM
      1 C           1.1215   -0.3259    0.0002 C.ar    1  LIG1        0.0479
      2 C           0.7176    0.9721   -0.0005 C.ar    1  LIG1        0.1768
      3 C          -0.7144    0.9744    0.0003 C.ar    1  LIG1        0.1867
      4 C          -1.1226   -0.3223   -0.0003 C.ar    1  LIG1        0.0953
      5 N          -0.0018   -1.1217    0.0001 N.ar    1  LIG1       -0.3546
      6 H          -0.0034   -2.1157   -0.0003 H       1  LIG1        0.1656
      7 H           2.3167   -0.8373    0.0007 H       1  LIG1        0.0845
      8 O           1.4918    2.0165   -0.0003 O.3     1  LIG1       -0.5023
      9 H           0.9557    2.8128   -0.0003 H       1  LIG1        0.2923
     10 O          -1.4853    2.0212    0.0010 O.3     1  LIG1       -0.4895
     11 C          -0.6829    3.2049    0.0012 C.3     1  LIG1        0.0791
     12 H          -1.3178    4.0662    0.0016 H       1  LIG1        0.0660
     13 H          -0.0650    3.2168    0.8747 H       1  LIG1        0.0660
     14 H          -0.0654    3.2174   -0.8726 H       1  LIG1        0.0660
     15 C          -3.2112   -0.5482    1.0510 C.ar    1  LIG1        0.1503
     16 C          -2.3194   -0.8299   -0.0001 C.ar    1  LIG1        0.0413
     17 C          -2.7502   -1.6621   -1.0350 C.ar    1  LIG1       -0.0057
     18 C          -4.0454   -2.1804   -0.9855 C.ar    1  LIG1        0.1498
     19 C          -4.8632   -1.8410    0.1079 C.ar    1  LIG1        0.1525
     20 N          -4.4639   -1.0396    1.1146 N.ar    1  LIG1       -0.2288
     21 H          -2.0812   -1.9055   -1.8725 H       1  LIG1        0.0662
     22 N          -2.5431    0.8999    2.9064 N.1     1  LIG1       -0.1893
     23 C          -2.8562    0.2212    2.0369 C.1     1  LIG1        0.1198
     24 O          -4.4936   -2.9599   -1.9244 O.3     1  LIG1       -0.4928
     25 C          -5.8267   -2.5742   -2.2691 C.3     1  LIG1        0.0789
     26 H          -6.1952   -3.2160   -3.0420 H       1  LIG1        0.0660
     27 H          -6.4559   -2.6561   -1.4075 H       1  LIG1        0.0660
     28 H          -5.8268   -1.5620   -2.6159 H       1  LIG1        0.0660
     29 C          -6.0766   -2.2986    0.1986 C.ar    1  LIG1        0.1990
     30 C          -6.7569   -3.3882   -0.3043 C.ar    1  LIG1        0.1680
     31 C          -8.1126   -3.2982    0.1967 C.ar    1  LIG1        0.0406
     32 C          -8.1707   -2.1591    0.9730 C.ar    1  LIG1        0.1774
     33 O          -6.9277   -1.5255    0.9897 O.2     1  LIG1       -0.4460
     34 O          -6.2963   -4.3261   -1.0778 O.3     1  LIG1       -0.5030
     35 H          -5.3705   -4.1584   -1.2684 H       1  LIG1        0.2923
     36 C          -9.0701   -4.1419   -0.0524 C.3     1  LIG1       -0.0325
     37 H          -8.8278   -5.0927    0.3743 H       1  LIG1        0.0280
     38 H          -9.1877   -4.2456   -1.1109 H       1  LIG1        0.0280
     39 H          -9.9829   -3.7816    0.3742 H       1  LIG1        0.0280
     40 C          -9.0894   -1.5595    1.6706 C.ar    1  LIG1        0.1742
     41 C         -10.4640   -1.4614    1.6087 C.ar    1  LIG1        0.0158
     42 C         -10.8700   -0.6197    2.7148 C.ar    1  LIG1        0.0930
     43 C          -9.7161   -0.2592    3.3797 C.ar    1  LIG1        0.1103
     44 O          -8.6049   -0.8264    2.7548 O.2     1  LIG1       -0.4582
     45 H          -9.4355    0.4651    4.4221 H       1  LIG1        0.1043
     46 C         -11.2624   -2.0068    0.7393 C.3     1  LIG1       -0.0348
     47 H         -11.2672   -3.0680    0.8759 H       1  LIG1        0.0279
     48 H         -10.9244   -1.7760   -0.2494 H       1  LIG1        0.0279
     49 H         -12.2527   -1.6251    0.8758 H       1  LIG1        0.0279
     50 N         -13.1709    0.0110    3.2569 N.1     1  LIG1       -0.1908
     51 C         -12.0926   -0.2846    3.0029 C.1     1  LIG1        0.1026
@<TRIPOS>BOND
     1    26    25    1
     2    28    25    1
     3    25    24    1
     4    25    27    1
     5    24    18    1
     6    21    17    1
     7    35    34    1
     8    38    36    1
     9    34    30    1
    10    17    18   ar
    11    17    16   ar
    12    18    19   ar
    13    14    11    1
    14    30    31   ar
    15    30    29   ar
    16    48    46    1
    17    36    31    1
    18    36    39    1
    19    36    37    1
    20     2     8    1
    21     2     1   ar
    22     2     3   ar
    23     8     9    1
    24     6     5    1
    25     4    16    1
    26     4     5   ar
    27     4     3   ar
    28    16    15   ar
    29     5     1   ar
    30     1     7    1
    31     3    10    1
    32    10    11    1
    33    11    12    1
    34    11    13    1
    35    19    29    1
    36    19    20   ar
    37    31    32   ar
    38    29    33   ar
    39    46    49    1
    40    46    47    1
    41    46    41    1
    42    32    33   ar
    43    32    40    1
    44    15    20   ar
    45    15    23    1
    46    41    40   ar
    47    41    42   ar
    48    40    44   ar
    49    23    22    3
    50    42    51    1
    51    42    43   ar
    52    44    43   ar
    53    51    50    3
    54    43    45    1
