@<TRIPOS>MOLECULE
mol_data/noopt/geoms/mol2/13fl13fl.out
 28 29 0 0 0
SMALL
GASTEIGER

@<TRIPOS>ATOM
      1 C           1.1215   -0.3259    0.0002 C.ar    1  LIG1        0.0480
      2 C           0.7176    0.9721   -0.0005 C.ar    1  LIG1        0.1769
      3 C          -0.7144    0.9744    0.0003 C.ar    1  LIG1        0.1882
      4 C          -1.1226   -0.3223   -0.0003 C.ar    1  LIG1        0.1126
      5 N          -0.0018   -1.1217    0.0001 N.ar    1  LIG1       -0.3534
      6 H          -0.0034   -2.1157   -0.0003 H       1  LIG1        0.1656
      7 H           2.3167   -0.8373    0.0007 H       1  LIG1        0.0845
      8 O           1.4918    2.0165   -0.0003 O.3     1  LIG1       -0.5023
      9 H           0.9557    2.8128   -0.0003 H       1  LIG1        0.2923
     10 O          -1.4853    2.0212    0.0010 O.3     1  LIG1       -0.4895
     11 C          -0.6829    3.2049    0.0012 C.3     1  LIG1        0.0791
     12 H          -1.3178    4.0662    0.0016 H       1  LIG1        0.0660
     13 H          -0.0650    3.2168    0.8747 H       1  LIG1        0.0660
     14 H          -0.0654    3.2174   -0.8726 H       1  LIG1        0.0660
     15 C          -2.3194   -0.8299   -0.0001 C.ar    1  LIG1        0.1124
     16 C          -3.5353   -0.2219   -0.0003 C.ar    1  LIG1        0.1859
     17 C          -4.5290   -1.2530    0.0012 C.ar    1  LIG1        0.1793
     18 C          -3.8767   -2.4457    0.0005 C.ar    1  LIG1        0.0482
     19 N          -2.5238   -2.1913    0.0002 N.ar    1  LIG1       -0.3534
     20 H          -1.8081   -2.8811   -0.0004 H       1  LIG1        0.1656
     21 H          -4.3398   -3.6604    0.0012 H       1  LIG1        0.0845
     22 O          -3.7520    1.0599   -0.0003 O.3     1  LIG1       -0.5019
     23 H          -4.6977    1.2250   -0.0003 H       1  LIG1        0.2924
     24 O          -5.8180   -1.0837    0.0025 O.3     1  LIG1       -0.4900
     25 C          -6.1157    0.3150    0.0029 C.3     1  LIG1        0.0790
     26 H          -7.1766    0.4539    0.0038 H       1  LIG1        0.0660
     27 H          -5.6958    0.7688    0.8763 H       1  LIG1        0.0660
     28 H          -5.6973    0.7690   -0.8710 H       1  LIG1        0.0660
@<TRIPOS>BOND
     1    14    11    1
     2    28    25    1
     3     2     8    1
     4     2     1   ar
     5     2     3   ar
     6    20    19    1
     7    16    22    1
     8    16    15   ar
     9    16    17   ar
    10     4    15    1
    11     4     5   ar
    12     4     3   ar
    13     6     5    1
    14     8     9    1
    15    22    23    1
    16    15    19   ar
    17     5     1   ar
    18    19    18   ar
    19     1     7    1
    20     3    10    1
    21    18    17   ar
    22    18    21    1
    23    10    11    1
    24    11    12    1
    25    11    13    1
    26    17    24    1
    27    24    25    1
    28    25    26    1
    29    25    27    1
