@<TRIPOS>MOLECULE
mol_data/noopt/geoms/mol2/13ga13ga13ga-13ga-.out
 38 41 0 0 0
SMALL
GASTEIGER

@<TRIPOS>ATOM
      1 C           1.1215   -0.3259    0.0002 C.ar    1  LIG1        0.0154
      2 C           0.7176    0.9721   -0.0005 C.ar    1  LIG1        0.0227
      3 C          -0.7144    0.9744    0.0003 C.ar    1  LIG1       -0.0218
      4 C          -1.1226   -0.3223   -0.0003 C.ar    1  LIG1        0.0650
      5 N          -0.0018   -1.1217    0.0001 N.ar    1  LIG1       -0.3585
      6 H          -0.0034   -2.1157   -0.0003 H       1  LIG1        0.1654
      7 H           2.3167   -0.8373    0.0007 H       1  LIG1        0.0818
      8 S           1.4918    2.0164   -0.0003 S.3     1  LIG1       -0.1412
      9 H           0.7602    3.1031   -0.0002 H       1  LIG1        0.1072
     10 H          -1.4853    2.0212    0.0010 H       1  LIG1        0.0650
     11 C          -2.3194   -0.8299   -0.0001 C.ar    1  LIG1        0.0767
     12 C          -3.5352   -0.2220    0.0163 C.ar    1  LIG1        0.0321
     13 C          -4.5290   -1.2531    0.0088 C.ar    1  LIG1       -0.0211
     14 C          -3.8768   -2.4456   -0.0136 C.ar    1  LIG1        0.0655
     15 N          -2.5238   -2.1911   -0.0187 N.ar    1  LIG1       -0.3510
     16 H          -1.8082   -2.8808   -0.0339 H       1  LIG1        0.1660
     17 S          -3.7519    1.0596    0.0366 S.3     1  LIG1       -0.1405
     18 H          -5.0423    1.2848    0.0435 H       1  LIG1        0.1072
     19 H          -5.8179   -1.0839    0.0207 H       1  LIG1        0.0650
     20 C          -4.3399   -3.6602   -0.0280 C.ar    1  LIG1        0.0767
     21 C          -5.6206   -4.1159   -0.0215 C.ar    1  LIG1        0.0321
     22 C          -5.5656   -5.5467   -0.0437 C.ar    1  LIG1       -0.0211
     23 C          -4.2537   -5.9024   -0.0646 C.ar    1  LIG1        0.0655
     24 N          -3.4998   -4.7505   -0.0546 N.ar    1  LIG1       -0.3510
     25 H          -2.5066   -4.7122   -0.0655 H       1  LIG1        0.1660
     26 S          -6.6950   -3.3844    0.0022 S.3     1  LIG1       -0.1405
     27 H          -7.7513   -4.1591    0.0102 H       1  LIG1        0.1072
     28 H          -6.5806   -6.3589   -0.0444 H       1  LIG1        0.0650
     29 C          -3.6986   -7.0777   -0.0891 C.ar    1  LIG1        0.0762
     30 C          -4.2575   -8.3168   -0.1060 C.ar    1  LIG1        0.0315
     31 C          -3.1875   -9.2682   -0.1295 C.ar    1  LIG1       -0.0305
     32 C          -2.0219   -8.5687   -0.1276 C.ar    1  LIG1        0.0033
     33 N          -2.3302   -7.2272   -0.1024 N.ar    1  LIG1       -0.3586
     34 H          -1.6696   -6.4845   -0.0957 H       1  LIG1        0.1654
     35 H          -0.7896   -8.9826   -0.1440 H       1  LIG1        0.0807
     36 S          -5.5295   -8.5847   -0.1003 S.3     1  LIG1       -0.1405
     37 H          -5.7028   -9.8832   -0.0984 H       1  LIG1        0.1072
     38 H          -3.3051  -10.5627   -0.1495 H       1  LIG1        0.0644
@<TRIPOS>BOND
     1    38    31    1
     2    35    32    1
     3    31    32   ar
     4    31    30   ar
     5    32    33   ar
     6    30    36    1
     7    30    29   ar
     8    33    34    1
     9    33    29   ar
    10    36    37    1
    11    29    23    1
    12    25    24    1
    13    23    24   ar
    14    23    22   ar
    15    24    20   ar
    16    28    22    1
    17    22    21   ar
    18    16    15    1
    19    20    21   ar
    20    20    14    1
    21    21    26    1
    22    15    14   ar
    23    15    11   ar
    24    14    13   ar
    25     2     8    1
    26     2     1   ar
    27     2     3   ar
    28     6     5    1
    29     4    11    1
    30     4     5   ar
    31     4     3   ar
    32     8     9    1
    33    11    12   ar
    34     5     1   ar
    35     1     7    1
    36     3    10    1
    37    26    27    1
    38    13    12   ar
    39    13    19    1
    40    12    17    1
    41    17    18    1
