@<TRIPOS>MOLECULE
mol_data/noopt/geoms/mol2/13ga13ga13ga13ga-.out
 38 41 0 0 0
SMALL
GASTEIGER

@<TRIPOS>ATOM
      1 C           1.1215   -0.3259    0.0002 C.ar    1  LIG1        0.0154
      2 C           0.7176    0.9721   -0.0005 C.ar    1  LIG1        0.0227
      3 C          -0.7144    0.9744    0.0003 C.ar    1  LIG1       -0.0218
      4 C          -1.1226   -0.3223   -0.0003 C.ar    1  LIG1        0.0650
      5 N          -0.0018   -1.1217    0.0001 N.ar    1  LIG1       -0.3585
      6 H          -0.0034   -2.1157   -0.0003 H       1  LIG1        0.1654
      7 H           2.3167   -0.8373    0.0007 H       1  LIG1        0.0818
      8 S           1.4918    2.0164   -0.0003 S.3     1  LIG1       -0.1412
      9 H           0.7602    3.1031   -0.0002 H       1  LIG1        0.1072
     10 H          -1.4853    2.0212    0.0010 H       1  LIG1        0.0650
     11 C          -2.3194   -0.8299   -0.0001 C.ar    1  LIG1        0.0767
     12 C          -3.5352   -0.2220    0.0163 C.ar    1  LIG1        0.0321
     13 C          -4.5290   -1.2531    0.0088 C.ar    1  LIG1       -0.0211
     14 C          -3.8768   -2.4456   -0.0136 C.ar    1  LIG1        0.0655
     15 N          -2.5238   -2.1911   -0.0187 N.ar    1  LIG1       -0.3510
     16 H          -1.8082   -2.8808   -0.0339 H       1  LIG1        0.1660
     17 S          -3.7519    1.0596    0.0366 S.3     1  LIG1       -0.1405
     18 H          -5.0423    1.2848    0.0435 H       1  LIG1        0.1072
     19 H          -5.8179   -1.0839    0.0207 H       1  LIG1        0.0650
     20 C          -4.3399   -3.6602   -0.0280 C.ar    1  LIG1        0.0767
     21 C          -5.6207   -4.1157   -0.0381 C.ar    1  LIG1        0.0321
     22 C          -5.5656   -5.5466   -0.0513 C.ar    1  LIG1       -0.0211
     23 C          -4.2537   -5.9026   -0.0505 C.ar    1  LIG1        0.0655
     24 N          -3.4998   -4.7508   -0.0358 N.ar    1  LIG1       -0.3510
     25 H          -2.5065   -4.7126   -0.0320 H       1  LIG1        0.1660
     26 S          -6.6951   -3.3839   -0.0347 S.3     1  LIG1       -0.1405
     27 H          -7.7516   -4.1584   -0.0335 H       1  LIG1        0.1072
     28 H          -6.5807   -6.3587   -0.0626 H       1  LIG1        0.0650
     29 C          -3.6985   -7.0781   -0.0599 C.ar    1  LIG1        0.0762
     30 C          -4.2574   -8.3173   -0.0667 C.ar    1  LIG1        0.0315
     31 C          -3.1873   -9.2689   -0.0749 C.ar    1  LIG1       -0.0305
     32 C          -2.0217   -8.5694   -0.0746 C.ar    1  LIG1        0.0033
     33 N          -2.3301   -7.2277   -0.0649 N.ar    1  LIG1       -0.3586
     34 H          -1.6695   -6.4850   -0.0627 H       1  LIG1        0.1654
     35 H          -0.7894   -8.9834   -0.0805 H       1  LIG1        0.0807
     36 S          -5.5294   -8.5852   -0.0644 S.3     1  LIG1       -0.1405
     37 H          -5.7028   -9.8836   -0.0636 H       1  LIG1        0.1072
     38 H          -3.3049  -10.5636   -0.0819 H       1  LIG1        0.0644
@<TRIPOS>BOND
     1    38    31    1
     2    35    32    1
     3    31    32   ar
     4    31    30   ar
     5    32    33   ar
     6    30    36    1
     7    30    29   ar
     8    33    34    1
     9    33    29   ar
    10    36    37    1
    11    28    22    1
    12    29    23    1
    13    22    23   ar
    14    22    21   ar
    15    23    24   ar
    16    21    26    1
    17    21    20   ar
    18    24    25    1
    19    24    20   ar
    20    26    27    1
    21    16    15    1
    22    20    14    1
    23    15    14   ar
    24    15    11   ar
    25    14    13   ar
    26     2     8    1
    27     2     1   ar
    28     2     3   ar
    29     4    11    1
    30     4     5   ar
    31     4     3   ar
    32     6     5    1
    33     8     9    1
    34    11    12   ar
    35     5     1   ar
    36     1     7    1
    37     3    10    1
    38    13    12   ar
    39    13    19    1
    40    12    17    1
    41    17    18    1
