@<TRIPOS>MOLECULE
mol_data/noopt/geoms/mol2/13ga13ga-13ga13ga-.out
 38 41 0 0 0
SMALL
GASTEIGER

@<TRIPOS>ATOM
      1 C           1.1215   -0.3259    0.0002 C.ar    1  LIG1        0.0154
      2 C           0.7176    0.9721   -0.0005 C.ar    1  LIG1        0.0227
      3 C          -0.7144    0.9744    0.0003 C.ar    1  LIG1       -0.0218
      4 C          -1.1226   -0.3223   -0.0003 C.ar    1  LIG1        0.0650
      5 N          -0.0018   -1.1217    0.0001 N.ar    1  LIG1       -0.3585
      6 H          -0.0034   -2.1157   -0.0003 H       1  LIG1        0.1654
      7 H           2.3167   -0.8373    0.0007 H       1  LIG1        0.0818
      8 S           1.4918    2.0164   -0.0003 S.3     1  LIG1       -0.1412
      9 H           0.7602    3.1031   -0.0002 H       1  LIG1        0.1072
     10 H          -1.4853    2.0212    0.0010 H       1  LIG1        0.0650
     11 C          -2.3194   -0.8299   -0.0001 C.ar    1  LIG1        0.0767
     12 C          -3.5353   -0.2219   -0.0003 C.ar    1  LIG1        0.0321
     13 C          -4.5290   -1.2530    0.0012 C.ar    1  LIG1       -0.0211
     14 C          -3.8767   -2.4457    0.0005 C.ar    1  LIG1        0.0655
     15 N          -2.5238   -2.1913    0.0002 N.ar    1  LIG1       -0.3510
     16 H          -1.8081   -2.8811   -0.0004 H       1  LIG1        0.1660
     17 S          -3.7520    1.0598   -0.0003 S.3     1  LIG1       -0.1405
     18 H          -5.0425    1.2851   -0.0003 H       1  LIG1        0.1072
     19 H          -5.8179   -1.0837    0.0025 H       1  LIG1        0.0650
     20 C          -4.3398   -3.6604    0.0012 C.ar    1  LIG1        0.0767
     21 C          -5.6206   -4.1160    0.0013 C.ar    1  LIG1        0.0321
     22 C          -5.5655   -5.5470    0.0033 C.ar    1  LIG1       -0.0211
     23 C          -4.2535   -5.9029    0.0026 C.ar    1  LIG1        0.0655
     24 N          -3.4996   -4.7510    0.0018 N.ar    1  LIG1       -0.3510
     25 H          -2.5064   -4.7127    0.0010 H       1  LIG1        0.1660
     26 S          -6.6950   -3.3843    0.0012 S.3     1  LIG1       -0.1405
     27 H          -7.7515   -4.1589    0.0012 H       1  LIG1        0.1072
     28 H          -6.5805   -6.3592    0.0050 H       1  LIG1        0.0650
     29 C          -3.6983   -7.0784    0.0036 C.ar    1  LIG1        0.0762
     30 C          -4.2571   -8.3176    0.0039 C.ar    1  LIG1        0.0315
     31 C          -3.1870   -9.2693    0.0063 C.ar    1  LIG1       -0.0305
     32 C          -2.0214   -8.5697    0.0055 C.ar    1  LIG1        0.0033
     33 N          -2.3298   -7.2280    0.0043 N.ar    1  LIG1       -0.3586
     34 H          -1.6693   -6.4852    0.0035 H       1  LIG1        0.1654
     35 H          -0.7891   -8.9837    0.0068 H       1  LIG1        0.0807
     36 S          -5.5291   -8.5855    0.0038 S.3     1  LIG1       -0.1405
     37 H          -5.7025   -9.8840    0.0037 H       1  LIG1        0.1072
     38 H          -3.3045  -10.5639    0.0083 H       1  LIG1        0.0644
@<TRIPOS>BOND
     1     2     8    1
     2     2     1   ar
     3     2     3   ar
     4    16    15    1
     5    12    17    1
     6    12    11   ar
     7    12    13   ar
     8     4    11    1
     9     4     5   ar
    10     4     3   ar
    11     6     5    1
    12     8     9    1
    13    17    18    1
    14    11    15   ar
    15     5     1   ar
    16    15    14   ar
    17     1     7    1
    18     3    10    1
    19    14    13   ar
    20    14    20    1
    21    25    24    1
    22    13    19    1
    23    20    21   ar
    24    20    24   ar
    25    27    26    1
    26    26    21    1
    27    21    22   ar
    28    24    23   ar
    29    23    22   ar
    30    23    29    1
    31    22    28    1
    32    34    33    1
    33    29    30   ar
    34    29    33   ar
    35    37    36    1
    36    36    30    1
    37    30    31   ar
    38    33    32   ar
    39    32    31   ar
    40    32    35    1
    41    31    38    1
