@<TRIPOS>MOLECULE
mol_data/noopt/geoms/mol2/13ga13ga13ga.out
 29 31 0 0 0
SMALL
GASTEIGER

@<TRIPOS>ATOM
      1 C           1.1215   -0.3259    0.0002 C.ar    1  LIG1        0.0154
      2 C           0.7176    0.9721   -0.0005 C.ar    1  LIG1        0.0227
      3 C          -0.7144    0.9744    0.0003 C.ar    1  LIG1       -0.0218
      4 C          -1.1226   -0.3223   -0.0003 C.ar    1  LIG1        0.0650
      5 N          -0.0018   -1.1217    0.0001 N.ar    1  LIG1       -0.3585
      6 H          -0.0034   -2.1157   -0.0003 H       1  LIG1        0.1654
      7 H           2.3167   -0.8373    0.0007 H       1  LIG1        0.0818
      8 S           1.4918    2.0164   -0.0003 S.3     1  LIG1       -0.1412
      9 H           0.7602    3.1031   -0.0002 H       1  LIG1        0.1072
     10 H          -1.4853    2.0212    0.0010 H       1  LIG1        0.0650
     11 C          -2.3194   -0.8299   -0.0001 C.ar    1  LIG1        0.0767
     12 C          -3.5352   -0.2220    0.0163 C.ar    1  LIG1        0.0321
     13 C          -4.5290   -1.2531    0.0088 C.ar    1  LIG1       -0.0211
     14 C          -3.8768   -2.4456   -0.0136 C.ar    1  LIG1        0.0655
     15 N          -2.5238   -2.1911   -0.0187 N.ar    1  LIG1       -0.3510
     16 H          -1.8082   -2.8808   -0.0339 H       1  LIG1        0.1660
     17 S          -3.7519    1.0596    0.0366 S.3     1  LIG1       -0.1405
     18 H          -5.0423    1.2848    0.0435 H       1  LIG1        0.1072
     19 H          -5.8179   -1.0839    0.0207 H       1  LIG1        0.0650
     20 C          -4.3399   -3.6602   -0.0280 C.ar    1  LIG1        0.0762
     21 C          -5.6207   -4.1157   -0.0381 C.ar    1  LIG1        0.0315
     22 C          -5.5656   -5.5466   -0.0513 C.ar    1  LIG1       -0.0305
     23 C          -4.2537   -5.9026   -0.0505 C.ar    1  LIG1        0.0033
     24 N          -3.4998   -4.7508   -0.0358 N.ar    1  LIG1       -0.3586
     25 H          -2.5065   -4.7126   -0.0320 H       1  LIG1        0.1654
     26 H          -3.6986   -7.0781   -0.0599 H       1  LIG1        0.0807
     27 S          -6.6951   -3.3839   -0.0347 S.3     1  LIG1       -0.1405
     28 H          -7.7516   -4.1584   -0.0335 H       1  LIG1        0.1072
     29 H          -6.5807   -6.3587   -0.0626 H       1  LIG1        0.0644
@<TRIPOS>BOND
     1    29    22    1
     2    26    23    1
     3    22    23   ar
     4    22    21   ar
     5    23    24   ar
     6    21    27    1
     7    21    20   ar
     8    24    25    1
     9    24    20   ar
    10    27    28    1
    11    16    15    1
    12    20    14    1
    13    15    14   ar
    14    15    11   ar
    15    14    13   ar
    16     2     8    1
    17     2     1   ar
    18     2     3   ar
    19     4    11    1
    20     4     5   ar
    21     4     3   ar
    22     6     5    1
    23     8     9    1
    24    11    12   ar
    25     5     1   ar
    26     1     7    1
    27     3    10    1
    28    13    12   ar
    29    13    19    1
    30    12    17    1
    31    17    18    1
