@<TRIPOS>MOLECULE
mol_data/noopt/geoms/mol2/13ga13ga-13ga-13ga-.out
 38 41 0 0 0
SMALL
GASTEIGER

@<TRIPOS>ATOM
      1 C           1.1215   -0.3259    0.0002 C.ar    1  LIG1        0.0154
      2 C           0.7176    0.9721   -0.0005 C.ar    1  LIG1        0.0227
      3 C          -0.7144    0.9744    0.0003 C.ar    1  LIG1       -0.0218
      4 C          -1.1226   -0.3223   -0.0003 C.ar    1  LIG1        0.0650
      5 N          -0.0018   -1.1217    0.0001 N.ar    1  LIG1       -0.3585
      6 H          -0.0034   -2.1157   -0.0003 H       1  LIG1        0.1654
      7 H           2.3167   -0.8373    0.0007 H       1  LIG1        0.0818
      8 S           1.4918    2.0164   -0.0003 S.3     1  LIG1       -0.1412
      9 H           0.7602    3.1031   -0.0002 H       1  LIG1        0.1072
     10 H          -1.4853    2.0212    0.0010 H       1  LIG1        0.0650
     11 C          -2.3194   -0.8299   -0.0001 C.ar    1  LIG1        0.0767
     12 C          -3.5353   -0.2219   -0.0003 C.ar    1  LIG1        0.0321
     13 C          -4.5290   -1.2530    0.0012 C.ar    1  LIG1       -0.0211
     14 C          -3.8767   -2.4457    0.0005 C.ar    1  LIG1        0.0655
     15 N          -2.5238   -2.1913    0.0002 N.ar    1  LIG1       -0.3510
     16 H          -1.8081   -2.8811   -0.0004 H       1  LIG1        0.1660
     17 S          -3.7520    1.0598   -0.0003 S.3     1  LIG1       -0.1405
     18 H          -5.0425    1.2851   -0.0003 H       1  LIG1        0.1072
     19 H          -5.8179   -1.0837    0.0025 H       1  LIG1        0.0650
     20 C          -4.3398   -3.6604    0.0012 C.ar    1  LIG1        0.0767
     21 C          -5.6205   -4.1161    0.0179 C.ar    1  LIG1        0.0321
     22 C          -5.5654   -5.5470    0.0109 C.ar    1  LIG1       -0.0211
     23 C          -4.2536   -5.9029   -0.0115 C.ar    1  LIG1        0.0655
     24 N          -3.4998   -4.7509   -0.0171 N.ar    1  LIG1       -0.3510
     25 H          -2.5066   -4.7126   -0.0325 H       1  LIG1        0.1660
     26 S          -6.6948   -3.3844    0.0381 S.3     1  LIG1       -0.1405
     27 H          -7.7512   -4.1590    0.0449 H       1  LIG1        0.1072
     28 H          -6.5804   -6.3592    0.0232 H       1  LIG1        0.0650
     29 C          -3.6985   -7.0783   -0.0256 C.ar    1  LIG1        0.0762
     30 C          -4.2574   -8.3175   -0.0355 C.ar    1  LIG1        0.0315
     31 C          -3.1874   -9.2691   -0.0484 C.ar    1  LIG1       -0.0305
     32 C          -2.0218   -8.5696   -0.0476 C.ar    1  LIG1        0.0033
     33 N          -2.3301   -7.2280   -0.0332 N.ar    1  LIG1       -0.3586
     34 H          -1.6695   -6.4853   -0.0295 H       1  LIG1        0.1654
     35 H          -0.7895   -8.9837   -0.0567 H       1  LIG1        0.0807
     36 S          -5.5294   -8.5853   -0.0321 S.3     1  LIG1       -0.1405
     37 H          -5.7029   -9.8838   -0.0310 H       1  LIG1        0.1072
     38 H          -3.3050  -10.5637   -0.0593 H       1  LIG1        0.0644
@<TRIPOS>BOND
     1    38    31    1
     2    35    32    1
     3    31    32   ar
     4    31    30   ar
     5    32    33   ar
     6    30    36    1
     7    30    29   ar
     8    33    34    1
     9    33    29   ar
    10    25    24    1
    11    36    37    1
    12    29    23    1
    13    24    23   ar
    14    24    20   ar
    15    23    22   ar
    16     2     8    1
    17     2     1   ar
    18     2     3   ar
    19    16    15    1
    20    12    17    1
    21    12    11   ar
    22    12    13   ar
    23     8     9    1
    24     6     5    1
    25     4    11    1
    26     4     5   ar
    27     4     3   ar
    28    17    18    1
    29    11    15   ar
    30     5     1   ar
    31    15    14   ar
    32     1     7    1
    33     3    10    1
    34    14    13   ar
    35    14    20    1
    36    13    19    1
    37    20    21   ar
    38    22    21   ar
    39    22    28    1
    40    21    26    1
    41    26    27    1
