@<TRIPOS>MOLECULE
mol_data/noopt/geoms/mol2/13gd13gd-13gd13gd-.out
 42 45 0 0 0
SMALL
GASTEIGER

@<TRIPOS>ATOM
      1 C           1.1215   -0.3259    0.0002 C.ar    1  LIG1        0.0167
      2 C           0.7176    0.9721   -0.0005 C.ar    1  LIG1        0.0401
      3 C          -0.7144    0.9744    0.0003 C.ar    1  LIG1        0.0915
      4 C          -1.1226   -0.3223   -0.0003 C.ar    1  LIG1        0.0827
      5 N          -0.0018   -1.1217    0.0001 N.ar    1  LIG1       -0.3574
      6 H          -0.0034   -2.1157   -0.0003 H       1  LIG1        0.1654
      7 H           2.3167   -0.8373    0.0007 H       1  LIG1        0.0818
      8 S           1.4918    2.0164   -0.0003 S.3     1  LIG1       -0.1399
      9 H           0.7602    3.1031   -0.0002 H       1  LIG1        0.1072
     10 N          -2.1652    2.9444    0.0016 N.1     1  LIG1       -0.1908
     11 C          -1.4853    2.0212    0.0010 C.1     1  LIG1        0.1024
     12 C          -2.3194   -0.8299   -0.0001 C.ar    1  LIG1        0.0793
     13 C          -3.5353   -0.2219   -0.0003 C.ar    1  LIG1        0.0496
     14 C          -4.5290   -1.2530    0.0012 C.ar    1  LIG1        0.0922
     15 C          -3.8767   -2.4457    0.0005 C.ar    1  LIG1        0.0831
     16 N          -2.5238   -2.1913    0.0002 N.ar    1  LIG1       -0.3499
     17 H          -1.8081   -2.8811   -0.0004 H       1  LIG1        0.1661
     18 S          -3.7520    1.0598   -0.0003 S.3     1  LIG1       -0.1393
     19 H          -5.0425    1.2851   -0.0003 H       1  LIG1        0.1072
     20 N          -6.9548   -0.9344    0.0036 N.1     1  LIG1       -0.1908
     21 C          -5.8179   -1.0837    0.0025 C.1     1  LIG1        0.1025
     22 C          -4.3398   -3.6604    0.0012 C.ar    1  LIG1        0.0793
     23 C          -5.6206   -4.1160    0.0013 C.ar    1  LIG1        0.0496
     24 C          -5.5655   -5.5470    0.0033 C.ar    1  LIG1        0.0922
     25 C          -4.2535   -5.9029    0.0026 C.ar    1  LIG1        0.0831
     26 N          -3.4996   -4.7510    0.0018 N.ar    1  LIG1       -0.3499
     27 H          -2.5064   -4.7127    0.0010 H       1  LIG1        0.1661
     28 S          -6.6950   -3.3843    0.0012 S.3     1  LIG1       -0.1393
     29 H          -7.7515   -4.1589    0.0012 H       1  LIG1        0.1072
     30 N          -7.4758   -7.0756    0.0065 N.1     1  LIG1       -0.1908
     31 C          -6.5805   -6.3592    0.0050 C.1     1  LIG1        0.1025
     32 C          -3.6983   -7.0784    0.0036 C.ar    1  LIG1        0.0788
     33 C          -4.2571   -8.3176    0.0039 C.ar    1  LIG1        0.0489
     34 C          -3.1870   -9.2693    0.0063 C.ar    1  LIG1        0.0828
     35 C          -2.0214   -8.5697    0.0055 C.ar    1  LIG1        0.0208
     36 N          -2.3298   -7.2280    0.0043 N.ar    1  LIG1       -0.3574
     37 H          -1.6693   -6.4852    0.0035 H       1  LIG1        0.1654
     38 H          -0.7891   -8.9837    0.0068 H       1  LIG1        0.0820
     39 S          -5.5291   -8.5855    0.0038 S.3     1  LIG1       -0.1393
     40 H          -5.7025   -9.8840    0.0037 H       1  LIG1        0.1072
     41 N          -3.4081  -11.7058    0.0101 N.1     1  LIG1       -0.1908
     42 C          -3.3045  -10.5639    0.0083 C.1     1  LIG1        0.1018
@<TRIPOS>BOND
     1     2     8    1
     2     2     1   ar
     3     2     3   ar
     4    17    16    1
     5    13    18    1
     6    13    12   ar
     7    13    14   ar
     8     4    12    1
     9     4     5   ar
    10     4     3   ar
    11     6     5    1
    12     8     9    1
    13    18    19    1
    14    12    16   ar
    15     5     1   ar
    16    16    15   ar
    17     1     7    1
    18     3    11    1
    19    15    14   ar
    20    15    22    1
    21    27    26    1
    22    11    10    3
    23    14    21    1
    24    22    23   ar
    25    22    26   ar
    26    29    28    1
    27    28    23    1
    28    23    24   ar
    29    26    25   ar
    30    21    20    3
    31    25    24   ar
    32    25    32    1
    33    24    31    1
    34    37    36    1
    35    32    33   ar
    36    32    36   ar
    37    40    39    1
    38    39    33    1
    39    33    34   ar
    40    36    35   ar
    41    31    30    3
    42    35    34   ar
    43    35    38    1
    44    34    42    1
    45    42    41    3
