@<TRIPOS>MOLECULE
mol_data/noopt/geoms/mol2/13gd13gd-13gd-.out
 32 34 0 0 0
SMALL
GASTEIGER

@<TRIPOS>ATOM
      1 C           1.1215   -0.3259    0.0002 C.ar    1  LIG1        0.0167
      2 C           0.7176    0.9721   -0.0005 C.ar    1  LIG1        0.0401
      3 C          -0.7144    0.9744    0.0003 C.ar    1  LIG1        0.0915
      4 C          -1.1226   -0.3223   -0.0003 C.ar    1  LIG1        0.0827
      5 N          -0.0018   -1.1217    0.0001 N.ar    1  LIG1       -0.3574
      6 H          -0.0034   -2.1157   -0.0003 H       1  LIG1        0.1654
      7 H           2.3167   -0.8373    0.0007 H       1  LIG1        0.0818
      8 S           1.4918    2.0164   -0.0003 S.3     1  LIG1       -0.1399
      9 H           0.7602    3.1031   -0.0002 H       1  LIG1        0.1072
     10 N          -2.1652    2.9444    0.0016 N.1     1  LIG1       -0.1908
     11 C          -1.4853    2.0212    0.0010 C.1     1  LIG1        0.1024
     12 C          -2.3194   -0.8299   -0.0001 C.ar    1  LIG1        0.0793
     13 C          -3.5353   -0.2219   -0.0003 C.ar    1  LIG1        0.0496
     14 C          -4.5290   -1.2530    0.0012 C.ar    1  LIG1        0.0922
     15 C          -3.8767   -2.4457    0.0005 C.ar    1  LIG1        0.0831
     16 N          -2.5238   -2.1913    0.0002 N.ar    1  LIG1       -0.3499
     17 H          -1.8081   -2.8811   -0.0004 H       1  LIG1        0.1661
     18 S          -3.7520    1.0598   -0.0003 S.3     1  LIG1       -0.1393
     19 H          -5.0425    1.2851   -0.0003 H       1  LIG1        0.1072
     20 N          -6.9548   -0.9344    0.0036 N.1     1  LIG1       -0.1908
     21 C          -5.8179   -1.0837    0.0025 C.1     1  LIG1        0.1025
     22 C          -4.3398   -3.6604    0.0012 C.ar    1  LIG1        0.0788
     23 C          -5.6205   -4.1161    0.0179 C.ar    1  LIG1        0.0489
     24 C          -5.5654   -5.5470    0.0109 C.ar    1  LIG1        0.0828
     25 C          -4.2536   -5.9029   -0.0115 C.ar    1  LIG1        0.0208
     26 N          -3.4998   -4.7509   -0.0171 N.ar    1  LIG1       -0.3574
     27 H          -2.5066   -4.7126   -0.0325 H       1  LIG1        0.1654
     28 H          -3.6985   -7.0783   -0.0256 H       1  LIG1        0.0820
     29 S          -6.6948   -3.3844    0.0381 S.3     1  LIG1       -0.1393
     30 H          -7.7512   -4.1590    0.0449 H       1  LIG1        0.1072
     31 N          -7.4755   -7.0756    0.0341 N.1     1  LIG1       -0.1908
     32 C          -6.5804   -6.3592    0.0232 C.1     1  LIG1        0.1018
@<TRIPOS>BOND
     1    27    26    1
     2    28    25    1
     3    26    25   ar
     4    26    22   ar
     5    25    24   ar
     6     2     8    1
     7     2     1   ar
     8     2     3   ar
     9    17    16    1
    10    13    18    1
    11    13    12   ar
    12    13    14   ar
    13     4    12    1
    14     4     5   ar
    15     4     3   ar
    16     6     5    1
    17     8     9    1
    18    18    19    1
    19    12    16   ar
    20     5     1   ar
    21    16    15   ar
    22     1     7    1
    23     3    11    1
    24    15    14   ar
    25    15    22    1
    26    11    10    3
    27    14    21    1
    28    22    23   ar
    29    21    20    3
    30    24    23   ar
    31    24    32    1
    32    23    29    1
    33    32    31    3
    34    29    30    1
