@<TRIPOS>MOLECULE
mol_data/noopt/geoms/mol2/13gd13gd-13gd-13gd-.out
 42 45 0 0 0
SMALL
GASTEIGER

@<TRIPOS>ATOM
      1 C           1.1215   -0.3259    0.0002 C.ar    1  LIG1        0.0167
      2 C           0.7176    0.9721   -0.0005 C.ar    1  LIG1        0.0401
      3 C          -0.7144    0.9744    0.0003 C.ar    1  LIG1        0.0915
      4 C          -1.1226   -0.3223   -0.0003 C.ar    1  LIG1        0.0827
      5 N          -0.0018   -1.1217    0.0001 N.ar    1  LIG1       -0.3574
      6 H          -0.0034   -2.1157   -0.0003 H       1  LIG1        0.1654
      7 H           2.3167   -0.8373    0.0007 H       1  LIG1        0.0818
      8 S           1.4918    2.0164   -0.0003 S.3     1  LIG1       -0.1399
      9 H           0.7602    3.1031   -0.0002 H       1  LIG1        0.1072
     10 N          -2.1652    2.9444    0.0016 N.1     1  LIG1       -0.1908
     11 C          -1.4853    2.0212    0.0010 C.1     1  LIG1        0.1024
     12 C          -2.3194   -0.8299   -0.0001 C.ar    1  LIG1        0.0793
     13 C          -3.5353   -0.2219   -0.0003 C.ar    1  LIG1        0.0496
     14 C          -4.5290   -1.2530    0.0012 C.ar    1  LIG1        0.0922
     15 C          -3.8767   -2.4457    0.0005 C.ar    1  LIG1        0.0831
     16 N          -2.5238   -2.1913    0.0002 N.ar    1  LIG1       -0.3499
     17 H          -1.8081   -2.8811   -0.0004 H       1  LIG1        0.1661
     18 S          -3.7520    1.0598   -0.0003 S.3     1  LIG1       -0.1393
     19 H          -5.0425    1.2851   -0.0003 H       1  LIG1        0.1072
     20 N          -6.9548   -0.9344    0.0036 N.1     1  LIG1       -0.1908
     21 C          -5.8179   -1.0837    0.0025 C.1     1  LIG1        0.1025
     22 C          -4.3398   -3.6604    0.0012 C.ar    1  LIG1        0.0793
     23 C          -5.6205   -4.1161    0.0179 C.ar    1  LIG1        0.0496
     24 C          -5.5654   -5.5470    0.0109 C.ar    1  LIG1        0.0922
     25 C          -4.2536   -5.9029   -0.0115 C.ar    1  LIG1        0.0831
     26 N          -3.4998   -4.7509   -0.0171 N.ar    1  LIG1       -0.3499
     27 H          -2.5066   -4.7126   -0.0325 H       1  LIG1        0.1661
     28 S          -6.6948   -3.3844    0.0381 S.3     1  LIG1       -0.1393
     29 H          -7.7512   -4.1590    0.0449 H       1  LIG1        0.1072
     30 N          -7.4755   -7.0756    0.0341 N.1     1  LIG1       -0.1908
     31 C          -6.5804   -6.3592    0.0232 C.1     1  LIG1        0.1025
     32 C          -3.6985   -7.0783   -0.0256 C.ar    1  LIG1        0.0788
     33 C          -4.2574   -8.3175   -0.0355 C.ar    1  LIG1        0.0489
     34 C          -3.1874   -9.2691   -0.0484 C.ar    1  LIG1        0.0828
     35 C          -2.0218   -8.5696   -0.0476 C.ar    1  LIG1        0.0208
     36 N          -2.3301   -7.2280   -0.0332 N.ar    1  LIG1       -0.3574
     37 H          -1.6695   -6.4853   -0.0295 H       1  LIG1        0.1654
     38 H          -0.7895   -8.9837   -0.0567 H       1  LIG1        0.0820
     39 S          -5.5294   -8.5853   -0.0321 S.3     1  LIG1       -0.1393
     40 H          -5.7029   -9.8838   -0.0310 H       1  LIG1        0.1072
     41 N          -3.4087  -11.7056   -0.0690 N.1     1  LIG1       -0.1908
     42 C          -3.3050  -10.5637   -0.0593 C.1     1  LIG1        0.1018
@<TRIPOS>BOND
     1    41    42    3
     2    42    34    1
     3    38    35    1
     4    34    35   ar
     5    34    33   ar
     6    35    36   ar
     7    33    39    1
     8    33    32   ar
     9    36    37    1
    10    36    32   ar
    11    27    26    1
    12    39    40    1
    13    32    25    1
    14    26    25   ar
    15    26    22   ar
    16    25    24   ar
    17     2     8    1
    18     2     1   ar
    19     2     3   ar
    20    17    16    1
    21    13    18    1
    22    13    12   ar
    23    13    14   ar
    24     8     9    1
    25     6     5    1
    26     4    12    1
    27     4     5   ar
    28     4     3   ar
    29    18    19    1
    30    12    16   ar
    31     5     1   ar
    32    16    15   ar
    33     1     7    1
    34     3    11    1
    35    15    14   ar
    36    15    22    1
    37    11    10    3
    38    14    21    1
    39    22    23   ar
    40    21    20    3
    41    24    23   ar
    42    24    31    1
    43    23    28    1
    44    31    30    3
    45    28    29    1
