@<TRIPOS>MOLECULE
mol_data/noopt/geoms/mol2/13gd13gd13gd-13gd.out
 42 45 0 0 0
SMALL
GASTEIGER

@<TRIPOS>ATOM
      1 C           1.1215   -0.3259    0.0002 C.ar    1  LIG1        0.0167
      2 C           0.7176    0.9721   -0.0005 C.ar    1  LIG1        0.0401
      3 C          -0.7144    0.9744    0.0003 C.ar    1  LIG1        0.0915
      4 C          -1.1226   -0.3223   -0.0003 C.ar    1  LIG1        0.0827
      5 N          -0.0018   -1.1217    0.0001 N.ar    1  LIG1       -0.3574
      6 H          -0.0034   -2.1157   -0.0003 H       1  LIG1        0.1654
      7 H           2.3167   -0.8373    0.0007 H       1  LIG1        0.0818
      8 S           1.4918    2.0164   -0.0003 S.3     1  LIG1       -0.1399
      9 H           0.7602    3.1031   -0.0002 H       1  LIG1        0.1072
     10 N          -2.1652    2.9444    0.0016 N.1     1  LIG1       -0.1908
     11 C          -1.4853    2.0212    0.0010 C.1     1  LIG1        0.1024
     12 C          -2.3194   -0.8299   -0.0001 C.ar    1  LIG1        0.0793
     13 C          -3.5352   -0.2220    0.0163 C.ar    1  LIG1        0.0496
     14 C          -4.5290   -1.2531    0.0088 C.ar    1  LIG1        0.0922
     15 C          -3.8768   -2.4456   -0.0136 C.ar    1  LIG1        0.0831
     16 N          -2.5238   -2.1911   -0.0187 N.ar    1  LIG1       -0.3499
     17 H          -1.8082   -2.8808   -0.0339 H       1  LIG1        0.1661
     18 S          -3.7519    1.0596    0.0366 S.3     1  LIG1       -0.1393
     19 H          -5.0423    1.2848    0.0435 H       1  LIG1        0.1072
     20 N          -6.9547   -0.9346    0.0312 N.1     1  LIG1       -0.1908
     21 C          -5.8179   -1.0839    0.0207 C.1     1  LIG1        0.1025
     22 C          -4.3399   -3.6602   -0.0280 C.ar    1  LIG1        0.0793
     23 C          -5.6206   -4.1159   -0.0215 C.ar    1  LIG1        0.0496
     24 C          -5.5656   -5.5467   -0.0437 C.ar    1  LIG1        0.0922
     25 C          -4.2537   -5.9024   -0.0646 C.ar    1  LIG1        0.0831
     26 N          -3.4998   -4.7505   -0.0546 N.ar    1  LIG1       -0.3499
     27 H          -2.5066   -4.7122   -0.0655 H       1  LIG1        0.1661
     28 S          -6.6950   -3.3844    0.0022 S.3     1  LIG1       -0.1393
     29 H          -7.7513   -4.1591    0.0102 H       1  LIG1        0.1072
     30 N          -7.4759   -7.0753   -0.0450 N.1     1  LIG1       -0.1908
     31 C          -6.5806   -6.3589   -0.0444 C.1     1  LIG1        0.1025
     32 C          -3.6986   -7.0777   -0.0891 C.ar    1  LIG1        0.0788
     33 C          -4.2572   -8.3170   -0.0894 C.ar    1  LIG1        0.0489
     34 C          -3.1874   -9.2683   -0.1219 C.ar    1  LIG1        0.0828
     35 C          -2.0221   -8.5685   -0.1418 C.ar    1  LIG1        0.0208
     36 N          -2.3305   -7.2269   -0.1213 N.ar    1  LIG1       -0.3574
     37 H          -1.6702   -6.4840   -0.1292 H       1  LIG1        0.1654
     38 H          -0.7901   -8.9822   -0.1732 H       1  LIG1        0.0820
     39 S          -5.5289   -8.5853   -0.0634 S.3     1  LIG1       -0.1393
     40 H          -5.7018   -9.8838   -0.0546 H       1  LIG1        0.1072
     41 N          -3.4083  -11.7049   -0.1396 N.1     1  LIG1       -0.1908
     42 C          -3.3048  -10.5630   -0.1313 C.1     1  LIG1        0.1018
@<TRIPOS>BOND
     1    38    35    1
     2    35    34   ar
     3    35    36   ar
     4    41    42    3
     5    42    34    1
     6    37    36    1
     7    34    33   ar
     8    36    32   ar
     9    33    32   ar
    10    33    39    1
    11    32    25    1
    12    27    26    1
    13    25    26   ar
    14    25    24   ar
    15    39    40    1
    16    26    22   ar
    17    30    31    3
    18    31    24    1
    19    24    23   ar
    20    17    16    1
    21    22    23   ar
    22    22    15    1
    23    23    28    1
    24    16    15   ar
    25    16    12   ar
    26    15    14   ar
    27     2     8    1
    28     2     1   ar
    29     2     3   ar
    30     4    12    1
    31     4     5   ar
    32     4     3   ar
    33     8     9    1
    34     6     5    1
    35    12    13   ar
    36     5     1   ar
    37     1     7    1
    38     3    11    1
    39    11    10    3
    40    28    29    1
    41    14    13   ar
    42    14    21    1
    43    13    18    1
    44    21    20    3
    45    18    19    1
