@<TRIPOS>MOLECULE
mol_data/noopt/geoms/mol2/13gd13gd13gd.out
 32 34 0 0 0
SMALL
GASTEIGER

@<TRIPOS>ATOM
      1 C           1.1215   -0.3259    0.0002 C.ar    1  LIG1        0.0167
      2 C           0.7176    0.9721   -0.0005 C.ar    1  LIG1        0.0401
      3 C          -0.7144    0.9744    0.0003 C.ar    1  LIG1        0.0915
      4 C          -1.1226   -0.3223   -0.0003 C.ar    1  LIG1        0.0827
      5 N          -0.0018   -1.1217    0.0001 N.ar    1  LIG1       -0.3574
      6 H          -0.0034   -2.1157   -0.0003 H       1  LIG1        0.1654
      7 H           2.3167   -0.8373    0.0007 H       1  LIG1        0.0818
      8 S           1.4918    2.0164   -0.0003 S.3     1  LIG1       -0.1399
      9 H           0.7602    3.1031   -0.0002 H       1  LIG1        0.1072
     10 N          -2.1652    2.9444    0.0016 N.1     1  LIG1       -0.1908
     11 C          -1.4853    2.0212    0.0010 C.1     1  LIG1        0.1024
     12 C          -2.3194   -0.8299   -0.0001 C.ar    1  LIG1        0.0793
     13 C          -3.5352   -0.2220    0.0163 C.ar    1  LIG1        0.0496
     14 C          -4.5290   -1.2531    0.0088 C.ar    1  LIG1        0.0922
     15 C          -3.8768   -2.4456   -0.0136 C.ar    1  LIG1        0.0831
     16 N          -2.5238   -2.1911   -0.0187 N.ar    1  LIG1       -0.3499
     17 H          -1.8082   -2.8808   -0.0339 H       1  LIG1        0.1661
     18 S          -3.7519    1.0596    0.0366 S.3     1  LIG1       -0.1393
     19 H          -5.0423    1.2848    0.0435 H       1  LIG1        0.1072
     20 N          -6.9547   -0.9346    0.0312 N.1     1  LIG1       -0.1908
     21 C          -5.8179   -1.0839    0.0207 C.1     1  LIG1        0.1025
     22 C          -4.3399   -3.6602   -0.0280 C.ar    1  LIG1        0.0788
     23 C          -5.6207   -4.1157   -0.0381 C.ar    1  LIG1        0.0489
     24 C          -5.5656   -5.5466   -0.0513 C.ar    1  LIG1        0.0828
     25 C          -4.2537   -5.9026   -0.0505 C.ar    1  LIG1        0.0208
     26 N          -3.4998   -4.7508   -0.0358 N.ar    1  LIG1       -0.3574
     27 H          -2.5065   -4.7126   -0.0320 H       1  LIG1        0.1654
     28 H          -3.6986   -7.0781   -0.0599 H       1  LIG1        0.0820
     29 S          -6.6951   -3.3839   -0.0347 S.3     1  LIG1       -0.1393
     30 H          -7.7516   -4.1584   -0.0335 H       1  LIG1        0.1072
     31 N          -7.4760   -7.0750   -0.0725 N.1     1  LIG1       -0.1908
     32 C          -6.5807   -6.3587   -0.0626 C.1     1  LIG1        0.1018
@<TRIPOS>BOND
     1    31    32    3
     2    32    24    1
     3    28    25    1
     4    24    25   ar
     5    24    23   ar
     6    25    26   ar
     7    23    29    1
     8    23    22   ar
     9    26    27    1
    10    26    22   ar
    11    29    30    1
    12    17    16    1
    13    22    15    1
    14    16    15   ar
    15    16    12   ar
    16    15    14   ar
    17     2     8    1
    18     2     1   ar
    19     2     3   ar
    20     6     5    1
    21     8     9    1
    22     4    12    1
    23     4     5   ar
    24     4     3   ar
    25    12    13   ar
    26     5     1   ar
    27     1     7    1
    28     3    11    1
    29    11    10    3
    30    14    13   ar
    31    14    21    1
    32    13    18    1
    33    21    20    3
    34    18    19    1
