@<TRIPOS>MOLECULE
mol_data/noopt/geoms/mol2/13gd13gd-13gd13gd.out
 42 45 0 0 0
SMALL
GASTEIGER

@<TRIPOS>ATOM
      1 C           1.1215   -0.3259    0.0002 C.ar    1  LIG1        0.0167
      2 C           0.7176    0.9721   -0.0005 C.ar    1  LIG1        0.0401
      3 C          -0.7144    0.9744    0.0003 C.ar    1  LIG1        0.0915
      4 C          -1.1226   -0.3223   -0.0003 C.ar    1  LIG1        0.0827
      5 N          -0.0018   -1.1217    0.0001 N.ar    1  LIG1       -0.3574
      6 H          -0.0034   -2.1157   -0.0003 H       1  LIG1        0.1654
      7 H           2.3167   -0.8373    0.0007 H       1  LIG1        0.0818
      8 S           1.4918    2.0164   -0.0003 S.3     1  LIG1       -0.1399
      9 H           0.7602    3.1031   -0.0002 H       1  LIG1        0.1072
     10 N          -2.1652    2.9444    0.0016 N.1     1  LIG1       -0.1908
     11 C          -1.4853    2.0212    0.0010 C.1     1  LIG1        0.1024
     12 C          -2.3194   -0.8299   -0.0001 C.ar    1  LIG1        0.0793
     13 C          -3.5353   -0.2219   -0.0003 C.ar    1  LIG1        0.0496
     14 C          -4.5290   -1.2530    0.0012 C.ar    1  LIG1        0.0922
     15 C          -3.8767   -2.4457    0.0005 C.ar    1  LIG1        0.0831
     16 N          -2.5238   -2.1913    0.0002 N.ar    1  LIG1       -0.3499
     17 H          -1.8081   -2.8811   -0.0004 H       1  LIG1        0.1661
     18 S          -3.7520    1.0598   -0.0003 S.3     1  LIG1       -0.1393
     19 H          -5.0425    1.2851   -0.0003 H       1  LIG1        0.1072
     20 N          -6.9548   -0.9344    0.0036 N.1     1  LIG1       -0.1908
     21 C          -5.8179   -1.0837    0.0025 C.1     1  LIG1        0.1025
     22 C          -4.3398   -3.6604    0.0012 C.ar    1  LIG1        0.0793
     23 C          -5.6206   -4.1160    0.0013 C.ar    1  LIG1        0.0496
     24 C          -5.5655   -5.5470    0.0033 C.ar    1  LIG1        0.0922
     25 C          -4.2535   -5.9029    0.0026 C.ar    1  LIG1        0.0831
     26 N          -3.4996   -4.7510    0.0018 N.ar    1  LIG1       -0.3499
     27 H          -2.5064   -4.7127    0.0010 H       1  LIG1        0.1661
     28 S          -6.6950   -3.3843    0.0012 S.3     1  LIG1       -0.1393
     29 H          -7.7515   -4.1589    0.0012 H       1  LIG1        0.1072
     30 N          -7.4758   -7.0756    0.0065 N.1     1  LIG1       -0.1908
     31 C          -6.5805   -6.3592    0.0050 C.1     1  LIG1        0.1025
     32 C          -3.6983   -7.0784    0.0036 C.ar    1  LIG1        0.0788
     33 C          -4.2570   -8.3176    0.0205 C.ar    1  LIG1        0.0489
     34 C          -3.1869   -9.2692    0.0139 C.ar    1  LIG1        0.0828
     35 C          -2.0215   -8.5697   -0.0086 C.ar    1  LIG1        0.0208
     36 N          -2.3300   -7.2281   -0.0145 N.ar    1  LIG1       -0.3574
     37 H          -1.6695   -6.4854   -0.0300 H       1  LIG1        0.1654
     38 H          -0.7893   -8.9838   -0.0224 H       1  LIG1        0.0820
     39 S          -5.5289   -8.5854    0.0407 S.3     1  LIG1       -0.1393
     40 H          -5.7022   -9.8839    0.0475 H       1  LIG1        0.1072
     41 N          -3.4079  -11.7057    0.0376 N.1     1  LIG1       -0.1908
     42 C          -3.3044  -10.5639    0.0265 C.1     1  LIG1        0.1018
@<TRIPOS>BOND
     1    37    36    1
     2    38    35    1
     3    36    35   ar
     4    36    32   ar
     5    35    34   ar
     6     2     8    1
     7     2     1   ar
     8     2     3   ar
     9    17    16    1
    10    13    18    1
    11    13    12   ar
    12    13    14   ar
    13     8     9    1
    14     4    12    1
    15     4     5   ar
    16     4     3   ar
    17     6     5    1
    18    18    19    1
    19    12    16   ar
    20     5     1   ar
    21    16    15   ar
    22     1     7    1
    23     3    11    1
    24    15    14   ar
    25    15    22    1
    26    27    26    1
    27    11    10    3
    28    14    21    1
    29    22    23   ar
    30    22    26   ar
    31    29    28    1
    32    28    23    1
    33    23    24   ar
    34    26    25   ar
    35    21    20    3
    36    25    24   ar
    37    25    32    1
    38    24    31    1
    39    32    33   ar
    40    31    30    3
    41    34    33   ar
    42    34    42    1
    43    33    39    1
    44    42    41    3
    45    39    40    1
