@<TRIPOS>MOLECULE
mol_data/noopt/geoms/mol2/13ge13ge13ge-.out
 35 37 0 0 0
SMALL
GASTEIGER

@<TRIPOS>ATOM
      1 C           1.1215   -0.3259    0.0002 C.ar    1  LIG1        0.0167
      2 C           0.7176    0.9721   -0.0005 C.ar    1  LIG1        0.0381
      3 C          -0.7144    0.9744    0.0003 C.ar    1  LIG1        0.0645
      4 C          -1.1226   -0.3223   -0.0003 C.ar    1  LIG1        0.0807
      5 N          -0.0018   -1.1217    0.0001 N.ar    1  LIG1       -0.3575
      6 H          -0.0034   -2.1157   -0.0003 H       1  LIG1        0.1654
      7 H           2.3167   -0.8373    0.0007 H       1  LIG1        0.0818
      8 S           1.4918    2.0164   -0.0003 S.3     1  LIG1       -0.1400
      9 H           0.7602    3.1031   -0.0002 H       1  LIG1        0.1072
     10 C          -1.4853    2.0212    0.0010 C.1     1  LIG1       -0.0664
     11 C          -2.1976    2.9884    0.0016 C.1     1  LIG1       -0.1138
     12 H          -2.8321    3.8500    0.0022 H       1  LIG1        0.1232
     13 C          -2.3194   -0.8299   -0.0001 C.ar    1  LIG1        0.0791
     14 C          -3.5352   -0.2220    0.0163 C.ar    1  LIG1        0.0476
     15 C          -4.5290   -1.2531    0.0088 C.ar    1  LIG1        0.0652
     16 C          -3.8768   -2.4456   -0.0136 C.ar    1  LIG1        0.0811
     17 N          -2.5238   -2.1911   -0.0187 N.ar    1  LIG1       -0.3500
     18 H          -1.8082   -2.8808   -0.0339 H       1  LIG1        0.1661
     19 S          -3.7519    1.0596    0.0366 S.3     1  LIG1       -0.1393
     20 H          -5.0423    1.2848    0.0435 H       1  LIG1        0.1072
     21 C          -5.8179   -1.0839    0.0207 C.1     1  LIG1       -0.0664
     22 C          -7.0088   -0.9275    0.0317 C.1     1  LIG1       -0.1138
     23 H          -8.0697   -0.7883    0.0414 H       1  LIG1        0.1232
     24 C          -4.3399   -3.6602   -0.0280 C.ar    1  LIG1        0.0787
     25 C          -5.6206   -4.1159   -0.0215 C.ar    1  LIG1        0.0469
     26 C          -5.5656   -5.5467   -0.0437 C.ar    1  LIG1        0.0557
     27 C          -4.2537   -5.9024   -0.0646 C.ar    1  LIG1        0.0188
     28 N          -3.4998   -4.7505   -0.0546 N.ar    1  LIG1       -0.3575
     29 H          -2.5066   -4.7122   -0.0655 H       1  LIG1        0.1654
     30 H          -3.6986   -7.0777   -0.0891 H       1  LIG1        0.0820
     31 S          -6.6950   -3.3844    0.0022 S.3     1  LIG1       -0.1394
     32 H          -7.7513   -4.1591    0.0102 H       1  LIG1        0.1072
     33 C          -6.5806   -6.3589   -0.0444 C.1     1  LIG1       -0.0671
     34 C          -7.5185   -7.1094   -0.0450 C.1     1  LIG1       -0.1138
     35 H          -8.3539   -7.7780   -0.0456 H       1  LIG1        0.1232
@<TRIPOS>BOND
     1    30    27    1
     2    29    28    1
     3    27    28   ar
     4    27    26   ar
     5    28    24   ar
     6    35    34    1
     7    34    33    3
     8    33    26    1
     9    26    25   ar
    10    18    17    1
    11    24    25   ar
    12    24    16    1
    13    25    31    1
    14    17    16   ar
    15    17    13   ar
    16    16    15   ar
    17     2     8    1
    18     2     1   ar
    19     2     3   ar
    20     4    13    1
    21     4     5   ar
    22     4     3   ar
    23     6     5    1
    24     8     9    1
    25    13    14   ar
    26     5     1   ar
    27     1     7    1
    28     3    10    1
    29    10    11    3
    30    11    12    1
    31    31    32    1
    32    15    14   ar
    33    15    21    1
    34    14    19    1
    35    21    22    3
    36    22    23    1
    37    19    20    1
