@<TRIPOS>MOLECULE
mol_data/noopt/geoms/mol2/13ge.out
 13 13 0 0 0
SMALL
GASTEIGER

@<TRIPOS>ATOM
      1 C           1.1215   -0.3259    0.0002 C.ar    1  LIG1        0.0161
      2 C           0.7176    0.9721   -0.0005 C.ar    1  LIG1        0.0375
      3 C          -0.7144    0.9744    0.0003 C.ar    1  LIG1        0.0551
      4 C          -1.1226   -0.3223   -0.0003 C.ar    1  LIG1        0.0183
      5 N          -0.0018   -1.1217    0.0001 N.ar    1  LIG1       -0.3650
      6 H          -0.0034   -2.1157   -0.0003 H       1  LIG1        0.1648
      7 H          -2.3194   -0.8299   -0.0001 H       1  LIG1        0.0819
      8 H           2.3167   -0.8373    0.0007 H       1  LIG1        0.0818
      9 S           1.4918    2.0164   -0.0003 S.3     1  LIG1       -0.1400
     10 H           0.7602    3.1031   -0.0002 H       1  LIG1        0.1072
     11 C          -1.4853    2.0212    0.0010 C.1     1  LIG1       -0.0671
     12 C          -2.1976    2.9884    0.0016 C.1     1  LIG1       -0.1138
     13 H          -2.8321    3.8500    0.0022 H       1  LIG1        0.1232
@<TRIPOS>BOND
     1     2     9    1
     2     2     1   ar
     3     2     3   ar
     4     4     7    1
     5     4     5   ar
     6     4     3   ar
     7     6     5    1
     8     9    10    1
     9     5     1   ar
    10     1     8    1
    11     3    11    1
    12    11    12    3
    13    12    13    1
