@<TRIPOS>MOLECULE
mol_data/noopt/geoms/mol2/13ge13ge-13ge-13ge-.out
 46 49 0 0 0
SMALL
GASTEIGER

@<TRIPOS>ATOM
      1 C           1.1215   -0.3259    0.0002 C.ar    1  LIG1        0.0167
      2 C           0.7176    0.9721   -0.0005 C.ar    1  LIG1        0.0381
      3 C          -0.7144    0.9744    0.0003 C.ar    1  LIG1        0.0645
      4 C          -1.1226   -0.3223   -0.0003 C.ar    1  LIG1        0.0807
      5 N          -0.0018   -1.1217    0.0001 N.ar    1  LIG1       -0.3575
      6 H          -0.0034   -2.1157   -0.0003 H       1  LIG1        0.1654
      7 H           2.3167   -0.8373    0.0007 H       1  LIG1        0.0818
      8 S           1.4918    2.0164   -0.0003 S.3     1  LIG1       -0.1400
      9 H           0.7602    3.1031   -0.0002 H       1  LIG1        0.1072
     10 C          -1.4853    2.0212    0.0010 C.1     1  LIG1       -0.0664
     11 C          -2.1976    2.9884    0.0016 C.1     1  LIG1       -0.1138
     12 H          -2.8321    3.8500    0.0022 H       1  LIG1        0.1232
     13 C          -2.3194   -0.8299   -0.0001 C.ar    1  LIG1        0.0791
     14 C          -3.5353   -0.2219   -0.0003 C.ar    1  LIG1        0.0476
     15 C          -4.5290   -1.2530    0.0012 C.ar    1  LIG1        0.0652
     16 C          -3.8767   -2.4457    0.0005 C.ar    1  LIG1        0.0811
     17 N          -2.5238   -2.1913    0.0002 N.ar    1  LIG1       -0.3500
     18 H          -1.8081   -2.8811   -0.0004 H       1  LIG1        0.1661
     19 S          -3.7520    1.0598   -0.0003 S.3     1  LIG1       -0.1393
     20 H          -5.0425    1.2851   -0.0003 H       1  LIG1        0.1072
     21 C          -5.8179   -1.0837    0.0025 C.1     1  LIG1       -0.0664
     22 C          -7.0089   -0.9273    0.0037 C.1     1  LIG1       -0.1138
     23 H          -8.0698   -0.7879    0.0048 H       1  LIG1        0.1232
     24 C          -4.3398   -3.6604    0.0012 C.ar    1  LIG1        0.0791
     25 C          -5.6205   -4.1161    0.0179 C.ar    1  LIG1        0.0476
     26 C          -5.5654   -5.5470    0.0109 C.ar    1  LIG1        0.0652
     27 C          -4.2536   -5.9029   -0.0115 C.ar    1  LIG1        0.0811
     28 N          -3.4998   -4.7509   -0.0171 N.ar    1  LIG1       -0.3500
     29 H          -2.5066   -4.7126   -0.0325 H       1  LIG1        0.1661
     30 S          -6.6948   -3.3844    0.0381 S.3     1  LIG1       -0.1393
     31 H          -7.7512   -4.1590    0.0449 H       1  LIG1        0.1072
     32 C          -6.5804   -6.3592    0.0232 C.1     1  LIG1       -0.0664
     33 C          -7.5182   -7.1098    0.0346 C.1     1  LIG1       -0.1138
     34 H          -8.3535   -7.7783    0.0447 H       1  LIG1        0.1232
     35 C          -3.6985   -7.0783   -0.0256 C.ar    1  LIG1        0.0787
     36 C          -4.2574   -8.3175   -0.0355 C.ar    1  LIG1        0.0469
     37 C          -3.1874   -9.2691   -0.0484 C.ar    1  LIG1        0.0557
     38 C          -2.0218   -8.5696   -0.0476 C.ar    1  LIG1        0.0188
     39 N          -2.3301   -7.2280   -0.0332 N.ar    1  LIG1       -0.3575
     40 H          -1.6695   -6.4853   -0.0295 H       1  LIG1        0.1654
     41 H          -0.7895   -8.9837   -0.0567 H       1  LIG1        0.0820
     42 S          -5.5294   -8.5853   -0.0321 S.3     1  LIG1       -0.1394
     43 H          -5.7029   -9.8838   -0.0310 H       1  LIG1        0.1072
     44 C          -3.3050  -10.5637   -0.0593 C.1     1  LIG1       -0.0671
     45 C          -3.4137  -11.7600   -0.0695 C.1     1  LIG1       -0.1138
     46 H          -3.5105  -12.8256   -0.0785 H       1  LIG1        0.1232
@<TRIPOS>BOND
     1    46    45    1
     2    45    44    3
     3    44    37    1
     4    41    38    1
     5    37    38   ar
     6    37    36   ar
     7    38    39   ar
     8    36    42    1
     9    36    35   ar
    10    39    40    1
    11    39    35   ar
    12    29    28    1
    13    42    43    1
    14    35    27    1
    15    28    27   ar
    16    28    24   ar
    17    27    26   ar
    18     2     8    1
    19     2     1   ar
    20     2     3   ar
    21    18    17    1
    22    14    19    1
    23    14    13   ar
    24    14    15   ar
    25     8     9    1
    26     6     5    1
    27     4    13    1
    28     4     5   ar
    29     4     3   ar
    30    19    20    1
    31    13    17   ar
    32     5     1   ar
    33    17    16   ar
    34     1     7    1
    35     3    10    1
    36    16    15   ar
    37    16    24    1
    38    10    11    3
    39    15    21    1
    40    24    25   ar
    41    11    12    1
    42    21    22    3
    43    22    23    1
    44    26    25   ar
    45    26    32    1
    46    25    30    1
    47    32    33    3
    48    33    34    1
    49    30    31    1
