@<TRIPOS>MOLECULE
mol_data/noopt/geoms/mol2/13ge13ge13ge-13ge-.out
 46 49 0 0 0
SMALL
GASTEIGER

@<TRIPOS>ATOM
      1 C           1.1215   -0.3259    0.0002 C.ar    1  LIG1        0.0167
      2 C           0.7176    0.9721   -0.0005 C.ar    1  LIG1        0.0381
      3 C          -0.7144    0.9744    0.0003 C.ar    1  LIG1        0.0645
      4 C          -1.1226   -0.3223   -0.0003 C.ar    1  LIG1        0.0807
      5 N          -0.0018   -1.1217    0.0001 N.ar    1  LIG1       -0.3575
      6 H          -0.0034   -2.1157   -0.0003 H       1  LIG1        0.1654
      7 H           2.3167   -0.8373    0.0007 H       1  LIG1        0.0818
      8 S           1.4918    2.0164   -0.0003 S.3     1  LIG1       -0.1400
      9 H           0.7602    3.1031   -0.0002 H       1  LIG1        0.1072
     10 C          -1.4853    2.0212    0.0010 C.1     1  LIG1       -0.0664
     11 C          -2.1976    2.9884    0.0016 C.1     1  LIG1       -0.1138
     12 H          -2.8321    3.8500    0.0022 H       1  LIG1        0.1232
     13 C          -2.3194   -0.8299   -0.0001 C.ar    1  LIG1        0.0791
     14 C          -3.5352   -0.2220    0.0163 C.ar    1  LIG1        0.0476
     15 C          -4.5290   -1.2531    0.0088 C.ar    1  LIG1        0.0652
     16 C          -3.8768   -2.4456   -0.0136 C.ar    1  LIG1        0.0811
     17 N          -2.5238   -2.1911   -0.0187 N.ar    1  LIG1       -0.3500
     18 H          -1.8082   -2.8808   -0.0339 H       1  LIG1        0.1661
     19 S          -3.7519    1.0596    0.0366 S.3     1  LIG1       -0.1393
     20 H          -5.0423    1.2848    0.0435 H       1  LIG1        0.1072
     21 C          -5.8179   -1.0839    0.0207 C.1     1  LIG1       -0.0664
     22 C          -7.0088   -0.9275    0.0317 C.1     1  LIG1       -0.1138
     23 H          -8.0697   -0.7883    0.0414 H       1  LIG1        0.1232
     24 C          -4.3399   -3.6602   -0.0280 C.ar    1  LIG1        0.0791
     25 C          -5.6206   -4.1159   -0.0215 C.ar    1  LIG1        0.0476
     26 C          -5.5656   -5.5467   -0.0437 C.ar    1  LIG1        0.0652
     27 C          -4.2537   -5.9024   -0.0646 C.ar    1  LIG1        0.0811
     28 N          -3.4998   -4.7505   -0.0546 N.ar    1  LIG1       -0.3500
     29 H          -2.5066   -4.7122   -0.0655 H       1  LIG1        0.1661
     30 S          -6.6950   -3.3844    0.0022 S.3     1  LIG1       -0.1393
     31 H          -7.7513   -4.1591    0.0102 H       1  LIG1        0.1072
     32 C          -6.5806   -6.3589   -0.0444 C.1     1  LIG1       -0.0664
     33 C          -7.5185   -7.1094   -0.0450 C.1     1  LIG1       -0.1138
     34 H          -8.3539   -7.7780   -0.0456 H       1  LIG1        0.1232
     35 C          -3.6986   -7.0777   -0.0891 C.ar    1  LIG1        0.0787
     36 C          -4.2575   -8.3168   -0.1060 C.ar    1  LIG1        0.0469
     37 C          -3.1875   -9.2682   -0.1295 C.ar    1  LIG1        0.0557
     38 C          -2.0219   -8.5687   -0.1276 C.ar    1  LIG1        0.0188
     39 N          -2.3302   -7.2272   -0.1024 N.ar    1  LIG1       -0.3575
     40 H          -1.6696   -6.4845   -0.0957 H       1  LIG1        0.1654
     41 H          -0.7896   -8.9826   -0.1440 H       1  LIG1        0.0820
     42 S          -5.5295   -8.5847   -0.1003 S.3     1  LIG1       -0.1394
     43 H          -5.7028   -9.8832   -0.0984 H       1  LIG1        0.1072
     44 C          -3.3051  -10.5627   -0.1495 C.1     1  LIG1       -0.0671
     45 C          -3.4137  -11.7589   -0.1679 C.1     1  LIG1       -0.1138
     46 H          -3.5105  -12.8244   -0.1843 H       1  LIG1        0.1232
@<TRIPOS>BOND
     1    46    45    1
     2    45    44    3
     3    44    37    1
     4    41    38    1
     5    37    38   ar
     6    37    36   ar
     7    38    39   ar
     8    36    42    1
     9    36    35   ar
    10    39    40    1
    11    39    35   ar
    12    42    43    1
    13    35    27    1
    14    29    28    1
    15    27    28   ar
    16    27    26   ar
    17    28    24   ar
    18    34    33    1
    19    33    32    3
    20    32    26    1
    21    26    25   ar
    22    18    17    1
    23    24    25   ar
    24    24    16    1
    25    25    30    1
    26    17    16   ar
    27    17    13   ar
    28    16    15   ar
    29     2     8    1
    30     2     1   ar
    31     2     3   ar
    32     4    13    1
    33     4     5   ar
    34     4     3   ar
    35     8     9    1
    36     6     5    1
    37    13    14   ar
    38     5     1   ar
    39     1     7    1
    40     3    10    1
    41    10    11    3
    42    11    12    1
    43    30    31    1
    44    15    14   ar
    45    15    21    1
    46    14    19    1
    47    21    22    3
    48    22    23    1
    49    19    20    1
