@<TRIPOS>MOLECULE
mol_data/noopt/geoms/mol2/13ge13ge.out
 24 25 0 0 0
SMALL
GASTEIGER

@<TRIPOS>ATOM
      1 C           1.1215   -0.3259    0.0002 C.ar    1  LIG1        0.0167
      2 C           0.7176    0.9721   -0.0005 C.ar    1  LIG1        0.0381
      3 C          -0.7144    0.9744    0.0003 C.ar    1  LIG1        0.0645
      4 C          -1.1226   -0.3223   -0.0003 C.ar    1  LIG1        0.0806
      5 N          -0.0018   -1.1217    0.0001 N.ar    1  LIG1       -0.3575
      6 H          -0.0034   -2.1157   -0.0003 H       1  LIG1        0.1654
      7 H           2.3167   -0.8373    0.0007 H       1  LIG1        0.0818
      8 S           1.4918    2.0164   -0.0003 S.3     1  LIG1       -0.1400
      9 H           0.7602    3.1031   -0.0002 H       1  LIG1        0.1072
     10 C          -1.4853    2.0212    0.0010 C.1     1  LIG1       -0.0664
     11 C          -2.1976    2.9884    0.0016 C.1     1  LIG1       -0.1138
     12 H          -2.8321    3.8500    0.0022 H       1  LIG1        0.1232
     13 C          -2.3194   -0.8299   -0.0001 C.ar    1  LIG1        0.0787
     14 C          -3.5352   -0.2220    0.0163 C.ar    1  LIG1        0.0469
     15 C          -4.5290   -1.2531    0.0088 C.ar    1  LIG1        0.0557
     16 C          -3.8768   -2.4456   -0.0136 C.ar    1  LIG1        0.0188
     17 N          -2.5238   -2.1911   -0.0187 N.ar    1  LIG1       -0.3575
     18 H          -1.8082   -2.8808   -0.0339 H       1  LIG1        0.1654
     19 H          -4.3399   -3.6602   -0.0280 H       1  LIG1        0.0820
     20 S          -3.7519    1.0596    0.0366 S.3     1  LIG1       -0.1394
     21 H          -5.0423    1.2848    0.0435 H       1  LIG1        0.1072
     22 C          -5.8179   -1.0839    0.0207 C.1     1  LIG1       -0.0671
     23 C          -7.0088   -0.9275    0.0317 C.1     1  LIG1       -0.1138
     24 H          -8.0697   -0.7883    0.0414 H       1  LIG1        0.1232
@<TRIPOS>BOND
     1    18    17    1
     2    19    16    1
     3    17    16   ar
     4    17    13   ar
     5    16    15   ar
     6     2     8    1
     7     2     1   ar
     8     2     3   ar
     9     4    13    1
    10     4     5   ar
    11     4     3   ar
    12     6     5    1
    13     8     9    1
    14    13    14   ar
    15     5     1   ar
    16     1     7    1
    17     3    10    1
    18    10    11    3
    19    11    12    1
    20    15    14   ar
    21    15    22    1
    22    14    20    1
    23    22    23    3
    24    23    24    1
    25    20    21    1
