@<TRIPOS>MOLECULE
mol_data/noopt/geoms/mol2/13ge13ge-13ge-.out
 35 37 0 0 0
SMALL
GASTEIGER

@<TRIPOS>ATOM
      1 C           1.1215   -0.3259    0.0002 C.ar    1  LIG1        0.0167
      2 C           0.7176    0.9721   -0.0005 C.ar    1  LIG1        0.0381
      3 C          -0.7144    0.9744    0.0003 C.ar    1  LIG1        0.0645
      4 C          -1.1226   -0.3223   -0.0003 C.ar    1  LIG1        0.0807
      5 N          -0.0018   -1.1217    0.0001 N.ar    1  LIG1       -0.3575
      6 H          -0.0034   -2.1157   -0.0003 H       1  LIG1        0.1654
      7 H           2.3167   -0.8373    0.0007 H       1  LIG1        0.0818
      8 S           1.4918    2.0164   -0.0003 S.3     1  LIG1       -0.1400
      9 H           0.7602    3.1031   -0.0002 H       1  LIG1        0.1072
     10 C          -1.4853    2.0212    0.0010 C.1     1  LIG1       -0.0664
     11 C          -2.1976    2.9884    0.0016 C.1     1  LIG1       -0.1138
     12 H          -2.8321    3.8500    0.0022 H       1  LIG1        0.1232
     13 C          -2.3194   -0.8299   -0.0001 C.ar    1  LIG1        0.0791
     14 C          -3.5353   -0.2219   -0.0003 C.ar    1  LIG1        0.0476
     15 C          -4.5290   -1.2530    0.0012 C.ar    1  LIG1        0.0652
     16 C          -3.8767   -2.4457    0.0005 C.ar    1  LIG1        0.0811
     17 N          -2.5238   -2.1913    0.0002 N.ar    1  LIG1       -0.3500
     18 H          -1.8081   -2.8811   -0.0004 H       1  LIG1        0.1661
     19 S          -3.7520    1.0598   -0.0003 S.3     1  LIG1       -0.1393
     20 H          -5.0425    1.2851   -0.0003 H       1  LIG1        0.1072
     21 C          -5.8179   -1.0837    0.0025 C.1     1  LIG1       -0.0664
     22 C          -7.0089   -0.9273    0.0037 C.1     1  LIG1       -0.1138
     23 H          -8.0698   -0.7879    0.0048 H       1  LIG1        0.1232
     24 C          -4.3398   -3.6604    0.0012 C.ar    1  LIG1        0.0787
     25 C          -5.6205   -4.1161    0.0179 C.ar    1  LIG1        0.0469
     26 C          -5.5654   -5.5470    0.0109 C.ar    1  LIG1        0.0557
     27 C          -4.2536   -5.9029   -0.0115 C.ar    1  LIG1        0.0188
     28 N          -3.4998   -4.7509   -0.0171 N.ar    1  LIG1       -0.3575
     29 H          -2.5066   -4.7126   -0.0325 H       1  LIG1        0.1654
     30 H          -3.6985   -7.0783   -0.0256 H       1  LIG1        0.0820
     31 S          -6.6948   -3.3844    0.0381 S.3     1  LIG1       -0.1394
     32 H          -7.7512   -4.1590    0.0449 H       1  LIG1        0.1072
     33 C          -6.5804   -6.3592    0.0232 C.1     1  LIG1       -0.0671
     34 C          -7.5182   -7.1098    0.0346 C.1     1  LIG1       -0.1138
     35 H          -8.3535   -7.7783    0.0447 H       1  LIG1        0.1232
@<TRIPOS>BOND
     1    29    28    1
     2    30    27    1
     3    28    27   ar
     4    28    24   ar
     5    27    26   ar
     6     2     8    1
     7     2     1   ar
     8     2     3   ar
     9    18    17    1
    10    14    19    1
    11    14    13   ar
    12    14    15   ar
    13     4    13    1
    14     4     5   ar
    15     4     3   ar
    16     6     5    1
    17     8     9    1
    18    19    20    1
    19    13    17   ar
    20     5     1   ar
    21    17    16   ar
    22     1     7    1
    23     3    10    1
    24    16    15   ar
    25    16    24    1
    26    10    11    3
    27    15    21    1
    28    24    25   ar
    29    11    12    1
    30    21    22    3
    31    22    23    1
    32    26    25   ar
    33    26    33    1
    34    25    31    1
    35    33    34    3
    36    34    35    1
    37    31    32    1
