@<TRIPOS>MOLECULE
mol_data/noopt/geoms/mol2/13ge13ge-13ge13ge-.out
 46 49 0 0 0
SMALL
GASTEIGER

@<TRIPOS>ATOM
      1 C           1.1215   -0.3259    0.0002 C.ar    1  LIG1        0.0167
      2 C           0.7176    0.9721   -0.0005 C.ar    1  LIG1        0.0381
      3 C          -0.7144    0.9744    0.0003 C.ar    1  LIG1        0.0645
      4 C          -1.1226   -0.3223   -0.0003 C.ar    1  LIG1        0.0807
      5 N          -0.0018   -1.1217    0.0001 N.ar    1  LIG1       -0.3575
      6 H          -0.0034   -2.1157   -0.0003 H       1  LIG1        0.1654
      7 H           2.3167   -0.8373    0.0007 H       1  LIG1        0.0818
      8 S           1.4918    2.0164   -0.0003 S.3     1  LIG1       -0.1400
      9 H           0.7602    3.1031   -0.0002 H       1  LIG1        0.1072
     10 C          -1.4853    2.0212    0.0010 C.1     1  LIG1       -0.0664
     11 C          -2.1976    2.9884    0.0016 C.1     1  LIG1       -0.1138
     12 H          -2.8321    3.8500    0.0022 H       1  LIG1        0.1232
     13 C          -2.3194   -0.8299   -0.0001 C.ar    1  LIG1        0.0791
     14 C          -3.5353   -0.2219   -0.0003 C.ar    1  LIG1        0.0476
     15 C          -4.5290   -1.2530    0.0012 C.ar    1  LIG1        0.0652
     16 C          -3.8767   -2.4457    0.0005 C.ar    1  LIG1        0.0811
     17 N          -2.5238   -2.1913    0.0002 N.ar    1  LIG1       -0.3500
     18 H          -1.8081   -2.8811   -0.0004 H       1  LIG1        0.1661
     19 S          -3.7520    1.0598   -0.0003 S.3     1  LIG1       -0.1393
     20 H          -5.0425    1.2851   -0.0003 H       1  LIG1        0.1072
     21 C          -5.8179   -1.0837    0.0025 C.1     1  LIG1       -0.0664
     22 C          -7.0089   -0.9273    0.0037 C.1     1  LIG1       -0.1138
     23 H          -8.0698   -0.7879    0.0048 H       1  LIG1        0.1232
     24 C          -4.3398   -3.6604    0.0012 C.ar    1  LIG1        0.0791
     25 C          -5.6206   -4.1160    0.0013 C.ar    1  LIG1        0.0476
     26 C          -5.5655   -5.5470    0.0033 C.ar    1  LIG1        0.0652
     27 C          -4.2535   -5.9029    0.0026 C.ar    1  LIG1        0.0811
     28 N          -3.4996   -4.7510    0.0018 N.ar    1  LIG1       -0.3500
     29 H          -2.5064   -4.7127    0.0010 H       1  LIG1        0.1661
     30 S          -6.6950   -3.3843    0.0012 S.3     1  LIG1       -0.1393
     31 H          -7.7515   -4.1589    0.0012 H       1  LIG1        0.1072
     32 C          -6.5805   -6.3592    0.0050 C.1     1  LIG1       -0.0664
     33 C          -7.5184   -7.1097    0.0066 C.1     1  LIG1       -0.1138
     34 H          -8.3539   -7.7782    0.0080 H       1  LIG1        0.1232
     35 C          -3.6983   -7.0784    0.0036 C.ar    1  LIG1        0.0787
     36 C          -4.2571   -8.3176    0.0039 C.ar    1  LIG1        0.0469
     37 C          -3.1870   -9.2693    0.0063 C.ar    1  LIG1        0.0557
     38 C          -2.0214   -8.5697    0.0055 C.ar    1  LIG1        0.0188
     39 N          -2.3298   -7.2280    0.0043 N.ar    1  LIG1       -0.3575
     40 H          -1.6693   -6.4852    0.0035 H       1  LIG1        0.1654
     41 H          -0.7891   -8.9837    0.0068 H       1  LIG1        0.0820
     42 S          -5.5291   -8.5855    0.0038 S.3     1  LIG1       -0.1394
     43 H          -5.7025   -9.8840    0.0037 H       1  LIG1        0.1072
     44 C          -3.3045  -10.5639    0.0083 C.1     1  LIG1       -0.0671
     45 C          -3.4131  -11.7602    0.0101 C.1     1  LIG1       -0.1138
     46 H          -3.5098  -12.8258    0.0118 H       1  LIG1        0.1232
@<TRIPOS>BOND
     1     2     8    1
     2     2     1   ar
     3     2     3   ar
     4    18    17    1
     5    14    19    1
     6    14    13   ar
     7    14    15   ar
     8     4    13    1
     9     4     5   ar
    10     4     3   ar
    11     6     5    1
    12     8     9    1
    13    19    20    1
    14    13    17   ar
    15     5     1   ar
    16    17    16   ar
    17     1     7    1
    18     3    10    1
    19    16    15   ar
    20    16    24    1
    21    29    28    1
    22    10    11    3
    23    15    21    1
    24    24    25   ar
    25    24    28   ar
    26    31    30    1
    27    30    25    1
    28    25    26   ar
    29    11    12    1
    30    28    27   ar
    31    21    22    3
    32    27    26   ar
    33    27    35    1
    34    26    32    1
    35    40    39    1
    36    35    36   ar
    37    35    39   ar
    38    22    23    1
    39    43    42    1
    40    42    36    1
    41    36    37   ar
    42    39    38   ar
    43    32    33    3
    44    38    37   ar
    45    38    41    1
    46    37    44    1
    47    33    34    1
    48    44    45    3
    49    45    46    1
