@<TRIPOS>MOLECULE
mol_data/noopt/geoms/mol2/13ge13ge-.out
 24 25 0 0 0
SMALL
GASTEIGER

@<TRIPOS>ATOM
      1 C           1.1215   -0.3259    0.0002 C.ar    1  LIG1        0.0167
      2 C           0.7176    0.9721   -0.0005 C.ar    1  LIG1        0.0381
      3 C          -0.7144    0.9744    0.0003 C.ar    1  LIG1        0.0645
      4 C          -1.1226   -0.3223   -0.0003 C.ar    1  LIG1        0.0806
      5 N          -0.0018   -1.1217    0.0001 N.ar    1  LIG1       -0.3575
      6 H          -0.0034   -2.1157   -0.0003 H       1  LIG1        0.1654
      7 H           2.3167   -0.8373    0.0007 H       1  LIG1        0.0818
      8 S           1.4918    2.0164   -0.0003 S.3     1  LIG1       -0.1400
      9 H           0.7602    3.1031   -0.0002 H       1  LIG1        0.1072
     10 C          -1.4853    2.0212    0.0010 C.1     1  LIG1       -0.0664
     11 C          -2.1976    2.9884    0.0016 C.1     1  LIG1       -0.1138
     12 H          -2.8321    3.8500    0.0022 H       1  LIG1        0.1232
     13 C          -2.3194   -0.8299   -0.0001 C.ar    1  LIG1        0.0787
     14 C          -3.5353   -0.2219   -0.0003 C.ar    1  LIG1        0.0469
     15 C          -4.5290   -1.2530    0.0012 C.ar    1  LIG1        0.0557
     16 C          -3.8767   -2.4457    0.0005 C.ar    1  LIG1        0.0188
     17 N          -2.5238   -2.1913    0.0002 N.ar    1  LIG1       -0.3575
     18 H          -1.8081   -2.8811   -0.0004 H       1  LIG1        0.1654
     19 H          -4.3398   -3.6604    0.0012 H       1  LIG1        0.0820
     20 S          -3.7520    1.0598   -0.0003 S.3     1  LIG1       -0.1394
     21 H          -5.0425    1.2851   -0.0003 H       1  LIG1        0.1072
     22 C          -5.8179   -1.0837    0.0025 C.1     1  LIG1       -0.0671
     23 C          -7.0089   -0.9273    0.0037 C.1     1  LIG1       -0.1138
     24 H          -8.0698   -0.7879    0.0048 H       1  LIG1        0.1232
@<TRIPOS>BOND
     1     2     8    1
     2     2     1   ar
     3     2     3   ar
     4    18    17    1
     5    14    20    1
     6    14    13   ar
     7    14    15   ar
     8     4    13    1
     9     4     5   ar
    10     4     3   ar
    11     6     5    1
    12     8     9    1
    13    20    21    1
    14    13    17   ar
    15     5     1   ar
    16    17    16   ar
    17     1     7    1
    18     3    10    1
    19    16    15   ar
    20    16    19    1
    21    10    11    3
    22    15    22    1
    23    11    12    1
    24    22    23    3
    25    23    24    1
