@<TRIPOS>MOLECULE
mol_data/noopt/geoms/mol2/13ge13ge13ge13ge-.out
 46 49 0 0 0
SMALL
GASTEIGER

@<TRIPOS>ATOM
      1 C           1.1215   -0.3259    0.0002 C.ar    1  LIG1        0.0167
      2 C           0.7176    0.9721   -0.0005 C.ar    1  LIG1        0.0381
      3 C          -0.7144    0.9744    0.0003 C.ar    1  LIG1        0.0645
      4 C          -1.1226   -0.3223   -0.0003 C.ar    1  LIG1        0.0807
      5 N          -0.0018   -1.1217    0.0001 N.ar    1  LIG1       -0.3575
      6 H          -0.0034   -2.1157   -0.0003 H       1  LIG1        0.1654
      7 H           2.3167   -0.8373    0.0007 H       1  LIG1        0.0818
      8 S           1.4918    2.0164   -0.0003 S.3     1  LIG1       -0.1400
      9 H           0.7602    3.1031   -0.0002 H       1  LIG1        0.1072
     10 C          -1.4853    2.0212    0.0010 C.1     1  LIG1       -0.0664
     11 C          -2.1976    2.9884    0.0016 C.1     1  LIG1       -0.1138
     12 H          -2.8321    3.8500    0.0022 H       1  LIG1        0.1232
     13 C          -2.3194   -0.8299   -0.0001 C.ar    1  LIG1        0.0791
     14 C          -3.5352   -0.2220    0.0163 C.ar    1  LIG1        0.0476
     15 C          -4.5290   -1.2531    0.0088 C.ar    1  LIG1        0.0652
     16 C          -3.8768   -2.4456   -0.0136 C.ar    1  LIG1        0.0811
     17 N          -2.5238   -2.1911   -0.0187 N.ar    1  LIG1       -0.3500
     18 H          -1.8082   -2.8808   -0.0339 H       1  LIG1        0.1661
     19 S          -3.7519    1.0596    0.0366 S.3     1  LIG1       -0.1393
     20 H          -5.0423    1.2848    0.0435 H       1  LIG1        0.1072
     21 C          -5.8179   -1.0839    0.0207 C.1     1  LIG1       -0.0664
     22 C          -7.0088   -0.9275    0.0317 C.1     1  LIG1       -0.1138
     23 H          -8.0697   -0.7883    0.0414 H       1  LIG1        0.1232
     24 C          -4.3399   -3.6602   -0.0280 C.ar    1  LIG1        0.0791
     25 C          -5.6207   -4.1157   -0.0381 C.ar    1  LIG1        0.0476
     26 C          -5.5656   -5.5466   -0.0513 C.ar    1  LIG1        0.0652
     27 C          -4.2537   -5.9026   -0.0505 C.ar    1  LIG1        0.0811
     28 N          -3.4998   -4.7508   -0.0358 N.ar    1  LIG1       -0.3500
     29 H          -2.5065   -4.7126   -0.0320 H       1  LIG1        0.1661
     30 S          -6.6951   -3.3839   -0.0347 S.3     1  LIG1       -0.1393
     31 H          -7.7516   -4.1584   -0.0335 H       1  LIG1        0.1072
     32 C          -6.5807   -6.3587   -0.0626 C.1     1  LIG1       -0.0664
     33 C          -7.5186   -7.1091   -0.0730 C.1     1  LIG1       -0.1138
     34 H          -8.3541   -7.7775   -0.0823 H       1  LIG1        0.1232
     35 C          -3.6985   -7.0781   -0.0599 C.ar    1  LIG1        0.0787
     36 C          -4.2574   -8.3173   -0.0667 C.ar    1  LIG1        0.0469
     37 C          -3.1873   -9.2689   -0.0749 C.ar    1  LIG1        0.0557
     38 C          -2.0217   -8.5694   -0.0746 C.ar    1  LIG1        0.0188
     39 N          -2.3301   -7.2277   -0.0649 N.ar    1  LIG1       -0.3575
     40 H          -1.6695   -6.4850   -0.0627 H       1  LIG1        0.1654
     41 H          -0.7894   -8.9834   -0.0805 H       1  LIG1        0.0820
     42 S          -5.5294   -8.5852   -0.0644 S.3     1  LIG1       -0.1394
     43 H          -5.7028   -9.8836   -0.0636 H       1  LIG1        0.1072
     44 C          -3.3049  -10.5636   -0.0819 C.1     1  LIG1       -0.0671
     45 C          -3.4135  -11.7598   -0.0883 C.1     1  LIG1       -0.1138
     46 H          -3.5103  -12.8254   -0.0940 H       1  LIG1        0.1232
@<TRIPOS>BOND
     1    46    45    1
     2    45    44    3
     3    34    33    1
     4    44    37    1
     5    41    38    1
     6    37    38   ar
     7    37    36   ar
     8    38    39   ar
     9    33    32    3
    10    36    42    1
    11    36    35   ar
    12    39    40    1
    13    39    35   ar
    14    42    43    1
    15    32    26    1
    16    35    27    1
    17    26    27   ar
    18    26    25   ar
    19    27    28   ar
    20    25    30    1
    21    25    24   ar
    22    28    29    1
    23    28    24   ar
    24    30    31    1
    25    18    17    1
    26    24    16    1
    27    17    16   ar
    28    17    13   ar
    29    16    15   ar
    30     2     8    1
    31     2     1   ar
    32     2     3   ar
    33     4    13    1
    34     4     5   ar
    35     4     3   ar
    36     6     5    1
    37     8     9    1
    38    13    14   ar
    39     5     1   ar
    40     1     7    1
    41     3    10    1
    42    10    11    3
    43    11    12    1
    44    15    14   ar
    45    15    21    1
    46    14    19    1
    47    21    22    3
    48    22    23    1
    49    19    20    1
