@<TRIPOS>MOLECULE
mol_data/noopt/geoms/mol2/13ge13ge-13ge13ge.out
 46 49 0 0 0
SMALL
GASTEIGER

@<TRIPOS>ATOM
      1 C           1.1215   -0.3259    0.0002 C.ar    1  LIG1        0.0167
      2 C           0.7176    0.9721   -0.0005 C.ar    1  LIG1        0.0381
      3 C          -0.7144    0.9744    0.0003 C.ar    1  LIG1        0.0645
      4 C          -1.1226   -0.3223   -0.0003 C.ar    1  LIG1        0.0807
      5 N          -0.0018   -1.1217    0.0001 N.ar    1  LIG1       -0.3575
      6 H          -0.0034   -2.1157   -0.0003 H       1  LIG1        0.1654
      7 H           2.3167   -0.8373    0.0007 H       1  LIG1        0.0818
      8 S           1.4918    2.0164   -0.0003 S.3     1  LIG1       -0.1400
      9 H           0.7602    3.1031   -0.0002 H       1  LIG1        0.1072
     10 C          -1.4853    2.0212    0.0010 C.1     1  LIG1       -0.0664
     11 C          -2.1976    2.9884    0.0016 C.1     1  LIG1       -0.1138
     12 H          -2.8321    3.8500    0.0022 H       1  LIG1        0.1232
     13 C          -2.3194   -0.8299   -0.0001 C.ar    1  LIG1        0.0791
     14 C          -3.5353   -0.2219   -0.0003 C.ar    1  LIG1        0.0476
     15 C          -4.5290   -1.2530    0.0012 C.ar    1  LIG1        0.0652
     16 C          -3.8767   -2.4457    0.0005 C.ar    1  LIG1        0.0811
     17 N          -2.5238   -2.1913    0.0002 N.ar    1  LIG1       -0.3500
     18 H          -1.8081   -2.8811   -0.0004 H       1  LIG1        0.1661
     19 S          -3.7520    1.0598   -0.0003 S.3     1  LIG1       -0.1393
     20 H          -5.0425    1.2851   -0.0003 H       1  LIG1        0.1072
     21 C          -5.8179   -1.0837    0.0025 C.1     1  LIG1       -0.0664
     22 C          -7.0089   -0.9273    0.0037 C.1     1  LIG1       -0.1138
     23 H          -8.0698   -0.7879    0.0048 H       1  LIG1        0.1232
     24 C          -4.3398   -3.6604    0.0012 C.ar    1  LIG1        0.0791
     25 C          -5.6206   -4.1160    0.0013 C.ar    1  LIG1        0.0476
     26 C          -5.5655   -5.5470    0.0033 C.ar    1  LIG1        0.0652
     27 C          -4.2535   -5.9029    0.0026 C.ar    1  LIG1        0.0811
     28 N          -3.4996   -4.7510    0.0018 N.ar    1  LIG1       -0.3500
     29 H          -2.5064   -4.7127    0.0010 H       1  LIG1        0.1661
     30 S          -6.6950   -3.3843    0.0012 S.3     1  LIG1       -0.1393
     31 H          -7.7515   -4.1589    0.0012 H       1  LIG1        0.1072
     32 C          -6.5805   -6.3592    0.0050 C.1     1  LIG1       -0.0664
     33 C          -7.5184   -7.1097    0.0066 C.1     1  LIG1       -0.1138
     34 H          -8.3539   -7.7782    0.0080 H       1  LIG1        0.1232
     35 C          -3.6983   -7.0784    0.0036 C.ar    1  LIG1        0.0787
     36 C          -4.2570   -8.3176    0.0205 C.ar    1  LIG1        0.0469
     37 C          -3.1869   -9.2692    0.0139 C.ar    1  LIG1        0.0557
     38 C          -2.0215   -8.5697   -0.0086 C.ar    1  LIG1        0.0188
     39 N          -2.3300   -7.2281   -0.0145 N.ar    1  LIG1       -0.3575
     40 H          -1.6695   -6.4854   -0.0300 H       1  LIG1        0.1654
     41 H          -0.7893   -8.9838   -0.0224 H       1  LIG1        0.0820
     42 S          -5.5289   -8.5854    0.0407 S.3     1  LIG1       -0.1394
     43 H          -5.7022   -9.8839    0.0475 H       1  LIG1        0.1072
     44 C          -3.3044  -10.5639    0.0265 C.1     1  LIG1       -0.0671
     45 C          -3.4128  -11.7601    0.0381 C.1     1  LIG1       -0.1138
     46 H          -3.5095  -12.8257    0.0485 H       1  LIG1        0.1232
@<TRIPOS>BOND
     1    40    39    1
     2    41    38    1
     3    39    38   ar
     4    39    35   ar
     5    38    37   ar
     6     2     8    1
     7     2     1   ar
     8     2     3   ar
     9    18    17    1
    10    14    19    1
    11    14    13   ar
    12    14    15   ar
    13     4    13    1
    14     4     5   ar
    15     4     3   ar
    16     6     5    1
    17     8     9    1
    18    19    20    1
    19    13    17   ar
    20     5     1   ar
    21    17    16   ar
    22     1     7    1
    23     3    10    1
    24    16    15   ar
    25    16    24    1
    26    29    28    1
    27    10    11    3
    28    15    21    1
    29    24    25   ar
    30    24    28   ar
    31    31    30    1
    32    30    25    1
    33    25    26   ar
    34    11    12    1
    35    28    27   ar
    36    21    22    3
    37    27    26   ar
    38    27    35    1
    39    26    32    1
    40    35    36   ar
    41    22    23    1
    42    32    33    3
    43    33    34    1
    44    37    36   ar
    45    37    44    1
    46    36    42    1
    47    44    45    3
    48    45    46    1
    49    42    43    1
