@<TRIPOS>MOLECULE
mol_data/noopt/geoms/mol2/13gf13gf-13gf-.out
 32 34 0 0 0
SMALL
GASTEIGER

@<TRIPOS>ATOM
      1 C           1.1215   -0.3259    0.0002 C.ar    1  LIG1        0.0191
      2 C           0.7176    0.9721   -0.0005 C.ar    1  LIG1        0.0643
      3 C          -0.7144    0.9744    0.0003 C.ar    1  LIG1        0.1566
      4 C          -1.1226   -0.3223   -0.0003 C.ar    1  LIG1        0.1072
      5 N          -0.0018   -1.1217    0.0001 N.ar    1  LIG1       -0.3555
      6 H          -0.0034   -2.1157   -0.0003 H       1  LIG1        0.1655
      7 H           2.3167   -0.8373    0.0007 H       1  LIG1        0.0819
      8 S           1.4918    2.0164   -0.0003 S.3     1  LIG1       -0.1377
      9 H           0.7602    3.1031   -0.0002 H       1  LIG1        0.1073
     10 O          -1.4853    2.0212    0.0010 O.3     1  LIG1       -0.5035
     11 H          -2.4040    1.7426    0.0012 H       1  LIG1        0.2923
     12 C          -2.3194   -0.8299   -0.0001 C.ar    1  LIG1        0.0840
     13 C          -3.5353   -0.2219   -0.0003 C.ar    1  LIG1        0.0739
     14 C          -4.5290   -1.2530    0.0012 C.ar    1  LIG1        0.1573
     15 C          -3.8767   -2.4457    0.0005 C.ar    1  LIG1        0.1076
     16 N          -2.5238   -2.1913    0.0002 N.ar    1  LIG1       -0.3479
     17 H          -1.8081   -2.8811   -0.0004 H       1  LIG1        0.1661
     18 S          -3.7520    1.0598   -0.0003 S.3     1  LIG1       -0.1370
     19 H          -5.0425    1.2851   -0.0003 H       1  LIG1        0.1073
     20 O          -5.8180   -1.0837    0.0025 O.3     1  LIG1       -0.5035
     21 H          -6.2535   -1.9392    0.0028 H       1  LIG1        0.2923
     22 C          -4.3398   -3.6604    0.0012 C.ar    1  LIG1        0.0835
     23 C          -5.6205   -4.1161    0.0179 C.ar    1  LIG1        0.0732
     24 C          -5.5654   -5.5470    0.0109 C.ar    1  LIG1        0.1478
     25 C          -4.2536   -5.9029   -0.0115 C.ar    1  LIG1        0.0453
     26 N          -3.4998   -4.7509   -0.0171 N.ar    1  LIG1       -0.3555
     27 H          -2.5066   -4.7126   -0.0325 H       1  LIG1        0.1655
     28 H          -3.6985   -7.0783   -0.0256 H       1  LIG1        0.0845
     29 S          -6.6948   -3.3844    0.0381 S.3     1  LIG1       -0.1370
     30 H          -7.7512   -4.1590    0.0449 H       1  LIG1        0.1073
     31 O          -6.5804   -6.3593    0.0232 O.3     1  LIG1       -0.5042
     32 H          -6.2651   -7.2660    0.0262 H       1  LIG1        0.2923
@<TRIPOS>BOND
     1    27    26    1
     2    28    25    1
     3    26    25   ar
     4    26    22   ar
     5    25    24   ar
     6     2     8    1
     7     2     1   ar
     8     2     3   ar
     9    17    16    1
    10    13    18    1
    11    13    12   ar
    12    13    14   ar
    13     4    12    1
    14     4     5   ar
    15     4     3   ar
    16     6     5    1
    17     8     9    1
    18    18    19    1
    19    12    16   ar
    20     5     1   ar
    21    16    15   ar
    22     1     7    1
    23     3    10    1
    24    15    14   ar
    25    15    22    1
    26    10    11    1
    27    14    20    1
    28    22    23   ar
    29    20    21    1
    30    24    23   ar
    31    24    31    1
    32    23    29    1
    33    31    32    1
    34    29    30    1
